
     RDKit          3D

 70 73  0  0  0  0  0  0  0  0999 V2000
   -1.6408    1.4428   -2.8340 C   0  0  0  0  0  0  0  0  0  0  0  0
   -2.2361    0.8806   -1.5317 C   0  0  2  0  0  0  0  0  0  0  0  0
   -3.5903    1.6137   -1.3094 C   0  0  0  0  0  0  0  0  0  0  0  0
   -4.6483    0.9481   -0.4186 C   0  0  0  0  0  0  0  0  0  0  0  0
   -5.0817   -0.4411   -0.9030 C   0  0  0  0  0  0  0  0  0  0  0  0
   -6.1662   -1.1084   -0.0384 C   0  0  2  0  0  0  0  0  0  0  0  0
   -7.4690   -0.3117    0.0079 C   0  0  0  0  0  0  0  0  0  0  0  0
   -5.6085   -1.4486    1.3294 C   0  0  0  0  0  0  0  0  0  0  0  0
   -4.7139   -2.2516    1.5469 O   0  0  0  0  0  0  0  0  0  0  0  0
   -6.1496   -0.7568    2.3470 O   0  0  0  0  0  0  0  0  0  0  0  0
   -1.2524    1.0269   -0.3289 C   0  0  1  0  0  0  0  0  0  0  0  0
   -1.7825    0.3622    0.9747 C   0  0  0  0  0  0  0  0  0  0  0  0
   -0.5725   -0.1643    1.7589 C   0  0  0  0  0  0  0  0  0  0  0  0
    0.6138    0.4612    1.0408 C   0  0  2  0  0  0  0  0  0  0  0  0
    0.1940    0.4368   -0.4532 C   0  0  2  0  0  0  0  0  0  0  0  0
    1.2047    1.2714   -1.2831 C   0  0  0  0  0  0  0  0  0  0  0  0
    2.4368    1.7914   -0.5183 C   0  0  0  0  0  0  0  0  0  0  0  0
    3.0580    0.8668    0.5684 C   0  0  1  0  0  0  0  0  0  0  0  0
    2.0150   -0.0627    1.1873 C   0  0  0  0  0  0  0  0  0  0  0  0
    2.3441   -1.2434    1.7401 C   0  0  0  0  0  0  0  0  0  0  0  0
    3.7439   -1.7811    1.7877 C   0  0  0  0  0  0  0  0  0  0  0  0
    4.8010   -0.7365    1.4063 C   0  0  2  0  0  0  0  0  0  0  0  0
    4.3846    0.1227    0.1676 C   0  0  2  0  0  0  0  0  0  0  0  0
    5.5206    1.1020   -0.1184 C   0  0  0  0  0  0  0  0  0  0  0  0
    6.7991    0.9081    0.2377 C   0  0  0  0  0  0  0  0  0  0  0  0
    7.2252   -0.3320    0.9307 C   0  0  0  0  0  0  0  0  0  0  0  0
    8.4158   -0.4991    1.1848 O   0  0  0  0  0  0  0  0  0  0  0  0
    6.1815   -1.3781    1.2480 C   0  0  0  0  0  0  0  0  0  0  0  0
    4.1909   -0.7286   -1.1054 C   0  0  0  0  0  0  0  0  0  0  0  0
    0.1444   -1.0019   -1.0376 C   0  0  0  0  0  0  0  0  0  0  0  0
   -2.3526    1.3433   -3.6615 H   0  0  0  0  0  0  0  0  0  0  0  0
   -1.3968    2.5054   -2.7312 H   0  0  0  0  0  0  0  0  0  0  0  0
   -0.7418    0.9055   -3.1422 H   0  0  0  0  0  0  0  0  0  0  0  0
   -2.4289   -0.1821   -1.7089 H   0  0  0  0  0  0  0  0  0  0  0  0
   -3.3894    2.6182   -0.9142 H   0  0  0  0  0  0  0  0  0  0  0  0
   -4.0711    1.7729   -2.2845 H   0  0  0  0  0  0  0  0  0  0  0  0
   -4.3125    0.9064    0.6187 H   0  0  0  0  0  0  0  0  0  0  0  0
   -5.5211    1.6122   -0.4163 H   0  0  0  0  0  0  0  0  0  0  0  0
   -5.4493   -0.3610   -1.9339 H   0  0  0  0  0  0  0  0  0  0  0  0
   -4.2131   -1.1081   -0.9328 H   0  0  0  0  0  0  0  0  0  0  0  0
   -6.4132   -2.0756   -0.4975 H   0  0  0  0  0  0  0  0  0  0  0  0
   -7.3530    0.6469    0.5232 H   0  0  0  0  0  0  0  0  0  0  0  0
   -8.2429   -0.8740    0.5426 H   0  0  0  0  0  0  0  0  0  0  0  0
   -7.8386   -0.1130   -1.0034 H   0  0  0  0  0  0  0  0  0  0  0  0
   -5.6687   -1.0826    3.1365 H   0  0  0  0  0  0  0  0  0  0  0  0
   -1.1488    2.1034   -0.1237 H   0  0  0  0  0  0  0  0  0  0  0  0
   -2.4564   -0.4739    0.7646 H   0  0  0  0  0  0  0  0  0  0  0  0
   -2.3257    1.0977    1.5777 H   0  0  0  0  0  0  0  0  0  0  0  0
   -0.6161    0.1325    2.8121 H   0  0  0  0  0  0  0  0  0  0  0  0
   -0.5583   -1.2589    1.7307 H   0  0  0  0  0  0  0  0  0  0  0  0
    0.6387    1.5043    1.3977 H   0  0  0  0  0  0  0  0  0  0  0  0
    1.5647    0.6855   -2.1381 H   0  0  0  0  0  0  0  0  0  0  0  0
    0.7100    2.1466   -1.7176 H   0  0  0  0  0  0  0  0  0  0  0  0
    2.1227    2.7158   -0.0107 H   0  0  0  0  0  0  0  0  0  0  0  0
    3.1844    2.1217   -1.2465 H   0  0  0  0  0  0  0  0  0  0  0  0
    3.3389    1.5560    1.3825 H   0  0  0  0  0  0  0  0  0  0  0  0
    1.5766   -1.8967    2.1467 H   0  0  0  0  0  0  0  0  0  0  0  0
    3.8035   -2.6524    1.1245 H   0  0  0  0  0  0  0  0  0  0  0  0
    3.9479   -2.1438    2.8025 H   0  0  0  0  0  0  0  0  0  0  0  0
    4.8795   -0.0479    2.2650 H   0  0  0  0  0  0  0  0  0  0  0  0
    5.2878    2.0110   -0.6676 H   0  0  0  0  0  0  0  0  0  0  0  0
    7.5811    1.6227    0.0088 H   0  0  0  0  0  0  0  0  0  0  0  0
    6.1948   -2.1357    0.4579 H   0  0  0  0  0  0  0  0  0  0  0  0
    6.4667   -1.8628    2.1892 H   0  0  0  0  0  0  0  0  0  0  0  0
    5.1099   -1.2556   -1.3861 H   0  0  0  0  0  0  0  0  0  0  0  0
    3.9148   -0.1080   -1.9651 H   0  0  0  0  0  0  0  0  0  0  0  0
    3.4127   -1.4861   -0.9852 H   0  0  0  0  0  0  0  0  0  0  0  0
   -0.1403   -0.9944   -2.0943 H   0  0  0  0  0  0  0  0  0  0  0  0
   -0.5756   -1.6444   -0.5216 H   0  0  0  0  0  0  0  0  0  0  0  0
    1.1178   -1.4963   -0.9823 H   0  0  0  0  0  0  0  0  0  0  0  0
  1  2  1  0
  2  3  1  0
  3  4  1  0
  4  5  1  0
  5  6  1  0
  6  7  1  0
  6  8  1  0
  8  9  2  0
  8 10  1  0
  2 11  1  0
 11 12  1  0
 12 13  1  0
 13 14  1  0
 14 15  1  0
 15 16  1  0
 16 17  1  0
 17 18  1  0
 18 19  1  0
 19 20  2  0
 20 21  1  0
 21 22  1  0
 22 23  1  0
 23 24  1  0
 24 25  2  0
 25 26  1  0
 26 27  2  0
 26 28  1  0
 23 29  1  6
 15 30  1  6
 15 11  1  0
 19 14  1  0
 23 18  1  0
 28 22  1  0
  1 31  1  0
  1 32  1  0
  1 33  1  0
  2 34  1  6
  3 35  1  0
  3 36  1  0
  4 37  1  0
  4 38  1  0
  5 39  1  0
  5 40  1  0
  6 41  1  6
  7 42  1  0
  7 43  1  0
  7 44  1  0
 10 45  1  0
 11 46  1  1
 12 47  1  0
 12 48  1  0
 13 49  1  0
 13 50  1  0
 14 51  1  1
 16 52  1  0
 16 53  1  0
 17 54  1  0
 17 55  1  0
 18 56  1  1
 20 57  1  0
 21 58  1  0
 21 59  1  0
 22 60  1  1
 24 61  1  0
 25 62  1  0
 28 63  1  0
 28 64  1  0
 29 65  1  0
 29 66  1  0
 29 67  1  0
 30 68  1  0
 30 69  1  0
 30 70  1  0
M  END
$$$$
