
     RDKit          3D

 72 75  0  0  0  0  0  0  0  0999 V2000
    3.1547   -2.9789   -1.3255 C   0  0  0  0  0  0  0  0  0  0  0  0
    2.6251   -1.7907   -0.5000 C   0  0  2  0  0  0  0  0  0  0  0  0
    3.4899   -1.6159    0.7691 C   0  0  0  0  0  0  0  0  0  0  0  0
    4.9844   -1.3376    0.5361 C   0  0  0  0  0  0  0  0  0  0  0  0
    5.3273   -0.1568   -0.3815 C   0  0  0  0  0  0  0  0  0  0  0  0
    4.7363    1.1941    0.0442 C   0  0  0  0  0  0  0  0  0  0  0  0
    5.1136    2.2965   -0.9436 C   0  0  0  0  0  0  0  0  0  0  0  0
    5.1648    1.5918    1.4371 C   0  0  0  0  0  0  0  0  0  0  0  0
    4.4173    1.8161    2.3754 O   0  0  0  0  0  0  0  0  0  0  0  0
    6.4980    1.6947    1.5871 O   0  0  0  0  0  0  0  0  0  0  0  0
    1.1016   -1.9946   -0.2581 C   0  0  1  0  0  0  0  0  0  0  0  0
    0.6932   -2.9723    0.8714 C   0  0  0  0  0  0  0  0  0  0  0  0
   -0.7443   -2.5828    1.2735 C   0  0  0  0  0  0  0  0  0  0  0  0
   -1.1376   -1.4972    0.2747 C   0  0  2  0  0  0  0  0  0  0  0  0
    0.1927   -0.7568   -0.0041 C   0  0  2  0  0  0  0  0  0  0  0  0
   -0.0278    0.1415   -1.2307 C   0  0  0  0  0  0  0  0  0  0  0  0
   -1.2003    1.1172   -1.0207 C   0  0  0  0  0  0  0  0  0  0  0  0
   -2.5186    0.4224   -0.5820 C   0  0  1  0  0  0  0  0  0  0  0  0
   -2.2949   -0.5528    0.6163 C   0  0  1  0  0  0  0  0  0  0  0  0
   -3.5852   -1.3299    0.9084 C   0  0  0  0  0  0  0  0  0  0  0  0
   -4.7381   -0.3840    1.2190 C   0  0  0  0  0  0  0  0  0  0  0  0
   -4.9519    0.6320    0.1214 C   0  0  0  0  0  0  0  0  0  0  0  0
   -6.1871    0.8193   -0.3771 C   0  0  0  0  0  0  0  0  0  0  0  0
   -6.4778    1.8833   -1.3648 C   0  0  0  0  0  0  0  0  0  0  0  0
   -7.6144    1.9941   -1.8178 O   0  0  0  0  0  0  0  0  0  0  0  0
   -5.3756    2.8491   -1.7086 C   0  0  0  0  0  0  0  0  0  0  0  0
   -4.0261    2.1459   -1.6857 C   0  0  0  0  0  0  0  0  0  0  0  0
   -3.7179    1.4186   -0.3429 C   0  0  2  0  0  0  0  0  0  0  0  0
   -3.3867    2.4758    0.7345 C   0  0  0  0  0  0  0  0  0  0  0  0
    0.6748    0.1024    1.1850 C   0  0  0  0  0  0  0  0  0  0  0  0
    4.1861   -2.8155   -1.6514 H   0  0  0  0  0  0  0  0  0  0  0  0
    2.5604   -3.1228   -2.2345 H   0  0  0  0  0  0  0  0  0  0  0  0
    3.1216   -3.9089   -0.7482 H   0  0  0  0  0  0  0  0  0  0  0  0
    2.7313   -0.8970   -1.1255 H   0  0  0  0  0  0  0  0  0  0  0  0
    3.0970   -0.8145    1.3958 H   0  0  0  0  0  0  0  0  0  0  0  0
    3.4335   -2.5268    1.3770 H   0  0  0  0  0  0  0  0  0  0  0  0
    5.4556   -1.1791    1.5145 H   0  0  0  0  0  0  0  0  0  0  0  0
    5.4618   -2.2382    0.1315 H   0  0  0  0  0  0  0  0  0  0  0  0
    6.4215   -0.0798   -0.4302 H   0  0  0  0  0  0  0  0  0  0  0  0
    5.0002   -0.3870   -1.4026 H   0  0  0  0  0  0  0  0  0  0  0  0
    3.6438    1.1237    0.0516 H   0  0  0  0  0  0  0  0  0  0  0  0
    4.7036    3.2612   -0.6252 H   0  0  0  0  0  0  0  0  0  0  0  0
    4.7209    2.0744   -1.9413 H   0  0  0  0  0  0  0  0  0  0  0  0
    6.2001    2.4107   -1.0247 H   0  0  0  0  0  0  0  0  0  0  0  0
    6.6121    1.9572    2.5246 H   0  0  0  0  0  0  0  0  0  0  0  0
    0.7197   -2.4431   -1.1899 H   0  0  0  0  0  0  0  0  0  0  0  0
    1.3351   -2.9001    1.7533 H   0  0  0  0  0  0  0  0  0  0  0  0
    0.7355   -4.0082    0.5181 H   0  0  0  0  0  0  0  0  0  0  0  0
   -0.7638   -2.2074    2.3028 H   0  0  0  0  0  0  0  0  0  0  0  0
   -1.4160   -3.4459    1.2227 H   0  0  0  0  0  0  0  0  0  0  0  0
   -1.4374   -2.0299   -0.6437 H   0  0  0  0  0  0  0  0  0  0  0  0
    0.8812    0.7095   -1.4617 H   0  0  0  0  0  0  0  0  0  0  0  0
   -0.2405   -0.4727   -2.1153 H   0  0  0  0  0  0  0  0  0  0  0  0
   -0.9063    1.8734   -0.2862 H   0  0  0  0  0  0  0  0  0  0  0  0
   -1.3566    1.6515   -1.9643 H   0  0  0  0  0  0  0  0  0  0  0  0
   -2.8100   -0.2136   -1.4340 H   0  0  0  0  0  0  0  0  0  0  0  0
   -2.0434    0.0161    1.5175 H   0  0  0  0  0  0  0  0  0  0  0  0
   -3.8475   -1.9637    0.0513 H   0  0  0  0  0  0  0  0  0  0  0  0
   -3.4386   -1.9984    1.7647 H   0  0  0  0  0  0  0  0  0  0  0  0
   -5.6435   -0.9785    1.3915 H   0  0  0  0  0  0  0  0  0  0  0  0
   -4.5350    0.1455    2.1580 H   0  0  0  0  0  0  0  0  0  0  0  0
   -7.0480    0.2473   -0.0481 H   0  0  0  0  0  0  0  0  0  0  0  0
   -5.4093    3.6868   -1.0051 H   0  0  0  0  0  0  0  0  0  0  0  0
   -5.5587    3.2411   -2.7152 H   0  0  0  0  0  0  0  0  0  0  0  0
   -4.0117    1.4160   -2.5074 H   0  0  0  0  0  0  0  0  0  0  0  0
   -3.2478    2.8841   -1.9133 H   0  0  0  0  0  0  0  0  0  0  0  0
   -2.6139    3.1721    0.3925 H   0  0  0  0  0  0  0  0  0  0  0  0
   -3.0317    2.0228    1.6653 H   0  0  0  0  0  0  0  0  0  0  0  0
   -4.2663    3.0779    0.9908 H   0  0  0  0  0  0  0  0  0  0  0  0
    1.5669    0.6720    0.9112 H   0  0  0  0  0  0  0  0  0  0  0  0
    0.9142   -0.4971    2.0681 H   0  0  0  0  0  0  0  0  0  0  0  0
   -0.0654    0.8405    1.5045 H   0  0  0  0  0  0  0  0  0  0  0  0
  1  2  1  0
  2  3  1  0
  3  4  1  0
  4  5  1  0
  5  6  1  0
  6  7  1  0
  6  8  1  0
  8  9  2  0
  8 10  1  0
  2 11  1  0
 11 12  1  0
 12 13  1  0
 13 14  1  0
 14 15  1  0
 15 16  1  0
 16 17  1  0
 17 18  1  0
 18 19  1  0
 19 20  1  0
 20 21  1  0
 21 22  1  0
 22 23  2  0
 23 24  1  0
 24 25  2  0
 24 26  1  0
 26 27  1  0
 27 28  1  0
 28 29  1  1
 15 30  1  1
 15 11  1  0
 19 14  1  0
 28 18  1  0
 28 22  1  0
  1 31  1  0
  1 32  1  0
  1 33  1  0
  2 34  1  6
  3 35  1  0
  3 36  1  0
  4 37  1  0
  4 38  1  0
  5 39  1  0
  5 40  1  0
  6 41  1  0
  7 42  1  0
  7 43  1  0
  7 44  1  0
 10 45  1  0
 11 46  1  6
 12 47  1  0
 12 48  1  0
 13 49  1  0
 13 50  1  0
 14 51  1  6
 16 52  1  0
 16 53  1  0
 17 54  1  0
 17 55  1  0
 18 56  1  6
 19 57  1  1
 20 58  1  0
 20 59  1  0
 21 60  1  0
 21 61  1  0
 23 62  1  0
 26 63  1  0
 26 64  1  0
 27 65  1  0
 27 66  1  0
 29 67  1  0
 29 68  1  0
 29 69  1  0
 30 70  1  0
 30 71  1  0
 30 72  1  0
M  END
$$$$
