
     RDKit          3D

 74 77  0  0  0  0  0  0  0  0999 V2000
    2.5641   -0.3725    2.6612 C   0  0  0  0  0  0  0  0  0  0  0  0
    2.5178   -1.3092    1.4504 C   0  0  2  0  0  0  0  0  0  0  0  0
    3.9438   -1.4802    0.8623 C   0  0  0  0  0  0  0  0  0  0  0  0
    4.5716   -0.2049    0.2857 C   0  0  0  0  0  0  0  0  0  0  0  0
    5.9795   -0.4818   -0.2535 C   0  0  0  0  0  0  0  0  0  0  0  0
    6.7080    0.7871   -0.7245 C   0  0  0  0  0  0  0  0  0  0  0  0
    6.0520    1.4480   -1.9319 C   0  0  0  0  0  0  0  0  0  0  0  0
    8.1368    0.4429   -1.0793 C   0  0  0  0  0  0  0  0  0  0  0  0
    8.5224   -0.5328   -1.7012 O   0  0  0  0  0  0  0  0  0  0  0  0
    9.0144    1.3715   -0.6515 O   0  0  0  0  0  0  0  0  0  0  0  0
    1.4735   -0.8698    0.3880 C   0  0  1  0  0  0  0  0  0  0  0  0
    1.4413   -1.8349   -0.8325 C   0  0  0  0  0  0  0  0  0  0  0  0
    0.0125   -1.8110   -1.3912 C   0  0  0  0  0  0  0  0  0  0  0  0
   -0.6640   -0.6862   -0.6220 C   0  0  2  0  0  0  0  0  0  0  0  0
   -0.0315   -0.7668    0.7913 C   0  0  2  0  0  0  0  0  0  0  0  0
   -0.4420    0.5191    1.5312 C   0  0  0  0  0  0  0  0  0  0  0  0
   -1.9702    0.7041    1.5772 C   0  0  0  0  0  0  0  0  0  0  0  0
   -2.6448    0.6329    0.1850 C   0  0  1  0  0  0  0  0  0  0  0  0
   -2.1973   -0.6358   -0.6052 C   0  0  1  0  0  0  0  0  0  0  0  0
   -2.7755   -0.6339   -2.0276 C   0  0  0  0  0  0  0  0  0  0  0  0
   -4.2913   -0.4592   -2.0371 C   0  0  0  0  0  0  0  0  0  0  0  0
   -4.7086    0.8018   -1.2727 C   0  0  2  0  0  0  0  0  0  0  0  0
   -4.2116    0.7935    0.2100 C   0  0  2  0  0  0  0  0  0  0  0  0
   -4.6055    2.1639    0.8329 C   0  0  0  0  0  0  0  0  0  0  0  0
   -6.0940    2.4883    0.7284 C   0  0  0  0  0  0  0  0  0  0  0  0
   -6.6035    2.3156   -0.6827 C   0  0  0  0  0  0  0  0  0  0  0  0
   -7.3887    3.1214   -1.1825 O   0  0  0  0  0  0  0  0  0  0  0  0
   -6.2145    1.0455   -1.4030 C   0  0  0  0  0  0  0  0  0  0  0  0
   -4.8704   -0.3367    1.0397 C   0  0  0  0  0  0  0  0  0  0  0  0
   -0.4737   -2.0081    1.6036 C   0  0  0  0  0  0  0  0  0  0  0  0
    1.6842   -0.5054    3.2950 H   0  0  0  0  0  0  0  0  0  0  0  0
    2.6158    0.6781    2.3585 H   0  0  0  0  0  0  0  0  0  0  0  0
    3.4337   -0.5870    3.2922 H   0  0  0  0  0  0  0  0  0  0  0  0
    2.2336   -2.3017    1.8239 H   0  0  0  0  0  0  0  0  0  0  0  0
    3.9311   -2.2560    0.0876 H   0  0  0  0  0  0  0  0  0  0  0  0
    4.5991   -1.8688    1.6537 H   0  0  0  0  0  0  0  0  0  0  0  0
    4.6276    0.5688    1.0591 H   0  0  0  0  0  0  0  0  0  0  0  0
    3.9453    0.1826   -0.5231 H   0  0  0  0  0  0  0  0  0  0  0  0
    6.5768   -0.9614    0.5332 H   0  0  0  0  0  0  0  0  0  0  0  0
    5.9181   -1.2066   -1.0760 H   0  0  0  0  0  0  0  0  0  0  0  0
    6.7299    1.5008    0.1091 H   0  0  0  0  0  0  0  0  0  0  0  0
    5.0616    1.8406   -1.6825 H   0  0  0  0  0  0  0  0  0  0  0  0
    5.9420    0.7405   -2.7612 H   0  0  0  0  0  0  0  0  0  0  0  0
    6.6573    2.2862   -2.2946 H   0  0  0  0  0  0  0  0  0  0  0  0
    9.8825    1.0349   -0.9576 H   0  0  0  0  0  0  0  0  0  0  0  0
    1.7745    0.1193    0.0139 H   0  0  0  0  0  0  0  0  0  0  0  0
    1.7019   -2.8615   -0.5506 H   0  0  0  0  0  0  0  0  0  0  0  0
    2.1603   -1.5104   -1.5930 H   0  0  0  0  0  0  0  0  0  0  0  0
    0.0123   -1.6295   -2.4709 H   0  0  0  0  0  0  0  0  0  0  0  0
   -0.4833   -2.7725   -1.2177 H   0  0  0  0  0  0  0  0  0  0  0  0
   -0.3252    0.2503   -1.0968 H   0  0  0  0  0  0  0  0  0  0  0  0
   -0.0681    0.5233    2.5588 H   0  0  0  0  0  0  0  0  0  0  0  0
    0.0020    1.3932    1.0375 H   0  0  0  0  0  0  0  0  0  0  0  0
   -2.1690    1.6781    2.0375 H   0  0  0  0  0  0  0  0  0  0  0  0
   -2.3983   -0.0460    2.2489 H   0  0  0  0  0  0  0  0  0  0  0  0
   -2.2544    1.4995   -0.3724 H   0  0  0  0  0  0  0  0  0  0  0  0
   -2.5741   -1.5340   -0.1056 H   0  0  0  0  0  0  0  0  0  0  0  0
   -2.3177    0.1736   -2.6134 H   0  0  0  0  0  0  0  0  0  0  0  0
   -2.5270   -1.5719   -2.5371 H   0  0  0  0  0  0  0  0  0  0  0  0
   -4.6305   -0.3930   -3.0779 H   0  0  0  0  0  0  0  0  0  0  0  0
   -4.7717   -1.3472   -1.6111 H   0  0  0  0  0  0  0  0  0  0  0  0
   -4.2157    1.6512   -1.7722 H   0  0  0  0  0  0  0  0  0  0  0  0
   -4.0416    2.9610    0.3297 H   0  0  0  0  0  0  0  0  0  0  0  0
   -4.3245    2.2038    1.8916 H   0  0  0  0  0  0  0  0  0  0  0  0
   -6.6898    1.8491    1.3877 H   0  0  0  0  0  0  0  0  0  0  0  0
   -6.2600    3.5264    1.0368 H   0  0  0  0  0  0  0  0  0  0  0  0
   -6.4801    1.1584   -2.4608 H   0  0  0  0  0  0  0  0  0  0  0  0
   -6.8074    0.2181   -1.0020 H   0  0  0  0  0  0  0  0  0  0  0  0
   -4.5990   -0.2613    2.0977 H   0  0  0  0  0  0  0  0  0  0  0  0
   -5.9626   -0.3004    1.0000 H   0  0  0  0  0  0  0  0  0  0  0  0
   -4.5797   -1.3331    0.6981 H   0  0  0  0  0  0  0  0  0  0  0  0
   -0.0356   -1.9941    2.6070 H   0  0  0  0  0  0  0  0  0  0  0  0
   -1.5571   -2.0610    1.7392 H   0  0  0  0  0  0  0  0  0  0  0  0
   -0.1677   -2.9467    1.1314 H   0  0  0  0  0  0  0  0  0  0  0  0
  1  2  1  0
  2  3  1  0
  3  4  1  0
  4  5  1  0
  5  6  1  0
  6  7  1  0
  6  8  1  0
  8  9  2  0
  8 10  1  0
  2 11  1  0
 11 12  1  0
 12 13  1  0
 13 14  1  0
 14 15  1  0
 15 16  1  0
 16 17  1  0
 17 18  1  0
 18 19  1  0
 19 20  1  0
 20 21  1  0
 21 22  1  0
 22 23  1  0
 23 24  1  0
 24 25  1  0
 25 26  1  0
 26 27  2  0
 26 28  1  0
 23 29  1  1
 15 30  1  1
 15 11  1  0
 19 14  1  0
 23 18  1  0
 28 22  1  0
  1 31  1  0
  1 32  1  0
  1 33  1  0
  2 34  1  1
  3 35  1  0
  3 36  1  0
  4 37  1  0
  4 38  1  0
  5 39  1  0
  5 40  1  0
  6 41  1  0
  7 42  1  0
  7 43  1  0
  7 44  1  0
 10 45  1  0
 11 46  1  6
 12 47  1  0
 12 48  1  0
 13 49  1  0
 13 50  1  0
 14 51  1  6
 16 52  1  0
 16 53  1  0
 17 54  1  0
 17 55  1  0
 18 56  1  6
 19 57  1  1
 20 58  1  0
 20 59  1  0
 21 60  1  0
 21 61  1  0
 22 62  1  6
 24 63  1  0
 24 64  1  0
 25 65  1  0
 25 66  1  0
 28 67  1  0
 28 68  1  0
 29 69  1  0
 29 70  1  0
 29 71  1  0
 30 72  1  0
 30 73  1  0
 30 74  1  0
M  END
$$$$
