
     RDKit          3D

 72 75  0  0  0  0  0  0  0  0999 V2000
    2.5263   -0.8516    1.8974 C   0  0  0  0  0  0  0  0  0  0  0  0
    2.5554   -0.8409    0.3660 C   0  0  2  0  0  0  0  0  0  0  0  0
    3.8996   -0.2489   -0.1418 C   0  0  0  0  0  0  0  0  0  0  0  0
    5.1366   -1.0545    0.2753 C   0  0  0  0  0  0  0  0  0  0  0  0
    6.4116   -0.6303   -0.4649 C   0  0  0  0  0  0  0  0  0  0  0  0
    6.8180    0.8421   -0.2976 C   0  0  1  0  0  0  0  0  0  0  0  0
    7.0461    1.2360    1.1612 C   0  0  0  0  0  0  0  0  0  0  0  0
    8.0775    1.0967   -1.0987 C   0  0  0  0  0  0  0  0  0  0  0  0
    9.2185    1.1766   -0.6761 O   0  0  0  0  0  0  0  0  0  0  0  0
    7.8287    1.2289   -2.4173 O   0  0  0  0  0  0  0  0  0  0  0  0
    1.3590   -0.0492   -0.2445 C   0  0  1  0  0  0  0  0  0  0  0  0
    1.3618   -0.1048   -1.8007 C   0  0  0  0  0  0  0  0  0  0  0  0
   -0.0987   -0.0713   -2.2632 C   0  0  0  0  0  0  0  0  0  0  0  0
   -0.8788    0.2831   -1.0015 C   0  0  2  0  0  0  0  0  0  0  0  0
   -0.1047   -0.4521    0.1231 C   0  0  2  0  0  0  0  0  0  0  0  0
   -0.6276    0.1237    1.4561 C   0  0  0  0  0  0  0  0  0  0  0  0
   -2.1444   -0.0753    1.6101 C   0  0  0  0  0  0  0  0  0  0  0  0
   -2.9836    0.4747    0.4243 C   0  0  1  0  0  0  0  0  0  0  0  0
   -2.3765    0.0892   -0.9307 C   0  0  0  0  0  0  0  0  0  0  0  0
   -3.1283   -0.2905   -1.9799 C   0  0  0  0  0  0  0  0  0  0  0  0
   -4.6272   -0.3051   -1.9733 C   0  0  0  0  0  0  0  0  0  0  0  0
   -5.2010    0.5105   -0.8057 C   0  0  2  0  0  0  0  0  0  0  0  0
   -4.5247    0.1365    0.5516 C   0  0  2  0  0  0  0  0  0  0  0  0
   -5.1631    0.9575    1.7216 C   0  0  0  0  0  0  0  0  0  0  0  0
   -6.3144    1.8710    1.3110 C   0  0  0  0  0  0  0  0  0  0  0  0
   -7.2919    1.1332    0.4309 C   0  0  0  0  0  0  0  0  0  0  0  0
   -8.5025    1.1598    0.6491 O   0  0  0  0  0  0  0  0  0  0  0  0
   -6.7292    0.4051   -0.7671 C   0  0  0  0  0  0  0  0  0  0  0  0
   -4.7418   -1.3709    0.8640 C   0  0  0  0  0  0  0  0  0  0  0  0
   -0.2958   -1.9871    0.0717 C   0  0  0  0  0  0  0  0  0  0  0  0
    2.4769    0.1651    2.3006 H   0  0  0  0  0  0  0  0  0  0  0  0
    1.6747   -1.4202    2.2753 H   0  0  0  0  0  0  0  0  0  0  0  0
    3.4086   -1.3396    2.3201 H   0  0  0  0  0  0  0  0  0  0  0  0
    2.5008   -1.8817    0.0222 H   0  0  0  0  0  0  0  0  0  0  0  0
    3.8900   -0.2015   -1.2361 H   0  0  0  0  0  0  0  0  0  0  0  0
    3.9927    0.7829    0.2177 H   0  0  0  0  0  0  0  0  0  0  0  0
    4.9617   -2.1168    0.0657 H   0  0  0  0  0  0  0  0  0  0  0  0
    5.3053   -0.9721    1.3533 H   0  0  0  0  0  0  0  0  0  0  0  0
    6.2840   -0.8508   -1.5331 H   0  0  0  0  0  0  0  0  0  0  0  0
    7.2354   -1.2740   -0.1276 H   0  0  0  0  0  0  0  0  0  0  0  0
    6.0430    1.5037   -0.7041 H   0  0  0  0  0  0  0  0  0  0  0  0
    6.1141    1.2010    1.7334 H   0  0  0  0  0  0  0  0  0  0  0  0
    7.7701    0.5709    1.6451 H   0  0  0  0  0  0  0  0  0  0  0  0
    7.4375    2.2572    1.2319 H   0  0  0  0  0  0  0  0  0  0  0  0
    8.7142    1.3800   -2.8100 H   0  0  0  0  0  0  0  0  0  0  0  0
    1.4928    1.0062    0.0382 H   0  0  0  0  0  0  0  0  0  0  0  0
    1.9113    0.7519   -2.2075 H   0  0  0  0  0  0  0  0  0  0  0  0
    1.8418   -1.0143   -2.1798 H   0  0  0  0  0  0  0  0  0  0  0  0
   -0.3835   -1.0517   -2.6616 H   0  0  0  0  0  0  0  0  0  0  0  0
   -0.2493    0.6645   -3.0601 H   0  0  0  0  0  0  0  0  0  0  0  0
   -0.7333    1.3683   -0.8627 H   0  0  0  0  0  0  0  0  0  0  0  0
   -0.1380   -0.3431    2.3141 H   0  0  0  0  0  0  0  0  0  0  0  0
   -0.4033    1.1964    1.5185 H   0  0  0  0  0  0  0  0  0  0  0  0
   -2.4614    0.4081    2.5415 H   0  0  0  0  0  0  0  0  0  0  0  0
   -2.3218   -1.1457    1.7504 H   0  0  0  0  0  0  0  0  0  0  0  0
   -2.8942    1.5718    0.4652 H   0  0  0  0  0  0  0  0  0  0  0  0
   -2.6652   -0.5518   -2.9277 H   0  0  0  0  0  0  0  0  0  0  0  0
   -4.9836    0.1293   -2.9156 H   0  0  0  0  0  0  0  0  0  0  0  0
   -4.9788   -1.3428   -1.9537 H   0  0  0  0  0  0  0  0  0  0  0  0
   -4.9607    1.5662   -1.0104 H   0  0  0  0  0  0  0  0  0  0  0  0
   -4.4113    1.5795    2.2211 H   0  0  0  0  0  0  0  0  0  0  0  0
   -5.5354    0.2758    2.4977 H   0  0  0  0  0  0  0  0  0  0  0  0
   -5.9499    2.7486    0.7666 H   0  0  0  0  0  0  0  0  0  0  0  0
   -6.8365    2.2326    2.2035 H   0  0  0  0  0  0  0  0  0  0  0  0
   -7.1532    0.8616   -1.6686 H   0  0  0  0  0  0  0  0  0  0  0  0
   -7.0601   -0.6372   -0.7237 H   0  0  0  0  0  0  0  0  0  0  0  0
   -4.1972   -2.0217    0.1732 H   0  0  0  0  0  0  0  0  0  0  0  0
   -5.8001   -1.6455    0.8163 H   0  0  0  0  0  0  0  0  0  0  0  0
   -4.4118   -1.6246    1.8774 H   0  0  0  0  0  0  0  0  0  0  0  0
    0.1468   -2.4692    0.9487 H   0  0  0  0  0  0  0  0  0  0  0  0
    0.1730   -2.4337   -0.8112 H   0  0  0  0  0  0  0  0  0  0  0  0
   -1.3509   -2.2758    0.0457 H   0  0  0  0  0  0  0  0  0  0  0  0
  1  2  1  0
  2  3  1  0
  3  4  1  0
  4  5  1  0
  5  6  1  0
  6  7  1  0
  6  8  1  0
  8  9  2  0
  8 10  1  0
  2 11  1  0
 11 12  1  0
 12 13  1  0
 13 14  1  0
 14 15  1  0
 15 16  1  0
 16 17  1  0
 17 18  1  0
 18 19  1  0
 19 20  2  0
 20 21  1  0
 21 22  1  0
 22 23  1  0
 23 24  1  0
 24 25  1  0
 25 26  1  0
 26 27  2  0
 26 28  1  0
 23 29  1  1
 15 30  1  1
 15 11  1  0
 19 14  1  0
 23 18  1  0
 28 22  1  0
  1 31  1  0
  1 32  1  0
  1 33  1  0
  2 34  1  6
  3 35  1  0
  3 36  1  0
  4 37  1  0
  4 38  1  0
  5 39  1  0
  5 40  1  0
  6 41  1  6
  7 42  1  0
  7 43  1  0
  7 44  1  0
 10 45  1  0
 11 46  1  6
 12 47  1  0
 12 48  1  0
 13 49  1  0
 13 50  1  0
 14 51  1  1
 16 52  1  0
 16 53  1  0
 17 54  1  0
 17 55  1  0
 18 56  1  1
 20 57  1  0
 21 58  1  0
 21 59  1  0
 22 60  1  6
 24 61  1  0
 24 62  1  0
 25 63  1  0
 25 64  1  0
 28 65  1  0
 28 66  1  0
 29 67  1  0
 29 68  1  0
 29 69  1  0
 30 70  1  0
 30 71  1  0
 30 72  1  0
M  END
$$$$
