
     RDKit          3D

 74 77  0  0  0  0  0  0  0  0999 V2000
    3.8315   -1.8760   -1.8010 C   0  0  0  0  0  0  0  0  0  0  0  0
    2.7564   -0.7866   -1.6866 C   0  0  2  0  0  0  0  0  0  0  0  0
    3.3804    0.5899   -1.3829 C   0  0  0  0  0  0  0  0  0  0  0  0
    4.0781    0.8079   -0.0371 C   0  0  0  0  0  0  0  0  0  0  0  0
    5.5820    0.5120   -0.0702 C   0  0  0  0  0  0  0  0  0  0  0  0
    6.2534    0.6792    1.3022 C   0  0  2  0  0  0  0  0  0  0  0  0
    6.2660    2.1222    1.8019 C   0  0  0  0  0  0  0  0  0  0  0  0
    7.6620    0.1318    1.2487 C   0  0  0  0  0  0  0  0  0  0  0  0
    8.0583   -0.8769    1.8107 O   0  0  0  0  0  0  0  0  0  0  0  0
    8.4965    0.8573    0.4801 O   0  0  0  0  0  0  0  0  0  0  0  0
    1.5473   -1.3060   -0.8626 C   0  0  1  0  0  0  0  0  0  0  0  0
    1.8240   -2.0177    0.4828 C   0  0  0  0  0  0  0  0  0  0  0  0
    0.4877   -1.9999    1.2521 C   0  0  0  0  0  0  0  0  0  0  0  0
   -0.5289   -1.4442    0.2459 C   0  0  2  0  0  0  0  0  0  0  0  0
    0.3060   -0.4170   -0.5628 C   0  0  2  0  0  0  0  0  0  0  0  0
   -0.5041   -0.0318   -1.8107 C   0  0  0  0  0  0  0  0  0  0  0  0
   -1.8693    0.5638   -1.4319 C   0  0  0  0  0  0  0  0  0  0  0  0
   -2.7098   -0.3239   -0.4682 C   0  0  1  0  0  0  0  0  0  0  0  0
   -1.8732   -0.9110    0.6798 C   0  0  0  0  0  0  0  0  0  0  0  0
   -2.3444   -1.0236    1.9350 C   0  0  0  0  0  0  0  0  0  0  0  0
   -3.7441   -0.6650    2.3389 C   0  0  0  0  0  0  0  0  0  0  0  0
   -4.6732   -0.5154    1.1249 C   0  0  2  0  0  0  0  0  0  0  0  0
   -4.0327    0.3895    0.0264 C   0  0  2  0  0  0  0  0  0  0  0  0
   -5.0340    0.5209   -1.1542 C   0  0  0  0  0  0  0  0  0  0  0  0
   -6.4261    0.9793   -0.7208 C   0  0  0  0  0  0  0  0  0  0  0  0
   -7.0106    0.0766    0.3614 C   0  0  1  0  0  0  0  0  0  0  0  0
   -6.0724   -0.0576    1.5575 C   0  0  0  0  0  0  0  0  0  0  0  0
   -8.2495    0.6126    0.8141 O   0  0  0  0  0  0  0  0  0  0  0  0
   -3.7305    1.8074    0.5818 C   0  0  0  0  0  0  0  0  0  0  0  0
    0.6182    0.8374    0.2893 C   0  0  0  0  0  0  0  0  0  0  0  0
    4.2634   -2.1273   -0.8280 H   0  0  0  0  0  0  0  0  0  0  0  0
    4.6416   -1.5585   -2.4662 H   0  0  0  0  0  0  0  0  0  0  0  0
    3.4064   -2.7943   -2.2212 H   0  0  0  0  0  0  0  0  0  0  0  0
    2.3603   -0.6686   -2.7077 H   0  0  0  0  0  0  0  0  0  0  0  0
    2.6032    1.3490   -1.5035 H   0  0  0  0  0  0  0  0  0  0  0  0
    4.0956    0.8238   -2.1840 H   0  0  0  0  0  0  0  0  0  0  0  0
    3.9465    1.8642    0.2266 H   0  0  0  0  0  0  0  0  0  0  0  0
    3.6033    0.2364    0.7591 H   0  0  0  0  0  0  0  0  0  0  0  0
    6.0658    1.1704   -0.8036 H   0  0  0  0  0  0  0  0  0  0  0  0
    5.7564   -0.5097   -0.4217 H   0  0  0  0  0  0  0  0  0  0  0  0
    5.7150    0.0691    2.0399 H   0  0  0  0  0  0  0  0  0  0  0  0
    5.2559    2.4652    2.0479 H   0  0  0  0  0  0  0  0  0  0  0  0
    6.8779    2.2171    2.7062 H   0  0  0  0  0  0  0  0  0  0  0  0
    6.6814    2.8031    1.0501 H   0  0  0  0  0  0  0  0  0  0  0  0
    9.3494    0.3774    0.5389 H   0  0  0  0  0  0  0  0  0  0  0  0
    1.1645   -2.1173   -1.5081 H   0  0  0  0  0  0  0  0  0  0  0  0
    2.5988   -1.5329    1.0784 H   0  0  0  0  0  0  0  0  0  0  0  0
    2.1484   -3.0503    0.3105 H   0  0  0  0  0  0  0  0  0  0  0  0
    0.2124   -3.0028    1.5954 H   0  0  0  0  0  0  0  0  0  0  0  0
    0.5795   -1.3607    2.1376 H   0  0  0  0  0  0  0  0  0  0  0  0
   -0.7784   -2.2894   -0.4184 H   0  0  0  0  0  0  0  0  0  0  0  0
    0.0530    0.6892   -2.4206 H   0  0  0  0  0  0  0  0  0  0  0  0
   -0.6689   -0.9124   -2.4447 H   0  0  0  0  0  0  0  0  0  0  0  0
   -2.4344    0.7358   -2.3553 H   0  0  0  0  0  0  0  0  0  0  0  0
   -1.6917    1.5516   -0.9959 H   0  0  0  0  0  0  0  0  0  0  0  0
   -3.0177   -1.2009   -1.0592 H   0  0  0  0  0  0  0  0  0  0  0  0
   -1.7276   -1.4513    2.7209 H   0  0  0  0  0  0  0  0  0  0  0  0
   -3.7216    0.2496    2.9424 H   0  0  0  0  0  0  0  0  0  0  0  0
   -4.1336   -1.4600    2.9868 H   0  0  0  0  0  0  0  0  0  0  0  0
   -4.8001   -1.5190    0.6883 H   0  0  0  0  0  0  0  0  0  0  0  0
   -5.1337   -0.4491   -1.6590 H   0  0  0  0  0  0  0  0  0  0  0  0
   -4.6539    1.2222   -1.9060 H   0  0  0  0  0  0  0  0  0  0  0  0
   -6.3979    2.0179   -0.3689 H   0  0  0  0  0  0  0  0  0  0  0  0
   -7.0962    0.9890   -1.5894 H   0  0  0  0  0  0  0  0  0  0  0  0
   -7.2112   -0.9180   -0.0548 H   0  0  0  0  0  0  0  0  0  0  0  0
   -6.4995   -0.7788    2.2667 H   0  0  0  0  0  0  0  0  0  0  0  0
   -6.0295    0.8886    2.1101 H   0  0  0  0  0  0  0  0  0  0  0  0
   -8.8419    0.6695    0.0456 H   0  0  0  0  0  0  0  0  0  0  0  0
   -4.5799    2.2320    1.1242 H   0  0  0  0  0  0  0  0  0  0  0  0
   -2.8773    1.8078    1.2674 H   0  0  0  0  0  0  0  0  0  0  0  0
   -3.5015    2.5116   -0.2256 H   0  0  0  0  0  0  0  0  0  0  0  0
    0.9640    1.6696   -0.3277 H   0  0  0  0  0  0  0  0  0  0  0  0
   -0.2652    1.2089    0.8184 H   0  0  0  0  0  0  0  0  0  0  0  0
    1.3739    0.6471    1.0553 H   0  0  0  0  0  0  0  0  0  0  0  0
  1  2  1  0
  2  3  1  0
  3  4  1  0
  4  5  1  0
  5  6  1  0
  6  7  1  0
  6  8  1  0
  8  9  2  0
  8 10  1  0
  2 11  1  0
 11 12  1  0
 12 13  1  0
 13 14  1  0
 14 15  1  0
 15 16  1  0
 16 17  1  0
 17 18  1  0
 18 19  1  0
 19 20  2  0
 20 21  1  0
 21 22  1  0
 22 23  1  0
 23 24  1  0
 24 25  1  0
 25 26  1  0
 26 27  1  0
 26 28  1  0
 23 29  1  1
 15 30  1  1
 15 11  1  0
 19 14  1  0
 23 18  1  0
 27 22  1  0
  1 31  1  0
  1 32  1  0
  1 33  1  0
  2 34  1  6
  3 35  1  0
  3 36  1  0
  4 37  1  0
  4 38  1  0
  5 39  1  0
  5 40  1  0
  6 41  1  1
  7 42  1  0
  7 43  1  0
  7 44  1  0
 10 45  1  0
 11 46  1  6
 12 47  1  0
 12 48  1  0
 13 49  1  0
 13 50  1  0
 14 51  1  6
 16 52  1  0
 16 53  1  0
 17 54  1  0
 17 55  1  0
 18 56  1  6
 20 57  1  0
 21 58  1  0
 21 59  1  0
 22 60  1  6
 24 61  1  0
 24 62  1  0
 25 63  1  0
 25 64  1  0
 26 65  1  6
 27 66  1  0
 27 67  1  0
 28 68  1  0
 29 69  1  0
 29 70  1  0
 29 71  1  0
 30 72  1  0
 30 73  1  0
 30 74  1  0
M  END
$$$$
