
     RDKit          3D

 72 75  0  0  0  0  0  0  0  0999 V2000
    2.5057    0.3826    1.8350 C   0  0  0  0  0  0  0  0  0  0  0  0
    2.4990    0.0034    0.3511 C   0  0  2  0  0  0  0  0  0  0  0  0
    3.7253    0.6283   -0.3692 C   0  0  0  0  0  0  0  0  0  0  0  0
    5.0818    0.1323    0.1489 C   0  0  0  0  0  0  0  0  0  0  0  0
    6.2275    0.6506   -0.7276 C   0  0  0  0  0  0  0  0  0  0  0  0
    7.6156    0.2813   -0.1846 C   0  0  0  0  0  0  0  0  0  0  0  0
    7.8984   -1.2185   -0.2073 C   0  0  0  0  0  0  0  0  0  0  0  0
    8.6774    1.0271   -0.9600 C   0  0  0  0  0  0  0  0  0  0  0  0
    9.3748    1.9308   -0.5284 O   0  0  0  0  0  0  0  0  0  0  0  0
    8.7979    0.6244   -2.2389 O   0  0  0  0  0  0  0  0  0  0  0  0
    1.1827    0.4335   -0.3661 C   0  0  1  0  0  0  0  0  0  0  0  0
    1.1580   -0.0255   -1.8540 C   0  0  0  0  0  0  0  0  0  0  0  0
   -0.2999   -0.3252   -2.2172 C   0  0  0  0  0  0  0  0  0  0  0  0
   -1.0970    0.2363   -1.0444 C   0  0  2  0  0  0  0  0  0  0  0  0
   -0.1945   -0.0594    0.1816 C   0  0  2  0  0  0  0  0  0  0  0  0
   -0.7690    0.7698    1.3495 C   0  0  0  0  0  0  0  0  0  0  0  0
   -2.2314    0.4013    1.6463 C   0  0  0  0  0  0  0  0  0  0  0  0
   -3.1736    0.4835    0.4144 C   0  0  1  0  0  0  0  0  0  0  0  0
   -2.5454   -0.1437   -0.8346 C   0  0  0  0  0  0  0  0  0  0  0  0
   -3.2548   -0.8798   -1.7083 C   0  0  0  0  0  0  0  0  0  0  0  0
   -4.7305   -1.1139   -1.6019 C   0  0  0  0  0  0  0  0  0  0  0  0
   -5.4082   -0.1382   -0.6266 C   0  0  2  0  0  0  0  0  0  0  0  0
   -4.6362   -0.0359    0.7269 C   0  0  2  0  0  0  0  0  0  0  0  0
   -5.3579    0.9660    1.6887 C   0  0  0  0  0  0  0  0  0  0  0  0
   -6.7302    1.4411    1.2196 C   0  0  0  0  0  0  0  0  0  0  0  0
   -7.5309    0.3010    0.6485 C   0  0  0  0  0  0  0  0  0  0  0  0
   -8.6800    0.0677    1.0222 O   0  0  0  0  0  0  0  0  0  0  0  0
   -6.8878   -0.5052   -0.4545 C   0  0  0  0  0  0  0  0  0  0  0  0
   -4.6013   -1.4244    1.4257 C   0  0  0  0  0  0  0  0  0  0  0  0
   -0.1525   -1.5649    0.5393 C   0  0  0  0  0  0  0  0  0  0  0  0
    3.4575    0.1398    2.3147 H   0  0  0  0  0  0  0  0  0  0  0  0
    1.7531   -0.1770    2.3930 H   0  0  0  0  0  0  0  0  0  0  0  0
    2.3208    1.4526    1.9722 H   0  0  0  0  0  0  0  0  0  0  0  0
    2.5956   -1.0878    0.2837 H   0  0  0  0  0  0  0  0  0  0  0  0
    3.6819    1.7214   -0.2824 H   0  0  0  0  0  0  0  0  0  0  0  0
    3.6783    0.3986   -1.4395 H   0  0  0  0  0  0  0  0  0  0  0  0
    5.0850   -0.9628    0.1592 H   0  0  0  0  0  0  0  0  0  0  0  0
    5.2443    0.4747    1.1757 H   0  0  0  0  0  0  0  0  0  0  0  0
    6.1526    1.7434   -0.8035 H   0  0  0  0  0  0  0  0  0  0  0  0
    6.1103    0.2645   -1.7485 H   0  0  0  0  0  0  0  0  0  0  0  0
    7.6956    0.6249    0.8552 H   0  0  0  0  0  0  0  0  0  0  0  0
    7.2573   -1.7527    0.5004 H   0  0  0  0  0  0  0  0  0  0  0  0
    7.7322   -1.6434   -1.2032 H   0  0  0  0  0  0  0  0  0  0  0  0
    8.9390   -1.4224    0.0684 H   0  0  0  0  0  0  0  0  0  0  0  0
    9.5014    1.2013   -2.6032 H   0  0  0  0  0  0  0  0  0  0  0  0
    1.1625    1.5342   -0.3705 H   0  0  0  0  0  0  0  0  0  0  0  0
    1.7655   -0.9223   -2.0202 H   0  0  0  0  0  0  0  0  0  0  0  0
    1.5568    0.7665   -2.4984 H   0  0  0  0  0  0  0  0  0  0  0  0
   -0.4394   -1.4066   -2.3282 H   0  0  0  0  0  0  0  0  0  0  0  0
   -0.5804    0.1420   -3.1670 H   0  0  0  0  0  0  0  0  0  0  0  0
   -1.1161    1.3288   -1.1992 H   0  0  0  0  0  0  0  0  0  0  0  0
   -0.1923    0.6259    2.2662 H   0  0  0  0  0  0  0  0  0  0  0  0
   -0.7139    1.8409    1.1160 H   0  0  0  0  0  0  0  0  0  0  0  0
   -2.6012    1.0656    2.4362 H   0  0  0  0  0  0  0  0  0  0  0  0
   -2.2343   -0.6057    2.0735 H   0  0  0  0  0  0  0  0  0  0  0  0
   -3.2615    1.5530    0.1660 H   0  0  0  0  0  0  0  0  0  0  0  0
   -2.7797   -1.3034   -2.5894 H   0  0  0  0  0  0  0  0  0  0  0  0
   -4.9052   -2.1569   -1.3139 H   0  0  0  0  0  0  0  0  0  0  0  0
   -5.1767   -0.9849   -2.5957 H   0  0  0  0  0  0  0  0  0  0  0  0
   -5.3764    0.8581   -1.0953 H   0  0  0  0  0  0  0  0  0  0  0  0
   -5.4724    0.5136    2.6827 H   0  0  0  0  0  0  0  0  0  0  0  0
   -4.7454    1.8612    1.8522 H   0  0  0  0  0  0  0  0  0  0  0  0
   -6.6366    2.2133    0.4476 H   0  0  0  0  0  0  0  0  0  0  0  0
   -7.2778    1.8843    2.0586 H   0  0  0  0  0  0  0  0  0  0  0  0
   -7.0099   -1.5667   -0.2148 H   0  0  0  0  0  0  0  0  0  0  0  0
   -7.4295   -0.3011   -1.3850 H   0  0  0  0  0  0  0  0  0  0  0  0
   -5.6032   -1.8531    1.5280 H   0  0  0  0  0  0  0  0  0  0  0  0
   -3.9844   -2.1459    0.8811 H   0  0  0  0  0  0  0  0  0  0  0  0
   -4.2006   -1.3568    2.4427 H   0  0  0  0  0  0  0  0  0  0  0  0
   -1.1520   -1.9963    0.6499 H   0  0  0  0  0  0  0  0  0  0  0  0
    0.3621   -2.1578   -0.2239 H   0  0  0  0  0  0  0  0  0  0  0  0
    0.3740   -1.7315    1.4842 H   0  0  0  0  0  0  0  0  0  0  0  0
  1  2  1  0
  2  3  1  0
  3  4  1  0
  4  5  1  0
  5  6  1  0
  6  7  1  0
  6  8  1  0
  8  9  2  0
  8 10  1  0
  2 11  1  0
 11 12  1  0
 12 13  1  0
 13 14  1  0
 14 15  1  0
 15 16  1  0
 16 17  1  0
 17 18  1  0
 18 19  1  0
 19 20  2  0
 20 21  1  0
 21 22  1  0
 22 23  1  0
 23 24  1  0
 24 25  1  0
 25 26  1  0
 26 27  2  0
 26 28  1  0
 23 29  1  1
 15 30  1  1
 15 11  1  0
 19 14  1  0
 23 18  1  0
 28 22  1  0
  1 31  1  0
  1 32  1  0
  1 33  1  0
  2 34  1  1
  3 35  1  0
  3 36  1  0
  4 37  1  0
  4 38  1  0
  5 39  1  0
  5 40  1  0
  6 41  1  0
  7 42  1  0
  7 43  1  0
  7 44  1  0
 10 45  1  0
 11 46  1  6
 12 47  1  0
 12 48  1  0
 13 49  1  0
 13 50  1  0
 14 51  1  6
 16 52  1  0
 16 53  1  0
 17 54  1  0
 17 55  1  0
 18 56  1  6
 20 57  1  0
 21 58  1  0
 21 59  1  0
 22 60  1  6
 24 61  1  0
 24 62  1  0
 25 63  1  0
 25 64  1  0
 28 65  1  0
 28 66  1  0
 29 67  1  0
 29 68  1  0
 29 69  1  0
 30 70  1  0
 30 71  1  0
 30 72  1  0
M  END
$$$$
