MODEL 1
REMARK VINA RESULT:    -8.286      0.000      0.000
REMARK INTER + INTRA:         -16.672
REMARK INTER:                 -13.271
REMARK INTRA:                  -3.401
REMARK UNBOUND:                -3.057
REMARK  Name = 
REMARK  16 active torsions:
REMARK  status: ('A' for Active; 'I' for Inactive)
REMARK    1  A    between atoms: C_1  and  C_2
REMARK    2  A    between atoms: C_2  and  C_18
REMARK    3  A    between atoms: C_3  and  C_4
REMARK    4  A    between atoms: C_4  and  C_5
REMARK    5  A    between atoms: C_5  and  C_6
REMARK    6  A    between atoms: C_6  and  C_17
REMARK    7  A    between atoms: C_7  and  C_8
REMARK    8  A    between atoms: C_8  and  C_9
REMARK    9  A    between atoms: C_18  and  C_19
REMARK   10  A    between atoms: C_19  and  C_20
REMARK   11  A    between atoms: C_21  and  C_22
REMARK   12  A    between atoms: C_21  and  C_28
REMARK   13  A    between atoms: C_22  and  C_23
REMARK   14  A    between atoms: C_23  and  C_24
REMARK   15  A    between atoms: C_25  and  C_26
REMARK   16  A    between atoms: C_25  and  C_27
REMARK                            x       y       z     vdW  Elec       q    Type
REMARK                         _______ _______ _______ _____ _____    ______ ____
ROOT
ATOM      1  C   UNL     1      85.761  51.876  45.927  0.00  0.00    -0.031 C 
ENDROOT
BRANCH   1   4
ATOM      2  C   UNL     1      85.708  52.587  48.802  0.00  0.00    -0.044 C 
ATOM      3  C   UNL     1      84.593  52.983  47.863  0.00  0.00    -0.076 C 
ATOM      4  C   UNL     1      84.631  52.661  46.550  0.00  0.00    -0.085 C 
BRANCH   3   5
ATOM      5  C   UNL     1      83.413  53.770  48.400  0.00  0.00    -0.029 C 
BRANCH   5   6
ATOM      6  C   UNL     1      83.788  55.224  48.726  0.00  0.00    -0.031 C 
BRANCH   6   7
ATOM      7  C   UNL     1      83.717  56.110  47.505  0.00  0.00    -0.085 C 
ATOM      8  C   UNL     1      84.789  56.519  46.789  0.00  0.00    -0.076 C 
ATOM      9  C   UNL     1      86.191  56.069  47.122  0.00  0.00    -0.044 C 
BRANCH   8  10
ATOM     10  C   UNL     1      84.573  57.446  45.609  0.00  0.00    -0.029 C 
BRANCH  10  11
ATOM     11  C   UNL     1      84.982  56.790  44.281  0.00  0.00    -0.031 C 
BRANCH  11  12
ATOM     12  C   UNL     1      84.411  55.399  44.140  0.00  0.00    -0.085 C 
ATOM     13  C   UNL     1      84.204  54.770  42.962  0.00  0.00    -0.080 C 
ATOM     14  C   UNL     1      83.658  53.366  42.985  0.00  0.00    -0.044 C 
ATOM     15  C   UNL     1      84.484  55.438  41.636  0.00  0.00    -0.044 C 
ENDBRANCH  11  12
ENDBRANCH  10  11
ENDBRANCH   8  10
ENDBRANCH   6   7
ENDBRANCH   5   6
ENDBRANCH   3   5
ENDBRANCH   1   4
BRANCH   1  16
ATOM     16  C   UNL     1      86.758  52.781  45.189  0.00  0.00    -0.029 C 
BRANCH  16  17
ATOM     17  C   UNL     1      87.122  52.231  43.825  0.00  0.00    -0.076 C 
ATOM     18  C   UNL     1      86.984  50.906  43.584  0.00  0.00    -0.083 C 
ATOM     19  C   UNL     1      87.588  53.193  42.760  0.00  0.00    -0.044 C 
BRANCH  18  20
ATOM     20  C   UNL     1      87.326  50.225  42.279  0.00  0.00    -0.009 C 
BRANCH  20  21
ATOM     21  C   UNL     1      88.610  49.389  42.392  0.00  0.00    +0.057 C 
ATOM     22  C   UNL     1      89.851  50.052  41.833  0.00  0.00    -0.064 C 
ATOM     23  C   UNL     1      90.894  49.398  42.369  0.00  0.00    -0.074 C 
ATOM     24  C   UNL     1      90.338  48.338  43.291  0.00  0.00    +0.056 C 
ATOM     25  C   UNL     1      89.119  49.092  43.806  0.00  0.00    -0.013 C 
ATOM     26  C   UNL     1      89.622  47.372  42.401  0.00  0.00    +0.221 C 
ATOM     27  O   UNL     1      89.917  46.164  42.206  0.00  0.00    -0.275 OA
ATOM     28  N   UNL     1      88.525  48.048  41.793  0.00  0.00    -0.306 N 
ATOM     29  H   UNL     1      87.875  47.705  41.137  0.00  0.00    +0.000 HD
ENDBRANCH  20  21
ENDBRANCH  18  20
ENDBRANCH  16  17
ENDBRANCH   1  16
TORSDOF 11
ENDMDL
MODEL 2
REMARK VINA RESULT:    -8.137      3.347      6.184
REMARK INTER + INTRA:         -16.427
REMARK INTER:                 -13.152
REMARK INTRA:                  -3.275
REMARK UNBOUND:                -3.057
REMARK  Name = 
REMARK  16 active torsions:
REMARK  status: ('A' for Active; 'I' for Inactive)
REMARK    1  A    between atoms: C_1  and  C_2
REMARK    2  A    between atoms: C_2  and  C_18
REMARK    3  A    between atoms: C_3  and  C_4
REMARK    4  A    between atoms: C_4  and  C_5
REMARK    5  A    between atoms: C_5  and  C_6
REMARK    6  A    between atoms: C_6  and  C_17
REMARK    7  A    between atoms: C_7  and  C_8
REMARK    8  A    between atoms: C_8  and  C_9
REMARK    9  A    between atoms: C_18  and  C_19
REMARK   10  A    between atoms: C_19  and  C_20
REMARK   11  A    between atoms: C_21  and  C_22
REMARK   12  A    between atoms: C_21  and  C_28
REMARK   13  A    between atoms: C_22  and  C_23
REMARK   14  A    between atoms: C_23  and  C_24
REMARK   15  A    between atoms: C_25  and  C_26
REMARK   16  A    between atoms: C_25  and  C_27
REMARK                            x       y       z     vdW  Elec       q    Type
REMARK                         _______ _______ _______ _____ _____    ______ ____
ROOT
ATOM      1  C   UNL     1      84.190  48.824  43.838  0.00  0.00    -0.031 C 
ENDROOT
BRANCH   1   4
ATOM      2  C   UNL     1      86.674  50.228  43.041  0.00  0.00    -0.044 C 
ATOM      3  C   UNL     1      86.456  49.733  44.452  0.00  0.00    -0.076 C 
ATOM      4  C   UNL     1      85.315  49.100  44.807  0.00  0.00    -0.085 C 
BRANCH   3   5
ATOM      5  C   UNL     1      87.532  49.962  45.494  0.00  0.00    -0.029 C 
BRANCH   5   6
ATOM      6  C   UNL     1      87.065  50.907  46.611  0.00  0.00    -0.031 C 
BRANCH   6   7
ATOM      7  C   UNL     1      87.052  52.348  46.159  0.00  0.00    -0.085 C 
ATOM      8  C   UNL     1      85.935  53.048  45.856  0.00  0.00    -0.076 C 
ATOM      9  C   UNL     1      84.555  52.453  46.001  0.00  0.00    -0.044 C 
BRANCH   8  10
ATOM     10  C   UNL     1      86.073  54.477  45.371  0.00  0.00    -0.029 C 
BRANCH  10  11
ATOM     11  C   UNL     1      86.562  55.417  46.485  0.00  0.00    -0.031 C 
BRANCH  11  12
ATOM     12  C   UNL     1      85.648  56.606  46.661  0.00  0.00    -0.085 C 
ATOM     13  C   UNL     1      85.436  57.557  45.724  0.00  0.00    -0.080 C 
ATOM     14  C   UNL     1      84.468  58.668  46.036  0.00  0.00    -0.044 C 
ATOM     15  C   UNL     1      86.154  57.547  44.395  0.00  0.00    -0.044 C 
ENDBRANCH  11  12
ENDBRANCH  10  11
ENDBRANCH   8  10
ENDBRANCH   6   7
ENDBRANCH   5   6
ENDBRANCH   3   5
ENDBRANCH   1   4
BRANCH   1  16
ATOM     16  C   UNL     1      82.827  49.273  44.386  0.00  0.00    -0.029 C 
BRANCH  16  17
ATOM     17  C   UNL     1      82.112  50.209  43.433  0.00  0.00    -0.076 C 
ATOM     18  C   UNL     1      82.831  51.104  42.716  0.00  0.00    -0.083 C 
ATOM     19  C   UNL     1      80.617  50.081  43.282  0.00  0.00    -0.044 C 
BRANCH  18  20
ATOM     20  C   UNL     1      82.246  52.105  41.747  0.00  0.00    -0.009 C 
BRANCH  20  21
ATOM     21  C   UNL     1      83.129  53.355  41.616  0.00  0.00    +0.057 C 
ATOM     22  C   UNL     1      82.633  54.567  42.375  0.00  0.00    -0.064 C 
ATOM     23  C   UNL     1      83.688  55.390  42.488  0.00  0.00    -0.074 C 
ATOM     24  C   UNL     1      84.867  54.709  41.833  0.00  0.00    +0.056 C 
ATOM     25  C   UNL     1      84.541  53.268  42.206  0.00  0.00    -0.013 C 
ATOM     26  C   UNL     1      84.524  54.629  40.380  0.00  0.00    +0.221 C 
ATOM     27  O   UNL     1      85.121  55.199  39.430  0.00  0.00    -0.275 OA
ATOM     28  N   UNL     1      83.386  53.783  40.231  0.00  0.00    -0.306 N 
ATOM     29  H   UNL     1      82.896  53.546  39.411  0.00  0.00    +0.000 HD
ENDBRANCH  20  21
ENDBRANCH  18  20
ENDBRANCH  16  17
ENDBRANCH   1  16
TORSDOF 11
ENDMDL
MODEL 3
REMARK VINA RESULT:    -8.119      1.734      3.692
REMARK INTER + INTRA:         -16.397
REMARK INTER:                 -13.561
REMARK INTRA:                  -2.836
REMARK UNBOUND:                -3.057
REMARK  Name = 
REMARK  16 active torsions:
REMARK  status: ('A' for Active; 'I' for Inactive)
REMARK    1  A    between atoms: C_1  and  C_2
REMARK    2  A    between atoms: C_2  and  C_18
REMARK    3  A    between atoms: C_3  and  C_4
REMARK    4  A    between atoms: C_4  and  C_5
REMARK    5  A    between atoms: C_5  and  C_6
REMARK    6  A    between atoms: C_6  and  C_17
REMARK    7  A    between atoms: C_7  and  C_8
REMARK    8  A    between atoms: C_8  and  C_9
REMARK    9  A    between atoms: C_18  and  C_19
REMARK   10  A    between atoms: C_19  and  C_20
REMARK   11  A    between atoms: C_21  and  C_22
REMARK   12  A    between atoms: C_21  and  C_28
REMARK   13  A    between atoms: C_22  and  C_23
REMARK   14  A    between atoms: C_23  and  C_24
REMARK   15  A    between atoms: C_25  and  C_26
REMARK   16  A    between atoms: C_25  and  C_27
REMARK                            x       y       z     vdW  Elec       q    Type
REMARK                         _______ _______ _______ _____ _____    ______ ____
ROOT
ATOM      1  C   UNL     1      84.848  52.261  45.835  0.00  0.00    -0.031 C 
ENDROOT
BRANCH   1   4
ATOM      2  C   UNL     1      83.544  51.464  43.298  0.00  0.00    -0.044 C 
ATOM      3  C   UNL     1      83.961  52.890  43.565  0.00  0.00    -0.076 C 
ATOM      4  C   UNL     1      84.549  53.246  44.730  0.00  0.00    -0.085 C 
BRANCH   3   5
ATOM      5  C   UNL     1      83.705  53.950  42.510  0.00  0.00    -0.029 C 
BRANCH   5   6
ATOM      6  C   UNL     1      84.865  54.950  42.401  0.00  0.00    -0.031 C 
BRANCH   6   7
ATOM      7  C   UNL     1      84.561  56.245  43.116  0.00  0.00    -0.085 C 
ATOM      8  C   UNL     1      85.389  56.849  43.998  0.00  0.00    -0.076 C 
ATOM      9  C   UNL     1      86.759  56.297  44.314  0.00  0.00    -0.044 C 
BRANCH   8  10
ATOM     10  C   UNL     1      84.934  58.125  44.677  0.00  0.00    -0.029 C 
BRANCH  10  11
ATOM     11  C   UNL     1      85.077  58.046  46.205  0.00  0.00    -0.031 C 
BRANCH  11  12
ATOM     12  C   UNL     1      84.125  57.041  46.809  0.00  0.00    -0.085 C 
ATOM     13  C   UNL     1      84.504  55.949  47.508  0.00  0.00    -0.080 C 
ATOM     14  C   UNL     1      83.434  55.056  48.078  0.00  0.00    -0.044 C 
ATOM     15  C   UNL     1      85.958  55.592  47.712  0.00  0.00    -0.044 C 
ENDBRANCH  11  12
ENDBRANCH  10  11
ENDBRANCH   8  10
ENDBRANCH   6   7
ENDBRANCH   5   6
ENDBRANCH   3   5
ENDBRANCH   1   4
BRANCH   1  16
ATOM     16  C   UNL     1      86.323  52.297  46.262  0.00  0.00    -0.029 C 
BRANCH  16  17
ATOM     17  C   UNL     1      87.010  50.965  46.040  0.00  0.00    -0.076 C 
ATOM     18  C   UNL     1      87.073  50.450  44.791  0.00  0.00    -0.083 C 
ATOM     19  C   UNL     1      87.643  50.275  47.223  0.00  0.00    -0.044 C 
BRANCH  18  20
ATOM     20  C   UNL     1      87.711  49.127  44.432  0.00  0.00    -0.009 C 
BRANCH  20  21
ATOM     21  C   UNL     1      88.718  49.273  43.281  0.00  0.00    +0.057 C 
ATOM     22  C   UNL     1      90.158  48.996  43.657  0.00  0.00    -0.064 C 
ATOM     23  C   UNL     1      90.804  48.766  42.503  0.00  0.00    -0.074 C 
ATOM     24  C   UNL     1      89.789  48.864  41.388  0.00  0.00    +0.056 C 
ATOM     25  C   UNL     1      88.584  48.285  42.118  0.00  0.00    -0.013 C 
ATOM     26  C   UNL     1      89.353  50.294  41.372  0.00  0.00    +0.221 C 
ATOM     27  O   UNL     1      89.529  51.128  40.445  0.00  0.00    -0.275 OA
ATOM     28  N   UNL     1      88.688  50.577  42.601  0.00  0.00    -0.306 N 
ATOM     29  H   UNL     1      88.307  51.428  42.915  0.00  0.00    +0.000 HD
ENDBRANCH  20  21
ENDBRANCH  18  20
ENDBRANCH  16  17
ENDBRANCH   1  16
TORSDOF 11
ENDMDL
MODEL 4
REMARK VINA RESULT:    -8.096      3.199      7.345
REMARK INTER + INTRA:         -16.360
REMARK INTER:                 -13.515
REMARK INTRA:                  -2.844
REMARK UNBOUND:                -3.057
REMARK  Name = 
REMARK  16 active torsions:
REMARK  status: ('A' for Active; 'I' for Inactive)
REMARK    1  A    between atoms: C_1  and  C_2
REMARK    2  A    between atoms: C_2  and  C_18
REMARK    3  A    between atoms: C_3  and  C_4
REMARK    4  A    between atoms: C_4  and  C_5
REMARK    5  A    between atoms: C_5  and  C_6
REMARK    6  A    between atoms: C_6  and  C_17
REMARK    7  A    between atoms: C_7  and  C_8
REMARK    8  A    between atoms: C_8  and  C_9
REMARK    9  A    between atoms: C_18  and  C_19
REMARK   10  A    between atoms: C_19  and  C_20
REMARK   11  A    between atoms: C_21  and  C_22
REMARK   12  A    between atoms: C_21  and  C_28
REMARK   13  A    between atoms: C_22  and  C_23
REMARK   14  A    between atoms: C_23  and  C_24
REMARK   15  A    between atoms: C_25  and  C_26
REMARK   16  A    between atoms: C_25  and  C_27
REMARK                            x       y       z     vdW  Elec       q    Type
REMARK                         _______ _______ _______ _____ _____    ______ ____
ROOT
ATOM      1  C   UNL     1      85.647  52.254  48.825  0.00  0.00    -0.031 C 
ENDROOT
BRANCH   1   4
ATOM      2  C   UNL     1      87.661  50.135  48.344  0.00  0.00    -0.044 C 
ATOM      3  C   UNL     1      87.132  51.000  47.225  0.00  0.00    -0.076 C 
ATOM      4  C   UNL     1      86.207  51.959  47.453  0.00  0.00    -0.085 C 
BRANCH   3   5
ATOM      5  C   UNL     1      87.638  50.780  45.812  0.00  0.00    -0.029 C 
BRANCH   5   6
ATOM      6  C   UNL     1      87.185  51.893  44.855  0.00  0.00    -0.031 C 
BRANCH   6   7
ATOM      7  C   UNL     1      88.028  51.934  43.602  0.00  0.00    -0.085 C 
ATOM      8  C   UNL     1      87.598  51.563  42.375  0.00  0.00    -0.076 C 
ATOM      9  C   UNL     1      86.177  51.116  42.127  0.00  0.00    -0.044 C 
BRANCH   8  10
ATOM     10  C   UNL     1      88.568  51.614  41.211  0.00  0.00    -0.029 C 
BRANCH  10  11
ATOM     11  C   UNL     1      89.857  50.831  41.503  0.00  0.00    -0.031 C 
BRANCH  11  12
ATOM     12  C   UNL     1      89.609  49.343  41.577  0.00  0.00    -0.085 C 
ATOM     13  C   UNL     1      90.282  48.492  42.382  0.00  0.00    -0.080 C 
ATOM     14  C   UNL     1      89.897  47.036  42.368  0.00  0.00    -0.044 C 
ATOM     15  C   UNL     1      91.415  48.954  43.270  0.00  0.00    -0.044 C 
ENDBRANCH  11  12
ENDBRANCH  10  11
ENDBRANCH   8  10
ENDBRANCH   6   7
ENDBRANCH   5   6
ENDBRANCH   3   5
ENDBRANCH   1   4
BRANCH   1  16
ATOM     16  C   UNL     1      85.720  53.747  49.174  0.00  0.00    -0.029 C 
BRANCH  16  17
ATOM     17  C   UNL     1      84.958  54.600  48.181  0.00  0.00    -0.076 C 
ATOM     18  C   UNL     1      85.628  55.506  47.431  0.00  0.00    -0.083 C 
ATOM     19  C   UNL     1      83.474  54.378  48.029  0.00  0.00    -0.044 C 
BRANCH  18  20
ATOM     20  C   UNL     1      84.992  56.431  46.419  0.00  0.00    -0.009 C 
BRANCH  20  21
ATOM     21  C   UNL     1      85.310  56.005  44.978  0.00  0.00    +0.057 C 
ATOM     22  C   UNL     1      86.786  55.933  44.648  0.00  0.00    -0.064 C 
ATOM     23  C   UNL     1      86.881  55.177  43.542  0.00  0.00    -0.074 C 
ATOM     24  C   UNL     1      85.484  54.738  43.172  0.00  0.00    +0.056 C 
ATOM     25  C   UNL     1      84.908  54.583  44.574  0.00  0.00    -0.013 C 
ATOM     26  C   UNL     1      84.761  55.991  42.789  0.00  0.00    +0.221 C 
ATOM     27  O   UNL     1      84.300  56.280  41.654  0.00  0.00    -0.275 OA
ATOM     28  N   UNL     1      84.671  56.828  43.939  0.00  0.00    -0.306 N 
ATOM     29  H   UNL     1      84.281  57.729  44.018  0.00  0.00    +0.000 HD
ENDBRANCH  20  21
ENDBRANCH  18  20
ENDBRANCH  16  17
ENDBRANCH   1  16
TORSDOF 11
ENDMDL
MODEL 5
REMARK VINA RESULT:    -8.082      2.436      7.249
REMARK INTER + INTRA:         -16.337
REMARK INTER:                 -13.350
REMARK INTRA:                  -2.987
REMARK UNBOUND:                -3.057
REMARK  Name = 
REMARK  16 active torsions:
REMARK  status: ('A' for Active; 'I' for Inactive)
REMARK    1  A    between atoms: C_1  and  C_2
REMARK    2  A    between atoms: C_2  and  C_18
REMARK    3  A    between atoms: C_3  and  C_4
REMARK    4  A    between atoms: C_4  and  C_5
REMARK    5  A    between atoms: C_5  and  C_6
REMARK    6  A    between atoms: C_6  and  C_17
REMARK    7  A    between atoms: C_7  and  C_8
REMARK    8  A    between atoms: C_8  and  C_9
REMARK    9  A    between atoms: C_18  and  C_19
REMARK   10  A    between atoms: C_19  and  C_20
REMARK   11  A    between atoms: C_21  and  C_22
REMARK   12  A    between atoms: C_21  and  C_28
REMARK   13  A    between atoms: C_22  and  C_23
REMARK   14  A    between atoms: C_23  and  C_24
REMARK   15  A    between atoms: C_25  and  C_26
REMARK   16  A    between atoms: C_25  and  C_27
REMARK                            x       y       z     vdW  Elec       q    Type
REMARK                         _______ _______ _______ _____ _____    ______ ____
ROOT
ATOM      1  C   UNL     1      85.101  57.363  44.003  0.00  0.00    -0.031 C 
ENDROOT
BRANCH   1   4
ATOM      2  C   UNL     1      83.553  55.315  42.526  0.00  0.00    -0.044 C 
ATOM      3  C   UNL     1      85.003  55.106  42.895  0.00  0.00    -0.076 C 
ATOM      4  C   UNL     1      85.703  56.050  43.562  0.00  0.00    -0.085 C 
BRANCH   3   5
ATOM      5  C   UNL     1      85.692  53.815  42.496  0.00  0.00    -0.029 C 
BRANCH   5   6
ATOM      6  C   UNL     1      87.208  53.871  42.735  0.00  0.00    -0.031 C 
BRANCH   6   7
ATOM      7  C   UNL     1      87.859  52.523  42.532  0.00  0.00    -0.085 C 
ATOM      8  C   UNL     1      88.961  52.308  41.778  0.00  0.00    -0.076 C 
ATOM      9  C   UNL     1      89.697  53.437  41.097  0.00  0.00    -0.044 C 
BRANCH   8  10
ATOM     10  C   UNL     1      89.482  50.892  41.626  0.00  0.00    -0.029 C 
BRANCH  10  11
ATOM     11  C   UNL     1      88.996  49.976  42.760  0.00  0.00    -0.031 C 
BRANCH  11  12
ATOM     12  C   UNL     1      89.143  48.515  42.407  0.00  0.00    -0.085 C 
ATOM     13  C   UNL     1      90.109  47.703  42.887  0.00  0.00    -0.080 C 
ATOM     14  C   UNL     1      90.105  46.256  42.467  0.00  0.00    -0.044 C 
ATOM     15  C   UNL     1      91.197  48.207  43.806  0.00  0.00    -0.044 C 
ENDBRANCH  11  12
ENDBRANCH  10  11
ENDBRANCH   8  10
ENDBRANCH   6   7
ENDBRANCH   5   6
ENDBRANCH   3   5
ENDBRANCH   1   4
BRANCH   1  16
ATOM     16  C   UNL     1      85.521  57.745  45.430  0.00  0.00    -0.029 C 
BRANCH  16  17
ATOM     17  C   UNL     1      85.111  56.695  46.443  0.00  0.00    -0.076 C 
ATOM     18  C   UNL     1      86.039  55.834  46.921  0.00  0.00    -0.083 C 
ATOM     19  C   UNL     1      83.680  56.674  46.920  0.00  0.00    -0.044 C 
BRANCH  18  20
ATOM     20  C   UNL     1      85.763  54.731  47.916  0.00  0.00    -0.009 C 
BRANCH  20  21
ATOM     21  C   UNL     1      85.850  53.341  47.267  0.00  0.00    +0.057 C 
ATOM     22  C   UNL     1      84.643  52.948  46.442  0.00  0.00    -0.064 C 
ATOM     23  C   UNL     1      85.049  51.944  45.647  0.00  0.00    -0.074 C 
ATOM     24  C   UNL     1      86.513  51.705  45.932  0.00  0.00    +0.056 C 
ATOM     25  C   UNL     1      86.937  53.143  46.205  0.00  0.00    -0.013 C 
ATOM     26  C   UNL     1      86.569  51.203  47.340  0.00  0.00    +0.221 C 
ATOM     27  O   UNL     1      86.948  50.065  47.723  0.00  0.00    -0.275 OA
ATOM     28  N   UNL     1      86.114  52.240  48.206  0.00  0.00    -0.306 N 
ATOM     29  H   UNL     1      86.003  52.223  49.184  0.00  0.00    +0.000 HD
ENDBRANCH  20  21
ENDBRANCH  18  20
ENDBRANCH  16  17
ENDBRANCH   1  16
TORSDOF 11
ENDMDL
MODEL 6
REMARK VINA RESULT:    -8.018      2.132      4.615
REMARK INTER + INTRA:         -16.232
REMARK INTER:                 -12.861
REMARK INTRA:                  -3.371
REMARK UNBOUND:                -3.057
REMARK  Name = 
REMARK  16 active torsions:
REMARK  status: ('A' for Active; 'I' for Inactive)
REMARK    1  A    between atoms: C_1  and  C_2
REMARK    2  A    between atoms: C_2  and  C_18
REMARK    3  A    between atoms: C_3  and  C_4
REMARK    4  A    between atoms: C_4  and  C_5
REMARK    5  A    between atoms: C_5  and  C_6
REMARK    6  A    between atoms: C_6  and  C_17
REMARK    7  A    between atoms: C_7  and  C_8
REMARK    8  A    between atoms: C_8  and  C_9
REMARK    9  A    between atoms: C_18  and  C_19
REMARK   10  A    between atoms: C_19  and  C_20
REMARK   11  A    between atoms: C_21  and  C_22
REMARK   12  A    between atoms: C_21  and  C_28
REMARK   13  A    between atoms: C_22  and  C_23
REMARK   14  A    between atoms: C_23  and  C_24
REMARK   15  A    between atoms: C_25  and  C_26
REMARK   16  A    between atoms: C_25  and  C_27
REMARK                            x       y       z     vdW  Elec       q    Type
REMARK                         _______ _______ _______ _____ _____    ______ ____
ROOT
ATOM      1  C   UNL     1      82.750  51.983  41.882  0.00  0.00    -0.031 C 
ENDROOT
BRANCH   1   4
ATOM      2  C   UNL     1      85.165  53.436  40.969  0.00  0.00    -0.044 C 
ATOM      3  C   UNL     1      83.984  54.156  41.576  0.00  0.00    -0.076 C 
ATOM      4  C   UNL     1      82.883  53.485  41.983  0.00  0.00    -0.085 C 
BRANCH   3   5
ATOM      5  C   UNL     1      84.028  55.665  41.722  0.00  0.00    -0.029 C 
BRANCH   5   6
ATOM      6  C   UNL     1      83.782  56.114  43.170  0.00  0.00    -0.031 C 
BRANCH   6   7
ATOM      7  C   UNL     1      84.840  55.585  44.109  0.00  0.00    -0.085 C 
ATOM      8  C   UNL     1      85.451  56.317  45.069  0.00  0.00    -0.076 C 
ATOM      9  C   UNL     1      85.079  57.756  45.335  0.00  0.00    -0.044 C 
BRANCH   8  10
ATOM     10  C   UNL     1      86.530  55.667  45.913  0.00  0.00    -0.029 C 
BRANCH  10  11
ATOM     11  C   UNL     1      86.244  55.804  47.416  0.00  0.00    -0.031 C 
BRANCH  11  12
ATOM     12  C   UNL     1      85.626  54.551  47.990  0.00  0.00    -0.085 C 
ATOM     13  C   UNL     1      84.314  54.403  48.275  0.00  0.00    -0.080 C 
ATOM     14  C   UNL     1      83.841  53.078  48.812  0.00  0.00    -0.044 C 
ATOM     15  C   UNL     1      83.322  55.528  48.091  0.00  0.00    -0.044 C 
ENDBRANCH  11  12
ENDBRANCH  10  11
ENDBRANCH   8  10
ENDBRANCH   6   7
ENDBRANCH   5   6
ENDBRANCH   3   5
ENDBRANCH   1   4
BRANCH   1  16
ATOM     16  C   UNL     1      82.652  51.315  43.261  0.00  0.00    -0.029 C 
BRANCH  16  17
ATOM     17  C   UNL     1      83.986  51.296  43.979  0.00  0.00    -0.076 C 
ATOM     18  C   UNL     1      84.972  50.486  43.528  0.00  0.00    -0.083 C 
ATOM     19  C   UNL     1      84.184  52.220  45.154  0.00  0.00    -0.044 C 
BRANCH  18  20
ATOM     20  C   UNL     1      86.340  50.356  44.159  0.00  0.00    -0.009 C 
BRANCH  20  21
ATOM     21  C   UNL     1      87.457  50.768  43.188  0.00  0.00    +0.057 C 
ATOM     22  C   UNL     1      88.717  49.935  43.278  0.00  0.00    -0.064 C 
ATOM     23  C   UNL     1      89.385  50.149  42.133  0.00  0.00    -0.074 C 
ATOM     24  C   UNL     1      88.554  51.091  41.293  0.00  0.00    +0.056 C 
ATOM     25  C   UNL     1      87.168  50.600  41.692  0.00  0.00    -0.013 C 
ATOM     26  C   UNL     1      88.538  52.385  42.043  0.00  0.00    +0.221 C 
ATOM     27  O   UNL     1      89.032  53.481  41.669  0.00  0.00    -0.275 OA
ATOM     28  N   UNL     1      87.861  52.180  43.280  0.00  0.00    -0.306 N 
ATOM     29  H   UNL     1      87.703  52.821  44.011  0.00  0.00    +0.000 HD
ENDBRANCH  20  21
ENDBRANCH  18  20
ENDBRANCH  16  17
ENDBRANCH   1  16
TORSDOF 11
ENDMDL
MODEL 7
REMARK VINA RESULT:    -8.006      2.599      6.896
REMARK INTER + INTRA:         -16.212
REMARK INTER:                 -13.155
REMARK INTRA:                  -3.057
REMARK UNBOUND:                -3.057
REMARK  Name = 
REMARK  16 active torsions:
REMARK  status: ('A' for Active; 'I' for Inactive)
REMARK    1  A    between atoms: C_1  and  C_2
REMARK    2  A    between atoms: C_2  and  C_18
REMARK    3  A    between atoms: C_3  and  C_4
REMARK    4  A    between atoms: C_4  and  C_5
REMARK    5  A    between atoms: C_5  and  C_6
REMARK    6  A    between atoms: C_6  and  C_17
REMARK    7  A    between atoms: C_7  and  C_8
REMARK    8  A    between atoms: C_8  and  C_9
REMARK    9  A    between atoms: C_18  and  C_19
REMARK   10  A    between atoms: C_19  and  C_20
REMARK   11  A    between atoms: C_21  and  C_22
REMARK   12  A    between atoms: C_21  and  C_28
REMARK   13  A    between atoms: C_22  and  C_23
REMARK   14  A    between atoms: C_23  and  C_24
REMARK   15  A    between atoms: C_25  and  C_26
REMARK   16  A    between atoms: C_25  and  C_27
REMARK                            x       y       z     vdW  Elec       q    Type
REMARK                         _______ _______ _______ _____ _____    ______ ____
ROOT
ATOM      1  C   UNL     1      84.821  55.118  47.119  0.00  0.00    -0.031 C 
ENDROOT
BRANCH   1   4
ATOM      2  C   UNL     1      84.752  52.530  45.679  0.00  0.00    -0.044 C 
ATOM      3  C   UNL     1      85.904  52.910  46.580  0.00  0.00    -0.076 C 
ATOM      4  C   UNL     1      85.930  54.098  47.226  0.00  0.00    -0.085 C 
BRANCH   3   5
ATOM      5  C   UNL     1      87.062  51.947  46.752  0.00  0.00    -0.029 C 
BRANCH   5   6
ATOM      6  C   UNL     1      87.127  50.912  45.618  0.00  0.00    -0.031 C 
BRANCH   6   7
ATOM      7  C   UNL     1      87.850  51.452  44.406  0.00  0.00    -0.085 C 
ATOM      8  C   UNL     1      87.584  51.092  43.130  0.00  0.00    -0.076 C 
ATOM      9  C   UNL     1      86.469  50.134  42.785  0.00  0.00    -0.044 C 
BRANCH   8  10
ATOM     10  C   UNL     1      88.420  51.682  42.012  0.00  0.00    -0.029 C 
BRANCH  10  11
ATOM     11  C   UNL     1      89.807  51.027  41.924  0.00  0.00    -0.031 C 
BRANCH  11  12
ATOM     12  C   UNL     1      89.720  49.572  41.528  0.00  0.00    -0.085 C 
ATOM     13  C   UNL     1      90.235  48.549  42.244  0.00  0.00    -0.080 C 
ATOM     14  C   UNL     1      90.038  47.145  41.734  0.00  0.00    -0.044 C 
ATOM     15  C   UNL     1      91.016  48.774  43.517  0.00  0.00    -0.044 C 
ENDBRANCH  11  12
ENDBRANCH  10  11
ENDBRANCH   8  10
ENDBRANCH   6   7
ENDBRANCH   5   6
ENDBRANCH   3   5
ENDBRANCH   1   4
BRANCH   1  16
ATOM     16  C   UNL     1      85.353  56.524  46.805  0.00  0.00    -0.029 C 
BRANCH  16  17
ATOM     17  C   UNL     1      85.046  56.942  45.381  0.00  0.00    -0.076 C 
ATOM     18  C   UNL     1      84.469  56.055  44.538  0.00  0.00    -0.083 C 
ATOM     19  C   UNL     1      85.357  58.358  44.964  0.00  0.00    -0.044 C 
BRANCH  18  20
ATOM     20  C   UNL     1      84.127  56.334  43.092  0.00  0.00    -0.009 C 
BRANCH  20  21
ATOM     21  C   UNL     1      84.216  55.065  42.231  0.00  0.00    +0.057 C 
ATOM     22  C   UNL     1      84.268  55.313  40.738  0.00  0.00    -0.064 C 
ATOM     23  C   UNL     1      84.747  54.183  40.192  0.00  0.00    -0.074 C 
ATOM     24  C   UNL     1      85.031  53.219  41.320  0.00  0.00    +0.056 C 
ATOM     25  C   UNL     1      85.487  54.221  42.374  0.00  0.00    -0.013 C 
ATOM     26  C   UNL     1      83.696  52.893  41.910  0.00  0.00    +0.221 C 
ATOM     27  O   UNL     1      83.131  51.768  41.923  0.00  0.00    -0.275 OA
ATOM     28  N   UNL     1      83.148  54.082  42.472  0.00  0.00    -0.306 N 
ATOM     29  H   UNL     1      82.276  54.213  42.911  0.00  0.00    +0.000 HD
ENDBRANCH  20  21
ENDBRANCH  18  20
ENDBRANCH  16  17
ENDBRANCH   1  16
TORSDOF 11
ENDMDL
MODEL 8
REMARK VINA RESULT:    -7.958      3.365      9.035
REMARK INTER + INTRA:         -16.133
REMARK INTER:                 -14.170
REMARK INTRA:                  -1.963
REMARK UNBOUND:                -3.057
REMARK  Name = 
REMARK  16 active torsions:
REMARK  status: ('A' for Active; 'I' for Inactive)
REMARK    1  A    between atoms: C_1  and  C_2
REMARK    2  A    between atoms: C_2  and  C_18
REMARK    3  A    between atoms: C_3  and  C_4
REMARK    4  A    between atoms: C_4  and  C_5
REMARK    5  A    between atoms: C_5  and  C_6
REMARK    6  A    between atoms: C_6  and  C_17
REMARK    7  A    between atoms: C_7  and  C_8
REMARK    8  A    between atoms: C_8  and  C_9
REMARK    9  A    between atoms: C_18  and  C_19
REMARK   10  A    between atoms: C_19  and  C_20
REMARK   11  A    between atoms: C_21  and  C_22
REMARK   12  A    between atoms: C_21  and  C_28
REMARK   13  A    between atoms: C_22  and  C_23
REMARK   14  A    between atoms: C_23  and  C_24
REMARK   15  A    between atoms: C_25  and  C_26
REMARK   16  A    between atoms: C_25  and  C_27
REMARK                            x       y       z     vdW  Elec       q    Type
REMARK                         _______ _______ _______ _____ _____    ______ ____
ROOT
ATOM      1  C   UNL     1      86.986  50.868  45.070  0.00  0.00    -0.031 C 
ENDROOT
BRANCH   1   4
ATOM      2  C   UNL     1      86.060  51.280  42.287  0.00  0.00    -0.044 C 
ATOM      3  C   UNL     1      87.517  51.394  42.666  0.00  0.00    -0.076 C 
ATOM      4  C   UNL     1      87.929  51.213  43.941  0.00  0.00    -0.085 C 
BRANCH   3   5
ATOM      5  C   UNL     1      88.539  51.733  41.598  0.00  0.00    -0.029 C 
BRANCH   5   6
ATOM      6  C   UNL     1      89.855  50.965  41.792  0.00  0.00    -0.031 C 
BRANCH   6   7
ATOM      7  C   UNL     1      89.719  49.511  41.407  0.00  0.00    -0.085 C 
ATOM      8  C   UNL     1      90.200  48.476  42.132  0.00  0.00    -0.076 C 
ATOM      9  C   UNL     1      90.888  48.682  43.461  0.00  0.00    -0.044 C 
BRANCH   8  10
ATOM     10  C   UNL     1      90.030  47.066  41.601  0.00  0.00    -0.029 C 
BRANCH  10  11
ATOM     11  C   UNL     1      89.575  46.091  42.698  0.00  0.00    -0.031 C 
BRANCH  11  12
ATOM     12  C   UNL     1      88.180  45.568  42.444  0.00  0.00    -0.085 C 
ATOM     13  C   UNL     1      87.730  44.358  42.842  0.00  0.00    -0.080 C 
ATOM     14  C   UNL     1      86.300  43.992  42.543  0.00  0.00    -0.044 C 
ATOM     15  C   UNL     1      88.620  43.364  43.550  0.00  0.00    -0.044 C 
ENDBRANCH  11  12
ENDBRANCH  10  11
ENDBRANCH   8  10
ENDBRANCH   6   7
ENDBRANCH   5   6
ENDBRANCH   3   5
ENDBRANCH   1   4
BRANCH   1  16
ATOM     16  C   UNL     1      87.123  51.834  46.257  0.00  0.00    -0.029 C 
BRANCH  16  17
ATOM     17  C   UNL     1      85.964  52.806  46.335  0.00  0.00    -0.076 C 
ATOM     18  C   UNL     1      86.170  54.046  46.837  0.00  0.00    -0.083 C 
ATOM     19  C   UNL     1      84.621  52.370  45.805  0.00  0.00    -0.044 C 
BRANCH  18  20
ATOM     20  C   UNL     1      85.102  55.105  46.988  0.00  0.00    -0.009 C 
BRANCH  20  21
ATOM     21  C   UNL     1      85.152  56.132  45.847  0.00  0.00    +0.057 C 
ATOM     22  C   UNL     1      84.729  57.533  46.234  0.00  0.00    -0.064 C 
ATOM     23  C   UNL     1      85.214  58.343  45.278  0.00  0.00    -0.074 C 
ATOM     24  C   UNL     1      85.969  57.480  44.293  0.00  0.00    +0.056 C 
ATOM     25  C   UNL     1      86.533  56.453  45.267  0.00  0.00    -0.013 C 
ATOM     26  C   UNL     1      84.935  56.610  43.652  0.00  0.00    +0.221 C 
ATOM     27  O   UNL     1      84.594  56.609  42.440  0.00  0.00    -0.275 OA
ATOM     28  N   UNL     1      84.380  55.759  44.651  0.00  0.00    -0.306 N 
ATOM     29  H   UNL     1      83.662  55.090  44.564  0.00  0.00    +0.000 HD
ENDBRANCH  20  21
ENDBRANCH  18  20
ENDBRANCH  16  17
ENDBRANCH   1  16
TORSDOF 11
ENDMDL
MODEL 9
REMARK VINA RESULT:    -7.943      2.671      6.089
REMARK INTER + INTRA:         -16.108
REMARK INTER:                 -13.083
REMARK INTRA:                  -3.025
REMARK UNBOUND:                -3.057
REMARK  Name = 
REMARK  16 active torsions:
REMARK  status: ('A' for Active; 'I' for Inactive)
REMARK    1  A    between atoms: C_1  and  C_2
REMARK    2  A    between atoms: C_2  and  C_18
REMARK    3  A    between atoms: C_3  and  C_4
REMARK    4  A    between atoms: C_4  and  C_5
REMARK    5  A    between atoms: C_5  and  C_6
REMARK    6  A    between atoms: C_6  and  C_17
REMARK    7  A    between atoms: C_7  and  C_8
REMARK    8  A    between atoms: C_8  and  C_9
REMARK    9  A    between atoms: C_18  and  C_19
REMARK   10  A    between atoms: C_19  and  C_20
REMARK   11  A    between atoms: C_21  and  C_22
REMARK   12  A    between atoms: C_21  and  C_28
REMARK   13  A    between atoms: C_22  and  C_23
REMARK   14  A    between atoms: C_23  and  C_24
REMARK   15  A    between atoms: C_25  and  C_26
REMARK   16  A    between atoms: C_25  and  C_27
REMARK                            x       y       z     vdW  Elec       q    Type
REMARK                         _______ _______ _______ _____ _____    ______ ____
ROOT
ATOM      1  C   UNL     1      85.661  56.748  47.160  0.00  0.00    -0.031 C 
ENDROOT
BRANCH   1   4
ATOM      2  C   UNL     1      83.426  55.296  48.453  0.00  0.00    -0.044 C 
ATOM      3  C   UNL     1      84.605  54.569  47.850  0.00  0.00    -0.076 C 
ATOM      4  C   UNL     1      85.617  55.241  47.255  0.00  0.00    -0.085 C 
BRANCH   3   5
ATOM      5  C   UNL     1      84.650  53.054  47.901  0.00  0.00    -0.029 C 
BRANCH   5   6
ATOM      6  C   UNL     1      85.990  52.533  48.442  0.00  0.00    -0.031 C 
BRANCH   6   7
ATOM      7  C   UNL     1      86.479  51.331  47.669  0.00  0.00    -0.085 C 
ATOM      8  C   UNL     1      87.123  51.392  46.482  0.00  0.00    -0.076 C 
ATOM      9  C   UNL     1      87.473  52.708  45.829  0.00  0.00    -0.044 C 
BRANCH   8  10
ATOM     10  C   UNL     1      87.519  50.100  45.794  0.00  0.00    -0.029 C 
BRANCH  10  11
ATOM     11  C   UNL     1      87.864  50.320  44.313  0.00  0.00    -0.031 C 
BRANCH  11  12
ATOM     12  C   UNL     1      88.899  49.335  43.823  0.00  0.00    -0.085 C 
ATOM     13  C   UNL     1      89.637  49.490  42.702  0.00  0.00    -0.080 C 
ATOM     14  C   UNL     1      90.655  48.433  42.362  0.00  0.00    -0.044 C 
ATOM     15  C   UNL     1      89.454  50.672  41.779  0.00  0.00    -0.044 C 
ENDBRANCH  11  12
ENDBRANCH  10  11
ENDBRANCH   8  10
ENDBRANCH   6   7
ENDBRANCH   5   6
ENDBRANCH   3   5
ENDBRANCH   1   4
BRANCH   1  16
ATOM     16  C   UNL     1      84.960  57.271  45.898  0.00  0.00    -0.029 C 
BRANCH  16  17
ATOM     17  C   UNL     1      85.370  56.502  44.659  0.00  0.00    -0.076 C 
ATOM     18  C   UNL     1      84.416  55.958  43.868  0.00  0.00    -0.083 C 
ATOM     19  C   UNL     1      86.838  56.405  44.324  0.00  0.00    -0.044 C 
BRANCH  18  20
ATOM     20  C   UNL     1      84.686  55.153  42.618  0.00  0.00    -0.009 C 
BRANCH  20  21
ATOM     21  C   UNL     1      84.285  53.680  42.790  0.00  0.00    +0.057 C 
ATOM     22  C   UNL     1      85.267  52.682  42.213  0.00  0.00    -0.064 C 
ATOM     23  C   UNL     1      84.985  51.506  42.797  0.00  0.00    -0.074 C 
ATOM     24  C   UNL     1      83.850  51.741  43.766  0.00  0.00    +0.056 C 
ATOM     25  C   UNL     1      84.222  53.145  44.225  0.00  0.00    -0.013 C 
ATOM     26  C   UNL     1      82.672  52.106  42.919  0.00  0.00    +0.221 C 
ATOM     27  O   UNL     1      81.603  51.455  42.791  0.00  0.00    -0.275 OA
ATOM     28  N   UNL     1      82.955  53.339  42.261  0.00  0.00    -0.306 N 
ATOM     29  H   UNL     1      82.401  53.836  41.617  0.00  0.00    +0.000 HD
ENDBRANCH  20  21
ENDBRANCH  18  20
ENDBRANCH  16  17
ENDBRANCH   1  16
TORSDOF 11
ENDMDL
