MODEL 1
REMARK VINA RESULT:   -10.005      0.000      0.000
REMARK INTER + INTRA:         -10.670
REMARK INTER:                 -10.519
REMARK INTRA:                  -0.151
REMARK UNBOUND:                -0.080
REMARK  Name = 
REMARK  2 active torsions:
REMARK  status: ('A' for Active; 'I' for Inactive)
REMARK    1  A    between atoms: C_1  and  O_2
REMARK    2  A    between atoms: O_2  and  C_3
REMARK                            x       y       z     vdW  Elec       q    Type
REMARK                         _______ _______ _______ _____ _____    ______ ____
ROOT
ATOM      1  C   UNL     1      85.600  49.584  44.589  0.00  0.00    +0.128 A 
ATOM      2  C   UNL     1      86.800  49.710  45.318  0.00  0.00    -0.019 A 
ATOM      3  C   UNL     1      87.457  50.931  45.414  0.00  0.00    -0.058 A 
ATOM      4  C   UNL     1      86.961  52.048  44.756  0.00  0.00    -0.053 A 
ATOM      5  C   UNL     1      85.753  51.972  44.049  0.00  0.00    -0.001 A 
ATOM      6  C   UNL     1      84.985  50.746  44.041  0.00  0.00    +0.036 A 
ATOM      7  C   UNL     1      83.672  50.748  43.416  0.00  0.00    +0.041 A 
ATOM      8  C   UNL     1      82.668  49.755  43.530  0.00  0.00    +0.175 A 
ATOM      9  O   UNL     1      82.628  48.622  44.325  0.00  0.00    -0.452 OA
ATOM     10  C   UNL     1      81.386  47.943  44.116  0.00  0.00    +0.233 C 
ATOM     11  O   UNL     1      80.675  48.759  43.182  0.00  0.00    -0.453 OA
ATOM     12  C   UNL     1      81.469  49.845  42.869  0.00  0.00    +0.167 A 
ATOM     13  C   UNL     1      81.125  50.932  42.066  0.00  0.00    -0.008 A 
ATOM     14  C   UNL     1      82.032  52.000  41.983  0.00  0.00    -0.010 A 
ATOM     15  C   UNL     1      83.276  51.890  42.667  0.00  0.00    +0.018 A 
ATOM     16  C   UNL     1      84.101  52.977  42.638  0.00  0.00    +0.069 A 
ATOM     17  C   UNL     1      85.272  53.071  43.315  0.00  0.00    +0.059 A 
ATOM     18  C   UNL     1      85.728  54.370  43.058  0.00  0.00    +0.253 A 
ATOM     19  O   UNL     1      86.790  54.892  43.484  0.00  0.00    -0.281 OA
ATOM     20  C   UNL     1      84.787  55.003  42.239  0.00  0.00    +0.303 A 
ATOM     21  O   UNL     1      84.859  56.187  41.816  0.00  0.00    -0.263 OA
ATOM     22  N   UNL     1      83.769  54.163  41.969  0.00  0.00    -0.280 N 
ATOM     23  C   UNL     1      82.604  54.292  41.283  0.00  0.00    +0.014 A 
ATOM     24  C   UNL     1      81.712  53.195  41.278  0.00  0.00    -0.037 A 
ENDROOT
BRANCH   1  26
ATOM     25  C   UNL     1      85.769  47.231  43.728  0.00  0.00    +0.079 C 
ATOM     26  O   UNL     1      85.067  48.313  44.333  0.00  0.00    -0.494 OA
ENDBRANCH   1  26
TORSDOF 1
ENDMDL
MODEL 2
REMARK VINA RESULT:    -9.797      3.969      6.321
REMARK INTER + INTRA:         -10.449
REMARK INTER:                 -10.329
REMARK INTRA:                  -0.120
REMARK UNBOUND:                -0.080
REMARK  Name = 
REMARK  2 active torsions:
REMARK  status: ('A' for Active; 'I' for Inactive)
REMARK    1  A    between atoms: C_1  and  O_2
REMARK    2  A    between atoms: O_2  and  C_3
REMARK                            x       y       z     vdW  Elec       q    Type
REMARK                         _______ _______ _______ _____ _____    ______ ____
ROOT
ATOM      1  C   UNL     1      85.204  54.665  41.801  0.00  0.00    +0.128 A 
ATOM      2  C   UNL     1      84.475  55.821  42.144  0.00  0.00    -0.019 A 
ATOM      3  C   UNL     1      84.244  56.157  43.473  0.00  0.00    -0.058 A 
ATOM      4  C   UNL     1      84.697  55.332  44.494  0.00  0.00    -0.053 A 
ATOM      5  C   UNL     1      85.455  54.191  44.196  0.00  0.00    -0.001 A 
ATOM      6  C   UNL     1      85.818  53.889  42.828  0.00  0.00    +0.036 A 
ATOM      7  C   UNL     1      86.721  52.778  42.573  0.00  0.00    +0.041 A 
ATOM      8  C   UNL     1      87.399  52.487  41.364  0.00  0.00    +0.175 A 
ATOM      9  O   UNL     1      87.469  53.215  40.189  0.00  0.00    -0.452 OA
ATOM     10  C   UNL     1      88.306  52.525  39.255  0.00  0.00    +0.233 C 
ATOM     11  O   UNL     1      88.760  51.367  39.958  0.00  0.00    -0.453 OA
ATOM     12  C   UNL     1      88.209  51.388  41.225  0.00  0.00    +0.167 A 
ATOM     13  C   UNL     1      88.462  50.495  42.265  0.00  0.00    -0.008 A 
ATOM     14  C   UNL     1      87.900  50.774  43.521  0.00  0.00    -0.010 A 
ATOM     15  C   UNL     1      87.055  51.912  43.649  0.00  0.00    +0.018 A 
ATOM     16  C   UNL     1      86.592  52.206  44.900  0.00  0.00    +0.069 A 
ATOM     17  C   UNL     1      85.860  53.304  45.209  0.00  0.00    +0.059 A 
ATOM     18  C   UNL     1      85.683  53.234  46.596  0.00  0.00    +0.253 A 
ATOM     19  O   UNL     1      85.052  54.051  47.316  0.00  0.00    -0.281 OA
ATOM     20  C   UNL     1      86.339  52.088  47.057  0.00  0.00    +0.303 A 
ATOM     21  O   UNL     1      86.404  51.711  48.257  0.00  0.00    -0.263 OA
ATOM     22  N   UNL     1      86.914  51.437  46.026  0.00  0.00    -0.280 N 
ATOM     23  C   UNL     1      87.693  50.330  45.935  0.00  0.00    +0.014 A 
ATOM     24  C   UNL     1      88.199  49.977  44.663  0.00  0.00    -0.037 A 
ENDROOT
BRANCH   1  26
ATOM     25  C   UNL     1      84.457  54.759  39.405  0.00  0.00    +0.079 C 
ATOM     26  O   UNL     1      85.249  54.235  40.467  0.00  0.00    -0.494 OA
ENDBRANCH   1  26
TORSDOF 1
ENDMDL
MODEL 3
REMARK VINA RESULT:    -9.700      4.000      6.011
REMARK INTER + INTRA:         -10.347
REMARK INTER:                 -10.198
REMARK INTRA:                  -0.148
REMARK UNBOUND:                -0.080
REMARK  Name = 
REMARK  2 active torsions:
REMARK  status: ('A' for Active; 'I' for Inactive)
REMARK    1  A    between atoms: C_1  and  O_2
REMARK    2  A    between atoms: O_2  and  C_3
REMARK                            x       y       z     vdW  Elec       q    Type
REMARK                         _______ _______ _______ _____ _____    ______ ____
ROOT
ATOM      1  C   UNL     1      84.834  55.428  44.712  0.00  0.00    +0.128 A 
ATOM      2  C   UNL     1      84.170  56.300  43.825  0.00  0.00    -0.019 A 
ATOM      3  C   UNL     1      84.204  56.090  42.451  0.00  0.00    -0.058 A 
ATOM      4  C   UNL     1      84.931  55.032  41.921  0.00  0.00    -0.053 A 
ATOM      5  C   UNL     1      85.577  54.124  42.771  0.00  0.00    -0.001 A 
ATOM      6  C   UNL     1      85.451  54.246  44.208  0.00  0.00    +0.036 A 
ATOM      7  C   UNL     1      86.017  53.206  45.050  0.00  0.00    +0.041 A 
ATOM      8  C   UNL     1      85.778  52.999  46.431  0.00  0.00    +0.175 A 
ATOM      9  O   UNL     1      84.891  53.634  47.283  0.00  0.00    -0.452 OA
ATOM     10  C   UNL     1      84.990  53.053  48.587  0.00  0.00    +0.233 C 
ATOM     11  O   UNL     1      85.956  52.010  48.450  0.00  0.00    -0.453 OA
ATOM     12  C   UNL     1      86.393  51.997  47.139  0.00  0.00    +0.167 A 
ATOM     13  C   UNL     1      87.268  51.081  46.556  0.00  0.00    -0.008 A 
ATOM     14  C   UNL     1      87.478  51.166  45.170  0.00  0.00    -0.010 A 
ATOM     15  C   UNL     1      86.841  52.215  44.449  0.00  0.00    +0.018 A 
ATOM     16  C   UNL     1      86.995  52.222  43.092  0.00  0.00    +0.069 A 
ATOM     17  C   UNL     1      86.378  53.090  42.254  0.00  0.00    +0.059 A 
ATOM     18  C   UNL     1      86.761  52.678  40.971  0.00  0.00    +0.253 A 
ATOM     19  O   UNL     1      86.426  53.207  39.880  0.00  0.00    -0.281 OA
ATOM     20  C   UNL     1      87.590  51.559  41.108  0.00  0.00    +0.303 A 
ATOM     21  O   UNL     1      88.112  50.912  40.161  0.00  0.00    -0.263 OA
ATOM     22  N   UNL     1      87.745  51.254  42.411  0.00  0.00    -0.280 N 
ATOM     23  C   UNL     1      88.389  50.257  43.070  0.00  0.00    +0.014 A 
ATOM     24  C   UNL     1      88.265  50.204  44.477  0.00  0.00    -0.037 A 
ENDROOT
BRANCH   1  26
ATOM     25  C   UNL     1      85.669  56.899  46.568  0.00  0.00    +0.079 C 
ATOM     26  O   UNL     1      84.961  55.770  46.066  0.00  0.00    -0.494 OA
ENDBRANCH   1  26
TORSDOF 1
ENDMDL
MODEL 4
REMARK VINA RESULT:    -9.690      1.829      5.175
REMARK INTER + INTRA:         -10.336
REMARK INTER:                 -10.258
REMARK INTRA:                  -0.078
REMARK UNBOUND:                -0.080
REMARK  Name = 
REMARK  2 active torsions:
REMARK  status: ('A' for Active; 'I' for Inactive)
REMARK    1  A    between atoms: C_1  and  O_2
REMARK    2  A    between atoms: O_2  and  C_3
REMARK                            x       y       z     vdW  Elec       q    Type
REMARK                         _______ _______ _______ _____ _____    ______ ____
ROOT
ATOM      1  C   UNL     1      86.958  52.565  42.581  0.00  0.00    +0.128 A 
ATOM      2  C   UNL     1      88.222  52.002  42.851  0.00  0.00    -0.019 A 
ATOM      3  C   UNL     1      88.349  50.671  43.229  0.00  0.00    -0.058 A 
ATOM      4  C   UNL     1      87.222  49.876  43.388  0.00  0.00    -0.053 A 
ATOM      5  C   UNL     1      85.950  50.389  43.097  0.00  0.00    -0.001 A 
ATOM      6  C   UNL     1      85.802  51.732  42.579  0.00  0.00    +0.036 A 
ATOM      7  C   UNL     1      84.484  52.177  42.157  0.00  0.00    +0.041 A 
ATOM      8  C   UNL     1      84.175  53.328  41.391  0.00  0.00    +0.175 A 
ATOM      9  O   UNL     1      85.018  54.233  40.770  0.00  0.00    -0.452 OA
ATOM     10  C   UNL     1      84.234  55.215  40.084  0.00  0.00    +0.233 C 
ATOM     11  O   UNL     1      82.878  54.817  40.300  0.00  0.00    -0.453 OA
ATOM     12  C   UNL     1      82.884  53.671  41.073  0.00  0.00    +0.167 A 
ATOM     13  C   UNL     1      81.781  52.903  41.441  0.00  0.00    -0.008 A 
ATOM     14  C   UNL     1      82.019  51.697  42.120  0.00  0.00    -0.010 A 
ATOM     15  C   UNL     1      83.361  51.357  42.450  0.00  0.00    +0.018 A 
ATOM     16  C   UNL     1      83.570  50.140  43.034  0.00  0.00    +0.069 A 
ATOM     17  C   UNL     1      84.791  49.625  43.322  0.00  0.00    +0.059 A 
ATOM     18  C   UNL     1      84.527  48.346  43.827  0.00  0.00    +0.253 A 
ATOM     19  O   UNL     1      85.374  47.508  44.230  0.00  0.00    -0.281 OA
ATOM     20  C   UNL     1      83.142  48.150  43.803  0.00  0.00    +0.303 A 
ATOM     21  O   UNL     1      82.541  47.106  44.171  0.00  0.00    -0.263 OA
ATOM     22  N   UNL     1      82.528  49.245  43.312  0.00  0.00    -0.280 N 
ATOM     23  C   UNL     1      81.234  49.549  43.036  0.00  0.00    +0.014 A 
ATOM     24  C   UNL     1      80.961  50.798  42.433  0.00  0.00    -0.037 A 
ENDROOT
BRANCH   1  26
ATOM     25  C   UNL     1      86.782  54.915  43.451  0.00  0.00    +0.079 C 
ATOM     26  O   UNL     1      86.833  53.950  42.404  0.00  0.00    -0.494 OA
ENDBRANCH   1  26
TORSDOF 1
ENDMDL
MODEL 5
REMARK VINA RESULT:    -9.505      3.944      5.330
REMARK INTER + INTRA:         -10.140
REMARK INTER:                 -10.001
REMARK INTRA:                  -0.139
REMARK UNBOUND:                -0.080
REMARK  Name = 
REMARK  2 active torsions:
REMARK  status: ('A' for Active; 'I' for Inactive)
REMARK    1  A    between atoms: C_1  and  O_2
REMARK    2  A    between atoms: O_2  and  C_3
REMARK                            x       y       z     vdW  Elec       q    Type
REMARK                         _______ _______ _______ _____ _____    ______ ____
ROOT
ATOM      1  C   UNL     1      87.499  51.853  43.518  0.00  0.00    +0.128 A 
ATOM      2  C   UNL     1      88.037  50.642  43.998  0.00  0.00    -0.019 A 
ATOM      3  C   UNL     1      87.834  50.237  45.312  0.00  0.00    -0.058 A 
ATOM      4  C   UNL     1      87.126  51.043  46.193  0.00  0.00    -0.053 A 
ATOM      5  C   UNL     1      86.546  52.239  45.746  0.00  0.00    -0.001 A 
ATOM      6  C   UNL     1      86.635  52.619  44.352  0.00  0.00    +0.036 A 
ATOM      7  C   UNL     1      85.903  53.792  43.900  0.00  0.00    +0.041 A 
ATOM      8  C   UNL     1      85.643  54.174  42.561  0.00  0.00    +0.175 A 
ATOM      9  O   UNL     1      85.905  53.502  41.380  0.00  0.00    -0.452 OA
ATOM     10  C   UNL     1      85.426  54.279  40.278  0.00  0.00    +0.233 C 
ATOM     11  O   UNL     1      84.829  55.432  40.876  0.00  0.00    -0.453 OA
ATOM     12  C   UNL     1      84.963  55.324  42.247  0.00  0.00    +0.167 A 
ATOM     13  C   UNL     1      84.442  56.186  43.210  0.00  0.00    -0.008 A 
ATOM     14  C   UNL     1      84.578  55.821  44.559  0.00  0.00    -0.010 A 
ATOM     15  C   UNL     1      85.292  54.630  44.872  0.00  0.00    +0.018 A 
ATOM     16  C   UNL     1      85.336  54.256  46.185  0.00  0.00    +0.069 A 
ATOM     17  C   UNL     1      85.889  53.105  46.638  0.00  0.00    +0.059 A 
ATOM     18  C   UNL     1      85.634  53.105  48.015  0.00  0.00    +0.253 A 
ATOM     19  O   UNL     1      85.978  52.223  48.843  0.00  0.00    -0.281 OA
ATOM     20  C   UNL     1      84.919  54.268  48.320  0.00  0.00    +0.303 A 
ATOM     21  O   UNL     1      84.505  54.597  49.463  0.00  0.00    -0.263 OA
ATOM     22  N   UNL     1      84.718  54.995  47.203  0.00  0.00    -0.280 N 
ATOM     23  C   UNL     1      84.053  56.150  46.944  0.00  0.00    +0.014 A 
ATOM     24  C   UNL     1      83.979  56.585  45.601  0.00  0.00    -0.037 A 
ENDROOT
BRANCH   1  26
ATOM     25  C   UNL     1      89.162  52.150  41.660  0.00  0.00    +0.079 C 
ATOM     26  O   UNL     1      87.886  52.341  42.261  0.00  0.00    -0.494 OA
ENDBRANCH   1  26
TORSDOF 1
ENDMDL
MODEL 6
REMARK VINA RESULT:    -9.491      2.583      4.933
REMARK INTER + INTRA:         -10.125
REMARK INTER:                  -9.985
REMARK INTRA:                  -0.140
REMARK UNBOUND:                -0.080
REMARK  Name = 
REMARK  2 active torsions:
REMARK  status: ('A' for Active; 'I' for Inactive)
REMARK    1  A    between atoms: C_1  and  O_2
REMARK    2  A    between atoms: O_2  and  C_3
REMARK                            x       y       z     vdW  Elec       q    Type
REMARK                         _______ _______ _______ _____ _____    ______ ____
ROOT
ATOM      1  C   UNL     1      84.125  52.722  41.920  0.00  0.00    +0.128 A 
ATOM      2  C   UNL     1      83.922  53.316  40.658  0.00  0.00    -0.019 A 
ATOM      3  C   UNL     1      84.121  54.678  40.465  0.00  0.00    -0.058 A 
ATOM      4  C   UNL     1      84.487  55.491  41.530  0.00  0.00    -0.053 A 
ATOM      5  C   UNL     1      84.732  54.933  42.792  0.00  0.00    -0.001 A 
ATOM      6  C   UNL     1      84.656  53.501  42.988  0.00  0.00    +0.036 A 
ATOM      7  C   UNL     1      85.053  52.950  44.274  0.00  0.00    +0.041 A 
ATOM      8  C   UNL     1      85.304  51.590  44.580  0.00  0.00    +0.175 A 
ATOM      9  O   UNL     1      85.350  50.487  43.746  0.00  0.00    -0.452 OA
ATOM     10  C   UNL     1      85.675  49.325  44.516  0.00  0.00    +0.233 C 
ATOM     11  O   UNL     1      85.860  49.810  45.848  0.00  0.00    -0.453 OA
ATOM     12  C   UNL     1      85.646  51.175  45.843  0.00  0.00    +0.167 A 
ATOM     13  C   UNL     1      85.811  52.053  46.913  0.00  0.00    -0.008 A 
ATOM     14  C   UNL     1      85.672  53.427  46.661  0.00  0.00    -0.010 A 
ATOM     15  C   UNL     1      85.309  53.844  45.349  0.00  0.00    +0.018 A 
ATOM     16  C   UNL     1      85.263  55.188  45.112  0.00  0.00    +0.069 A 
ATOM     17  C   UNL     1      85.031  55.747  43.899  0.00  0.00    +0.059 A 
ATOM     18  C   UNL     1      85.156  57.126  44.113  0.00  0.00    +0.253 A 
ATOM     19  O   UNL     1      85.014  58.035  43.256  0.00  0.00    -0.281 OA
ATOM     20  C   UNL     1      85.475  57.325  45.461  0.00  0.00    +0.303 A 
ATOM     21  O   UNL     1      85.676  58.441  46.010  0.00  0.00    -0.263 OA
ATOM     22  N   UNL     1      85.552  56.141  46.099  0.00  0.00    -0.280 N 
ATOM     23  C   UNL     1      85.873  55.779  47.367  0.00  0.00    +0.014 A 
ATOM     24  C   UNL     1      85.933  54.399  47.668  0.00  0.00    -0.037 A 
ENDROOT
BRANCH   1  26
ATOM     25  C   UNL     1      82.375  50.939  42.178  0.00  0.00    +0.079 C 
ATOM     26  O   UNL     1      83.723  51.397  42.142  0.00  0.00    -0.494 OA
ENDBRANCH   1  26
TORSDOF 1
ENDMDL
MODEL 7
REMARK VINA RESULT:    -9.374      2.847      3.934
REMARK INTER + INTRA:         -10.002
REMARK INTER:                 -10.143
REMARK INTRA:                   0.141
REMARK UNBOUND:                -0.080
REMARK  Name = 
REMARK  2 active torsions:
REMARK  status: ('A' for Active; 'I' for Inactive)
REMARK    1  A    between atoms: C_1  and  O_2
REMARK    2  A    between atoms: O_2  and  C_3
REMARK                            x       y       z     vdW  Elec       q    Type
REMARK                         _______ _______ _______ _____ _____    ______ ____
ROOT
ATOM      1  C   UNL     1      88.731  47.362  42.208  0.00  0.00    +0.128 A 
ATOM      2  C   UNL     1      90.112  47.482  41.946  0.00  0.00    -0.019 A 
ATOM      3  C   UNL     1      90.718  48.729  41.847  0.00  0.00    -0.058 A 
ATOM      4  C   UNL     1      89.962  49.888  41.966  0.00  0.00    -0.053 A 
ATOM      5  C   UNL     1      88.594  49.811  42.260  0.00  0.00    -0.001 A 
ATOM      6  C   UNL     1      87.965  48.529  42.495  0.00  0.00    +0.036 A 
ATOM      7  C   UNL     1      86.580  48.500  42.934  0.00  0.00    +0.041 A 
ATOM      8  C   UNL     1      85.874  47.392  43.466  0.00  0.00    +0.175 A 
ATOM      9  O   UNL     1      86.329  46.128  43.800  0.00  0.00    -0.452 OA
ATOM     10  C   UNL     1      85.244  45.362  44.334  0.00  0.00    +0.233 C 
ATOM     11  O   UNL     1      84.130  46.257  44.334  0.00  0.00    -0.453 OA
ATOM     12  C   UNL     1      84.551  47.470  43.823  0.00  0.00    +0.167 A 
ATOM     13  C   UNL     1      83.807  48.645  43.731  0.00  0.00    -0.008 A 
ATOM     14  C   UNL     1      84.467  49.807  43.303  0.00  0.00    -0.010 A 
ATOM     15  C   UNL     1      85.837  49.712  42.927  0.00  0.00    +0.018 A 
ATOM     16  C   UNL     1      86.475  50.873  42.597  0.00  0.00    +0.069 A 
ATOM     17  C   UNL     1      87.796  50.969  42.311  0.00  0.00    +0.059 A 
ATOM     18  C   UNL     1      88.019  52.337  42.115  0.00  0.00    +0.253 A 
ATOM     19  O   UNL     1      89.113  52.886  41.820  0.00  0.00    -0.281 OA
ATOM     20  C   UNL     1      86.805  53.004  42.309  0.00  0.00    +0.303 A 
ATOM     21  O   UNL     1      86.629  54.248  42.228  0.00  0.00    -0.263 OA
ATOM     22  N   UNL     1      85.835  52.120  42.613  0.00  0.00    -0.280 N 
ATOM     23  C   UNL     1      84.523  52.243  42.939  0.00  0.00    +0.014 A 
ATOM     24  C   UNL     1      83.813  51.072  43.287  0.00  0.00    -0.037 A 
ENDROOT
BRANCH   1  26
ATOM     25  C   UNL     1      88.698  44.861  42.432  0.00  0.00    +0.079 C 
ATOM     26  O   UNL     1      88.105  46.113  42.100  0.00  0.00    -0.494 OA
ENDBRANCH   1  26
TORSDOF 1
ENDMDL
MODEL 8
REMARK VINA RESULT:    -9.349      1.749      4.595
REMARK INTER + INTRA:          -9.975
REMARK INTER:                  -9.896
REMARK INTRA:                  -0.080
REMARK UNBOUND:                -0.080
REMARK  Name = 
REMARK  2 active torsions:
REMARK  status: ('A' for Active; 'I' for Inactive)
REMARK    1  A    between atoms: C_1  and  O_2
REMARK    2  A    between atoms: O_2  and  C_3
REMARK                            x       y       z     vdW  Elec       q    Type
REMARK                         _______ _______ _______ _____ _____    ______ ____
ROOT
ATOM      1  C   UNL     1      81.478  48.442  43.780  0.00  0.00    +0.128 A 
ATOM      2  C   UNL     1      80.176  48.856  43.434  0.00  0.00    -0.019 A 
ATOM      3  C   UNL     1      79.956  50.061  42.777  0.00  0.00    -0.058 A 
ATOM      4  C   UNL     1      81.020  50.903  42.482  0.00  0.00    -0.053 A 
ATOM      5  C   UNL     1      82.333  50.512  42.779  0.00  0.00    -0.001 A 
ATOM      6  C   UNL     1      82.599  49.207  43.347  0.00  0.00    +0.036 A 
ATOM      7  C   UNL     1      83.980  48.784  43.509  0.00  0.00    +0.041 A 
ATOM      8  C   UNL     1      84.447  47.476  43.787  0.00  0.00    +0.175 A 
ATOM      9  O   UNL     1      83.750  46.282  43.860  0.00  0.00    -0.452 OA
ATOM     10  C   UNL     1      84.665  45.217  44.137  0.00  0.00    +0.233 C 
ATOM     11  O   UNL     1      85.949  45.841  44.183  0.00  0.00    -0.453 OA
ATOM     12  C   UNL     1      85.780  47.193  43.950  0.00  0.00    +0.167 A 
ATOM     13  C   UNL     1      86.782  48.153  43.820  0.00  0.00    -0.008 A 
ATOM     14  C   UNL     1      86.400  49.453  43.450  0.00  0.00    -0.010 A 
ATOM     15  C   UNL     1      85.014  49.735  43.292  0.00  0.00    +0.018 A 
ATOM     16  C   UNL     1      84.679  50.983  42.850  0.00  0.00    +0.069 A 
ATOM     17  C   UNL     1      83.417  51.380  42.556  0.00  0.00    +0.059 A 
ATOM     18  C   UNL     1      83.559  52.687  42.072  0.00  0.00    +0.253 A 
ATOM     19  O   UNL     1      82.636  53.449  41.684  0.00  0.00    -0.281 OA
ATOM     20  C   UNL     1      84.921  53.006  42.088  0.00  0.00    +0.303 A 
ATOM     21  O   UNL     1      85.424  54.097  41.708  0.00  0.00    -0.263 OA
ATOM     22  N   UNL     1      85.635  51.966  42.561  0.00  0.00    -0.280 N 
ATOM     23  C   UNL     1      86.963  51.740  42.728  0.00  0.00    +0.014 A 
ATOM     24  C   UNL     1      87.367  50.465  43.186  0.00  0.00    -0.037 A 
ENDROOT
BRANCH   1  26
ATOM     25  C   UNL     1      80.628  46.457  45.063  0.00  0.00    +0.079 C 
ATOM     26  O   UNL     1      81.660  47.333  44.619  0.00  0.00    -0.494 OA
ENDBRANCH   1  26
TORSDOF 1
ENDMDL
MODEL 9
REMARK VINA RESULT:    -9.276      3.672      5.251
REMARK INTER + INTRA:          -9.898
REMARK INTER:                  -9.762
REMARK INTRA:                  -0.136
REMARK UNBOUND:                -0.080
REMARK  Name = 
REMARK  2 active torsions:
REMARK  status: ('A' for Active; 'I' for Inactive)
REMARK    1  A    between atoms: C_1  and  O_2
REMARK    2  A    between atoms: O_2  and  C_3
REMARK                            x       y       z     vdW  Elec       q    Type
REMARK                         _______ _______ _______ _____ _____    ______ ____
ROOT
ATOM      1  C   UNL     1      85.953  52.279  47.437  0.00  0.00    +0.128 A 
ATOM      2  C   UNL     1      86.610  51.337  48.256  0.00  0.00    -0.019 A 
ATOM      3  C   UNL     1      87.435  50.362  47.709  0.00  0.00    -0.058 A 
ATOM      4  C   UNL     1      87.598  50.271  46.333  0.00  0.00    -0.053 A 
ATOM      5  C   UNL     1      86.989  51.209  45.488  0.00  0.00    -0.001 A 
ATOM      6  C   UNL     1      86.230  52.310  46.040  0.00  0.00    +0.036 A 
ATOM      7  C   UNL     1      85.734  53.338  45.139  0.00  0.00    +0.041 A 
ATOM      8  C   UNL     1      85.213  54.607  45.494  0.00  0.00    +0.175 A 
ATOM      9  O   UNL     1      85.148  55.225  46.731  0.00  0.00    -0.452 OA
ATOM     10  C   UNL     1      84.564  56.523  46.580  0.00  0.00    +0.233 C 
ATOM     11  O   UNL     1      84.324  56.655  45.177  0.00  0.00    -0.453 OA
ATOM     12  C   UNL     1      84.743  55.494  44.558  0.00  0.00    +0.167 A 
ATOM     13  C   UNL     1      84.773  55.238  43.188  0.00  0.00    -0.008 A 
ATOM     14  C   UNL     1      85.364  54.040  42.757  0.00  0.00    -0.010 A 
ATOM     15  C   UNL     1      85.840  53.125  43.738  0.00  0.00    +0.018 A 
ATOM     16  C   UNL     1      86.485  52.009  43.289  0.00  0.00    +0.069 A 
ATOM     17  C   UNL     1      87.081  51.091  44.089  0.00  0.00    +0.059 A 
ATOM     18  C   UNL     1      87.674  50.181  43.206  0.00  0.00    +0.253 A 
ATOM     19  O   UNL     1      88.333  49.155  43.515  0.00  0.00    -0.281 OA
ATOM     20  C   UNL     1      87.411  50.613  41.901  0.00  0.00    +0.303 A 
ATOM     21  O   UNL     1      87.803  50.045  40.847  0.00  0.00    -0.263 OA
ATOM     22  N   UNL     1      86.681  51.744  41.926  0.00  0.00    -0.280 N 
ATOM     23  C   UNL     1      86.215  52.580  40.964  0.00  0.00    +0.014 A 
ATOM     24  C   UNL     1      85.537  53.751  41.373  0.00  0.00    -0.037 A 
ENDROOT
BRANCH   1  26
ATOM     25  C   UNL     1      84.161  52.810  49.114  0.00  0.00    +0.079 C 
ATOM     26  O   UNL     1      84.971  53.117  47.984  0.00  0.00    -0.494 OA
ENDBRANCH   1  26
TORSDOF 1
ENDMDL
