MODEL 1
REMARK VINA RESULT:    -9.926      0.000      0.000
REMARK INTER + INTRA:         -10.619
REMARK INTER:                 -10.475
REMARK INTRA:                  -0.143
REMARK UNBOUND:                -0.113
REMARK  Name = 
REMARK  2 active torsions:
REMARK  status: ('A' for Active; 'I' for Inactive)
REMARK    1  A    between atoms: C_1  and  O_2
REMARK    2  A    between atoms: O_2  and  C_3
REMARK                            x       y       z     vdW  Elec       q    Type
REMARK                         _______ _______ _______ _____ _____    ______ ____
ROOT
ATOM      1  C   UNL     1      85.529  49.452  44.931  0.00  0.00    +0.128 A 
ATOM      2  C   UNL     1      86.740  49.547  45.647  0.00  0.00    -0.019 A 
ATOM      3  C   UNL     1      87.420  50.755  45.749  0.00  0.00    -0.058 A 
ATOM      4  C   UNL     1      86.937  51.888  45.109  0.00  0.00    -0.053 A 
ATOM      5  C   UNL     1      85.720  51.842  44.415  0.00  0.00    -0.001 A 
ATOM      6  C   UNL     1      84.929  50.631  44.402  0.00  0.00    +0.036 A 
ATOM      7  C   UNL     1      83.609  50.664  43.793  0.00  0.00    +0.041 A 
ATOM      8  C   UNL     1      82.589  49.688  43.908  0.00  0.00    +0.175 A 
ATOM      9  O   UNL     1      82.537  48.548  44.690  0.00  0.00    -0.452 OA
ATOM     10  C   UNL     1      81.280  47.894  44.489  0.00  0.00    +0.233 C 
ATOM     11  O   UNL     1      80.574  48.733  43.572  0.00  0.00    -0.453 OA
ATOM     12  C   UNL     1      81.384  49.808  43.261  0.00  0.00    +0.167 A 
ATOM     13  C   UNL     1      81.051  50.909  42.474  0.00  0.00    -0.008 A 
ATOM     14  C   UNL     1      81.977  51.961  42.393  0.00  0.00    -0.010 A 
ATOM     15  C   UNL     1      83.226  51.821  43.061  0.00  0.00    +0.018 A 
ATOM     16  C   UNL     1      84.071  52.893  43.034  0.00  0.00    +0.069 A 
ATOM     17  C   UNL     1      85.251  52.958  43.699  0.00  0.00    +0.059 A 
ATOM     18  C   UNL     1      85.728  54.251  43.451  0.00  0.00    +0.253 A 
ATOM     19  O   UNL     1      86.805  54.748  43.870  0.00  0.00    -0.281 OA
ATOM     20  C   UNL     1      84.789  54.910  42.649  0.00  0.00    +0.303 A 
ATOM     21  O   UNL     1      84.879  56.098  42.239  0.00  0.00    -0.263 OA
ATOM     22  N   UNL     1      83.753  54.092  42.382  0.00  0.00    -0.280 N 
ATOM     23  C   UNL     1      82.584  54.250  41.711  0.00  0.00    +0.014 A 
ATOM     24  C   UNL     1      81.672  53.170  41.704  0.00  0.00    -0.037 A 
ENDROOT
BRANCH   1  26
ATOM     25  C   UNL     1      85.700  47.027  44.300  0.00  0.00    +0.079 C 
ATOM     26  O   UNL     1      84.970  48.193  44.668  0.00  0.00    -0.494 OA
ENDBRANCH   1  26
TORSDOF 1
ENDMDL
MODEL 2
REMARK VINA RESULT:    -9.687      3.996      5.973
REMARK INTER + INTRA:         -10.366
REMARK INTER:                 -10.217
REMARK INTRA:                  -0.149
REMARK UNBOUND:                -0.113
REMARK  Name = 
REMARK  2 active torsions:
REMARK  status: ('A' for Active; 'I' for Inactive)
REMARK    1  A    between atoms: C_1  and  O_2
REMARK    2  A    between atoms: O_2  and  C_3
REMARK                            x       y       z     vdW  Elec       q    Type
REMARK                         _______ _______ _______ _____ _____    ______ ____
ROOT
ATOM      1  C   UNL     1      84.869  55.397  45.016  0.00  0.00    +0.128 A 
ATOM      2  C   UNL     1      84.179  56.323  44.208  0.00  0.00    -0.019 A 
ATOM      3  C   UNL     1      84.157  56.191  42.824  0.00  0.00    -0.058 A 
ATOM      4  C   UNL     1      84.852  55.161  42.206  0.00  0.00    -0.053 A 
ATOM      5  C   UNL     1      85.523  54.201  42.976  0.00  0.00    -0.001 A 
ATOM      6  C   UNL     1      85.454  54.242  44.421  0.00  0.00    +0.036 A 
ATOM      7  C   UNL     1      86.044  53.150  45.180  0.00  0.00    +0.041 A 
ATOM      8  C   UNL     1      85.857  52.867  46.555  0.00  0.00    +0.175 A 
ATOM      9  O   UNL     1      85.010  53.458  47.476  0.00  0.00    -0.452 OA
ATOM     10  C   UNL     1      85.155  52.803  48.740  0.00  0.00    +0.233 C 
ATOM     11  O   UNL     1      86.106  51.762  48.506  0.00  0.00    -0.453 OA
ATOM     12  C   UNL     1      86.490  51.821  47.180  0.00  0.00    +0.167 A 
ATOM     13  C   UNL     1      87.333  50.935  46.511  0.00  0.00    -0.008 A 
ATOM     14  C   UNL     1      87.489  51.097  45.125  0.00  0.00    -0.010 A 
ATOM     15  C   UNL     1      86.834  52.190  44.491  0.00  0.00    +0.018 A 
ATOM     16  C   UNL     1      86.934  52.274  43.132  0.00  0.00    +0.069 A 
ATOM     17  C   UNL     1      86.293  53.193  42.369  0.00  0.00    +0.059 A 
ATOM     18  C   UNL     1      86.622  52.852  41.051  0.00  0.00    +0.253 A 
ATOM     19  O   UNL     1      86.249  53.446  40.006  0.00  0.00    -0.281 OA
ATOM     20  C   UNL     1      87.445  51.721  41.091  0.00  0.00    +0.303 A 
ATOM     21  O   UNL     1      87.923  51.126  40.089  0.00  0.00    -0.263 OA
ATOM     22  N   UNL     1      87.649  51.342  42.367  0.00  0.00    -0.280 N 
ATOM     23  C   UNL     1      88.309  50.304  42.941  0.00  0.00    +0.014 A 
ATOM     24  C   UNL     1      88.240  50.171  44.347  0.00  0.00    -0.037 A 
ENDROOT
BRANCH   1  26
ATOM     25  C   UNL     1      85.724  56.794  46.920  0.00  0.00    +0.079 C 
ATOM     26  O   UNL     1      85.052  55.660  46.381  0.00  0.00    -0.494 OA
ENDBRANCH   1  26
TORSDOF 1
ENDMDL
MODEL 3
REMARK VINA RESULT:    -9.637      4.055      6.331
REMARK INTER + INTRA:         -10.313
REMARK INTER:                 -10.183
REMARK INTRA:                  -0.130
REMARK UNBOUND:                -0.113
REMARK  Name = 
REMARK  2 active torsions:
REMARK  status: ('A' for Active; 'I' for Inactive)
REMARK    1  A    between atoms: C_1  and  O_2
REMARK    2  A    between atoms: O_2  and  C_3
REMARK                            x       y       z     vdW  Elec       q    Type
REMARK                         _______ _______ _______ _____ _____    ______ ____
ROOT
ATOM      1  C   UNL     1      85.250  54.678  42.211  0.00  0.00    +0.128 A 
ATOM      2  C   UNL     1      84.540  55.872  42.452  0.00  0.00    -0.019 A 
ATOM      3  C   UNL     1      84.256  56.289  43.747  0.00  0.00    -0.058 A 
ATOM      4  C   UNL     1      84.634  55.511  44.834  0.00  0.00    -0.053 A 
ATOM      5  C   UNL     1      85.371  54.335  44.637  0.00  0.00    -0.001 A 
ATOM      6  C   UNL     1      85.790  53.946  43.308  0.00  0.00    +0.036 A 
ATOM      7  C   UNL     1      86.670  52.798  43.161  0.00  0.00    +0.041 A 
ATOM      8  C   UNL     1      87.396  52.420  42.005  0.00  0.00    +0.175 A 
ATOM      9  O   UNL     1      87.545  53.078  40.796  0.00  0.00    -0.452 OA
ATOM     10  C   UNL     1      88.405  52.313  39.945  0.00  0.00    +0.233 C 
ATOM     11  O   UNL     1      88.790  51.185  40.733  0.00  0.00    -0.453 OA
ATOM     12  C   UNL     1      88.179  51.293  41.967  0.00  0.00    +0.167 A 
ATOM     13  C   UNL     1      88.355  50.454  43.066  0.00  0.00    -0.008 A 
ATOM     14  C   UNL     1      87.742  50.819  44.275  0.00  0.00    -0.010 A 
ATOM     15  C   UNL     1      86.926  51.985  44.299  0.00  0.00    +0.018 A 
ATOM     16  C   UNL     1      86.412  52.363  45.506  0.00  0.00    +0.069 A 
ATOM     17  C   UNL     1      85.699  53.496  45.717  0.00  0.00    +0.059 A 
ATOM     18  C   UNL     1      85.453  53.510  47.096  0.00  0.00    +0.253 A 
ATOM     19  O   UNL     1      84.813  54.383  47.736  0.00  0.00    -0.281 OA
ATOM     20  C   UNL     1      86.052  52.374  47.651  0.00  0.00    +0.303 A 
ATOM     21  O   UNL     1      86.047  52.064  48.872  0.00  0.00    -0.263 OA
ATOM     22  N   UNL     1      86.656  51.651  46.688  0.00  0.00    -0.280 N 
ATOM     23  C   UNL     1      87.405  50.519  46.697  0.00  0.00    +0.014 A 
ATOM     24  C   UNL     1      87.960  50.081  45.473  0.00  0.00    -0.037 A 
ENDROOT
BRANCH   1  26
ATOM     25  C   UNL     1      84.522  54.557  39.810  0.00  0.00    +0.079 C 
ATOM     26  O   UNL     1      85.346  54.173  40.907  0.00  0.00    -0.494 OA
ENDBRANCH   1  26
TORSDOF 1
ENDMDL
MODEL 4
REMARK VINA RESULT:    -9.562      1.759      5.183
REMARK INTER + INTRA:         -10.233
REMARK INTER:                 -10.127
REMARK INTRA:                  -0.106
REMARK UNBOUND:                -0.113
REMARK  Name = 
REMARK  2 active torsions:
REMARK  status: ('A' for Active; 'I' for Inactive)
REMARK    1  A    between atoms: C_1  and  O_2
REMARK    2  A    between atoms: O_2  and  C_3
REMARK                            x       y       z     vdW  Elec       q    Type
REMARK                         _______ _______ _______ _____ _____    ______ ____
ROOT
ATOM      1  C   UNL     1      86.766  52.633  42.828  0.00  0.00    +0.128 A 
ATOM      2  C   UNL     1      87.987  52.003  43.145  0.00  0.00    -0.019 A 
ATOM      3  C   UNL     1      88.021  50.681  43.574  0.00  0.00    -0.058 A 
ATOM      4  C   UNL     1      86.843  49.965  43.736  0.00  0.00    -0.053 A 
ATOM      5  C   UNL     1      85.612  50.545  43.399  0.00  0.00    -0.001 A 
ATOM      6  C   UNL     1      85.560  51.875  42.830  0.00  0.00    +0.036 A 
ATOM      7  C   UNL     1      84.281  52.386  42.364  0.00  0.00    +0.041 A 
ATOM      8  C   UNL     1      84.061  53.525  41.551  0.00  0.00    +0.175 A 
ATOM      9  O   UNL     1      84.971  54.351  40.916  0.00  0.00    -0.452 OA
ATOM     10  C   UNL     1      84.265  55.354  40.179  0.00  0.00    +0.233 C 
ATOM     11  O   UNL     1      82.883  55.050  40.379  0.00  0.00    -0.453 OA
ATOM     12  C   UNL     1      82.801  53.936  41.193  0.00  0.00    +0.167 A 
ATOM     13  C   UNL     1      81.645  53.251  41.564  0.00  0.00    -0.008 A 
ATOM     14  C   UNL     1      81.793  52.059  42.290  0.00  0.00    -0.010 A 
ATOM     15  C   UNL     1      83.103  51.648  42.662  0.00  0.00    +0.018 A 
ATOM     16  C   UNL     1      83.223  50.443  43.293  0.00  0.00    +0.069 A 
ATOM     17  C   UNL     1      84.403  49.864  43.626  0.00  0.00    +0.059 A 
ATOM     18  C   UNL     1      84.049  48.623  44.169  0.00  0.00    +0.253 A 
ATOM     19  O   UNL     1      84.833  47.749  44.621  0.00  0.00    -0.281 OA
ATOM     20  C   UNL     1      82.655  48.514  44.122  0.00  0.00    +0.303 A 
ATOM     21  O   UNL     1      81.982  47.524  44.514  0.00  0.00    -0.263 OA
ATOM     22  N   UNL     1      82.122  49.625  43.579  0.00  0.00    -0.280 N 
ATOM     23  C   UNL     1      80.855  49.999  43.264  0.00  0.00    +0.014 A 
ATOM     24  C   UNL     1      80.673  51.240  42.611  0.00  0.00    -0.037 A 
ENDROOT
BRANCH   1  26
ATOM     25  C   UNL     1      86.792  55.021  43.607  0.00  0.00    +0.079 C 
ATOM     26  O   UNL     1      86.733  54.016  42.599  0.00  0.00    -0.494 OA
ENDBRANCH   1  26
TORSDOF 1
ENDMDL
MODEL 5
REMARK VINA RESULT:    -9.431      1.704      4.596
REMARK INTER + INTRA:         -10.095
REMARK INTER:                 -10.013
REMARK INTRA:                  -0.082
REMARK UNBOUND:                -0.113
REMARK  Name = 
REMARK  2 active torsions:
REMARK  status: ('A' for Active; 'I' for Inactive)
REMARK    1  A    between atoms: C_1  and  O_2
REMARK    2  A    between atoms: O_2  and  C_3
REMARK                            x       y       z     vdW  Elec       q    Type
REMARK                         _______ _______ _______ _____ _____    ______ ____
ROOT
ATOM      1  C   UNL     1      81.165  48.340  44.155  0.00  0.00    +0.128 A 
ATOM      2  C   UNL     1      79.854  48.724  43.808  0.00  0.00    -0.019 A 
ATOM      3  C   UNL     1      79.604  49.938  43.178  0.00  0.00    -0.058 A 
ATOM      4  C   UNL     1      80.645  50.818  42.913  0.00  0.00    -0.053 A 
ATOM      5  C   UNL     1      81.967  50.459  43.212  0.00  0.00    -0.001 A 
ATOM      6  C   UNL     1      82.266  49.149  43.750  0.00  0.00    +0.036 A 
ATOM      7  C   UNL     1      83.658  48.763  43.914  0.00  0.00    +0.041 A 
ATOM      8  C   UNL     1      84.161  47.463  44.164  0.00  0.00    +0.175 A 
ATOM      9  O   UNL     1      83.500  46.248  44.202  0.00  0.00    -0.452 OA
ATOM     10  C   UNL     1      84.444  45.203  44.460  0.00  0.00    +0.233 C 
ATOM     11  O   UNL     1      85.709  45.864  44.533  0.00  0.00    -0.453 OA
ATOM     12  C   UNL     1      85.501  47.215  44.332  0.00  0.00    +0.167 A 
ATOM     13  C   UNL     1      86.475  48.208  44.234  0.00  0.00    -0.008 A 
ATOM     14  C   UNL     1      86.058  49.504  43.893  0.00  0.00    -0.010 A 
ATOM     15  C   UNL     1      84.666  49.749  43.730  0.00  0.00    +0.018 A 
ATOM     16  C   UNL     1      84.297  50.997  43.316  0.00  0.00    +0.069 A 
ATOM     17  C   UNL     1      83.026  51.364  43.020  0.00  0.00    +0.059 A 
ATOM     18  C   UNL     1      83.133  52.686  42.569  0.00  0.00    +0.253 A 
ATOM     19  O   UNL     1      82.191  53.430  42.192  0.00  0.00    -0.281 OA
ATOM     20  C   UNL     1      84.485  53.045  42.605  0.00  0.00    +0.303 A 
ATOM     21  O   UNL     1      84.958  54.159  42.257  0.00  0.00    -0.263 OA
ATOM     22  N   UNL     1      85.225  52.015  43.059  0.00  0.00    -0.280 N 
ATOM     23  C   UNL     1      86.558  51.824  43.232  0.00  0.00    +0.014 A 
ATOM     24  C   UNL     1      86.996  50.551  43.662  0.00  0.00    -0.037 A 
ENDROOT
BRANCH   1  26
ATOM     25  C   UNL     1      80.363  46.306  45.390  0.00  0.00    +0.079 C 
ATOM     26  O   UNL     1      81.373  47.217  44.968  0.00  0.00    -0.494 OA
ENDBRANCH   1  26
TORSDOF 1
ENDMDL
MODEL 6
REMARK VINA RESULT:    -9.344      3.928      5.534
REMARK INTER + INTRA:         -10.003
REMARK INTER:                  -9.883
REMARK INTRA:                  -0.120
REMARK UNBOUND:                -0.113
REMARK  Name = 
REMARK  2 active torsions:
REMARK  status: ('A' for Active; 'I' for Inactive)
REMARK    1  A    between atoms: C_1  and  O_2
REMARK    2  A    between atoms: O_2  and  C_3
REMARK                            x       y       z     vdW  Elec       q    Type
REMARK                         _______ _______ _______ _____ _____    ______ ____
ROOT
ATOM      1  C   UNL     1      87.975  51.751  41.960  0.00  0.00    +0.128 A 
ATOM      2  C   UNL     1      88.726  50.561  41.865  0.00  0.00    -0.019 A 
ATOM      3  C   UNL     1      88.879  49.720  42.961  0.00  0.00    -0.058 A 
ATOM      4  C   UNL     1      88.326  50.058  44.188  0.00  0.00    -0.053 A 
ATOM      5  C   UNL     1      87.545  51.215  44.315  0.00  0.00    -0.001 A 
ATOM      6  C   UNL     1      87.263  52.040  43.160  0.00  0.00    +0.036 A 
ATOM      7  C   UNL     1      86.336  53.151  43.303  0.00  0.00    +0.041 A 
ATOM      8  C   UNL     1      85.730  53.899  42.264  0.00  0.00    +0.175 A 
ATOM      9  O   UNL     1      85.769  53.706  40.894  0.00  0.00    -0.452 OA
ATOM     10  C   UNL     1      84.970  54.707  40.254  0.00  0.00    +0.233 C 
ATOM     11  O   UNL     1      84.423  55.479  41.325  0.00  0.00    -0.453 OA
ATOM     12  C   UNL     1      84.888  54.953  42.515  0.00  0.00    +0.167 A 
ATOM     13  C   UNL     1      84.529  55.348  43.803  0.00  0.00    -0.008 A 
ATOM     14  C   UNL     1      85.016  54.591  44.881  0.00  0.00    -0.010 A 
ATOM     15  C   UNL     1      85.895  53.506  44.607  0.00  0.00    +0.018 A 
ATOM     16  C   UNL     1      86.284  52.737  45.666  0.00  0.00    +0.069 A 
ATOM     17  C   UNL     1      87.037  51.614  45.564  0.00  0.00    +0.059 A 
ATOM     18  C   UNL     1      87.117  51.120  46.872  0.00  0.00    +0.253 A 
ATOM     19  O   UNL     1      87.730  50.089  47.250  0.00  0.00    -0.281 OA
ATOM     20  C   UNL     1      86.385  51.977  47.702  0.00  0.00    +0.303 A 
ATOM     21  O   UNL     1      86.225  51.837  48.943  0.00  0.00    -0.263 OA
ATOM     22  N   UNL     1      85.856  52.983  46.978  0.00  0.00    -0.280 N 
ATOM     23  C   UNL     1      85.041  54.025  47.278  0.00  0.00    +0.014 A 
ATOM     24  C   UNL     1      84.609  54.856  46.219  0.00  0.00    -0.037 A 
ENDROOT
BRANCH   1  26
ATOM     25  C   UNL     1      88.890  52.642  39.797  0.00  0.00    +0.079 C 
ATOM     26  O   UNL     1      88.004  52.681  40.912  0.00  0.00    -0.494 OA
ENDBRANCH   1  26
TORSDOF 1
ENDMDL
MODEL 7
REMARK VINA RESULT:    -9.219      2.882      3.915
REMARK INTER + INTRA:          -9.871
REMARK INTER:                  -9.940
REMARK INTRA:                   0.070
REMARK UNBOUND:                -0.113
REMARK  Name = 
REMARK  2 active torsions:
REMARK  status: ('A' for Active; 'I' for Inactive)
REMARK    1  A    between atoms: C_1  and  O_2
REMARK    2  A    between atoms: O_2  and  C_3
REMARK                            x       y       z     vdW  Elec       q    Type
REMARK                         _______ _______ _______ _____ _____    ______ ____
ROOT
ATOM      1  C   UNL     1      88.582  47.253  42.446  0.00  0.00    +0.128 A 
ATOM      2  C   UNL     1      89.960  47.316  42.156  0.00  0.00    -0.019 A 
ATOM      3  C   UNL     1      90.616  48.537  42.047  0.00  0.00    -0.058 A 
ATOM      4  C   UNL     1      89.912  49.726  42.185  0.00  0.00    -0.053 A 
ATOM      5  C   UNL     1      88.547  49.705  42.507  0.00  0.00    -0.001 A 
ATOM      6  C   UNL     1      87.871  48.449  42.751  0.00  0.00    +0.036 A 
ATOM      7  C   UNL     1      86.495  48.476  43.219  0.00  0.00    +0.041 A 
ATOM      8  C   UNL     1      85.755  47.397  43.762  0.00  0.00    +0.175 A 
ATOM      9  O   UNL     1      86.163  46.115  44.084  0.00  0.00    -0.452 OA
ATOM     10  C   UNL     1      85.059  45.393  44.638  0.00  0.00    +0.233 C 
ATOM     11  O   UNL     1      83.983  46.333  44.664  0.00  0.00    -0.453 OA
ATOM     12  C   UNL     1      84.444  47.529  44.147  0.00  0.00    +0.167 A 
ATOM     13  C   UNL     1      83.747  48.734  44.073  0.00  0.00    -0.008 A 
ATOM     14  C   UNL     1      84.447  49.870  43.635  0.00  0.00    -0.010 A 
ATOM     15  C   UNL     1      85.803  49.718  43.231  0.00  0.00    +0.018 A 
ATOM     16  C   UNL     1      86.482  50.853  42.890  0.00  0.00    +0.069 A 
ATOM     17  C   UNL     1      87.801  50.894  42.577  0.00  0.00    +0.059 A 
ATOM     18  C   UNL     1      88.076  52.253  42.380  0.00  0.00    +0.253 A 
ATOM     19  O   UNL     1      89.185  52.757  42.064  0.00  0.00    -0.281 OA
ATOM     20  C   UNL     1      86.895  52.969  42.601  0.00  0.00    +0.303 A 
ATOM     21  O   UNL     1      86.770  54.220  42.526  0.00  0.00    -0.263 OA
ATOM     22  N   UNL     1      85.895  52.125  42.922  0.00  0.00    -0.280 N 
ATOM     23  C   UNL     1      84.597  52.302  43.275  0.00  0.00    +0.014 A 
ATOM     24  C   UNL     1      83.845  51.160  43.636  0.00  0.00    -0.037 A 
ENDROOT
BRANCH   1  26
ATOM     25  C   UNL     1      88.480  44.745  42.556  0.00  0.00    +0.079 C 
ATOM     26  O   UNL     1      87.902  46.030  42.347  0.00  0.00    -0.494 OA
ENDBRANCH   1  26
TORSDOF 1
ENDMDL
MODEL 8
REMARK VINA RESULT:    -9.211      3.645      5.250
REMARK INTER + INTRA:          -9.862
REMARK INTER:                  -9.717
REMARK INTRA:                  -0.145
REMARK UNBOUND:                -0.113
REMARK  Name = 
REMARK  2 active torsions:
REMARK  status: ('A' for Active; 'I' for Inactive)
REMARK    1  A    between atoms: C_1  and  O_2
REMARK    2  A    between atoms: O_2  and  C_3
REMARK                            x       y       z     vdW  Elec       q    Type
REMARK                         _______ _______ _______ _____ _____    ______ ____
ROOT
ATOM      1  C   UNL     1      85.804  52.484  47.750  0.00  0.00    +0.128 A 
ATOM      2  C   UNL     1      86.455  51.548  48.579  0.00  0.00    -0.019 A 
ATOM      3  C   UNL     1      87.261  50.551  48.042  0.00  0.00    -0.058 A 
ATOM      4  C   UNL     1      87.409  50.434  46.666  0.00  0.00    -0.053 A 
ATOM      5  C   UNL     1      86.805  51.365  45.810  0.00  0.00    -0.001 A 
ATOM      6  C   UNL     1      86.067  52.487  46.349  0.00  0.00    +0.036 A 
ATOM      7  C   UNL     1      85.577  53.506  45.435  0.00  0.00    +0.041 A 
ATOM      8  C   UNL     1      85.078  54.788  45.772  0.00  0.00    +0.175 A 
ATOM      9  O   UNL     1      85.033  55.429  46.998  0.00  0.00    -0.452 OA
ATOM     10  C   UNL     1      84.466  56.732  46.830  0.00  0.00    +0.233 C 
ATOM     11  O   UNL     1      84.214  56.843  45.428  0.00  0.00    -0.453 OA
ATOM     12  C   UNL     1      84.611  55.664  44.825  0.00  0.00    +0.167 A 
ATOM     13  C   UNL     1      84.623  55.384  43.459  0.00  0.00    -0.008 A 
ATOM     14  C   UNL     1      85.193  54.170  43.044  0.00  0.00    -0.010 A 
ATOM     15  C   UNL     1      85.666  53.267  44.037  0.00  0.00    +0.018 A 
ATOM     16  C   UNL     1      86.291  52.133  43.602  0.00  0.00    +0.069 A 
ATOM     17  C   UNL     1      86.882  51.222  44.413  0.00  0.00    +0.059 A 
ATOM     18  C   UNL     1      87.453  50.287  43.540  0.00  0.00    +0.253 A 
ATOM     19  O   UNL     1      88.101  49.257  43.861  0.00  0.00    -0.281 OA
ATOM     20  C   UNL     1      87.184  50.699  42.231  0.00  0.00    +0.303 A 
ATOM     21  O   UNL     1      87.557  50.107  41.183  0.00  0.00    -0.263 OA
ATOM     22  N   UNL     1      86.470  51.842  42.242  0.00  0.00    -0.280 N 
ATOM     23  C   UNL     1      86.006  52.667  41.269  0.00  0.00    +0.014 A 
ATOM     24  C   UNL     1      85.349  53.854  41.664  0.00  0.00    -0.037 A 
ENDROOT
BRANCH   1  26
ATOM     25  C   UNL     1      83.809  52.965  49.197  0.00  0.00    +0.079 C 
ATOM     26  O   UNL     1      84.839  53.346  48.291  0.00  0.00    -0.494 OA
ENDBRANCH   1  26
TORSDOF 1
ENDMDL
MODEL 9
REMARK VINA RESULT:    -8.971      1.867      6.570
REMARK INTER + INTRA:          -9.608
REMARK INTER:                  -9.495
REMARK INTRA:                  -0.113
REMARK UNBOUND:                -0.113
REMARK  Name = 
REMARK  2 active torsions:
REMARK  status: ('A' for Active; 'I' for Inactive)
REMARK    1  A    between atoms: C_1  and  O_2
REMARK    2  A    between atoms: O_2  and  C_3
REMARK                            x       y       z     vdW  Elec       q    Type
REMARK                         _______ _______ _______ _____ _____    ______ ____
ROOT
ATOM      1  C   UNL     1      82.978  53.931  42.422  0.00  0.00    +0.128 A 
ATOM      2  C   UNL     1      81.901  53.409  41.676  0.00  0.00    -0.019 A 
ATOM      3  C   UNL     1      81.582  52.057  41.725  0.00  0.00    -0.058 A 
ATOM      4  C   UNL     1      82.347  51.183  42.485  0.00  0.00    -0.053 A 
ATOM      5  C   UNL     1      83.405  51.668  43.267  0.00  0.00    -0.001 A 
ATOM      6  C   UNL     1      83.677  53.088  43.332  0.00  0.00    +0.036 A 
ATOM      7  C   UNL     1      84.690  53.563  44.262  0.00  0.00    +0.041 A 
ATOM      8  C   UNL     1      84.917  54.901  44.668  0.00  0.00    +0.175 A 
ATOM      9  O   UNL     1      84.194  56.048  44.389  0.00  0.00    -0.452 OA
ATOM     10  C   UNL     1      84.800  57.161  45.054  0.00  0.00    +0.233 C 
ATOM     11  O   UNL     1      85.899  56.602  45.775  0.00  0.00    -0.453 OA
ATOM     12  C   UNL     1      85.926  55.242  45.533  0.00  0.00    +0.167 A 
ATOM     13  C   UNL     1      86.781  54.304  46.110  0.00  0.00    -0.008 A 
ATOM     14  C   UNL     1      86.553  52.948  45.828  0.00  0.00    -0.010 A 
ATOM     15  C   UNL     1      85.509  52.608  44.923  0.00  0.00    +0.018 A 
ATOM     16  C   UNL     1      85.256  51.280  44.734  0.00  0.00    +0.069 A 
ATOM     17  C   UNL     1      84.238  50.791  43.984  0.00  0.00    +0.059 A 
ATOM     18  C   UNL     1      84.317  49.401  44.141  0.00  0.00    +0.253 A 
ATOM     19  O   UNL     1      83.565  48.542  43.613  0.00  0.00    -0.281 OA
ATOM     20  C   UNL     1      85.385  49.125  45.001  0.00  0.00    +0.303 A 
ATOM     21  O   UNL     1      85.745  47.978  45.380  0.00  0.00    -0.263 OA
ATOM     22  N   UNL     1      85.979  50.271  45.385  0.00  0.00    -0.280 N 
ATOM     23  C   UNL     1      87.000  50.559  46.232  0.00  0.00    +0.014 A 
ATOM     24  C   UNL     1      87.306  51.920  46.463  0.00  0.00    -0.037 A 
ENDROOT
BRANCH   1  26
ATOM     25  C   UNL     1      84.170  55.688  41.080  0.00  0.00    +0.079 C 
ATOM     26  O   UNL     1      83.409  55.247  42.200  0.00  0.00    -0.494 OA
ENDBRANCH   1  26
TORSDOF 1
ENDMDL
