=
 OpenBabel08112514243D

 26 31  0  0  0  0  0  0  0  0999 V2000
   85.5290   49.4520   44.9310 C   0  0  0  0  0  0  0  0  0  0  0  0
   86.7400   49.5470   45.6470 C   0  0  0  0  0  3  0  0  0  0  0  0
   87.4200   50.7550   45.7490 C   0  0  0  0  0  3  0  0  0  0  0  0
   86.9370   51.8880   45.1090 C   0  0  0  0  0  3  0  0  0  0  0  0
   85.7200   51.8420   44.4150 C   0  0  0  0  0  0  0  0  0  0  0  0
   84.9290   50.6310   44.4020 C   0  0  0  0  0  0  0  0  0  0  0  0
   83.6090   50.6640   43.7930 C   0  0  0  0  0  0  0  0  0  0  0  0
   82.5890   49.6880   43.9080 C   0  0  0  0  0  0  0  0  0  0  0  0
   82.5370   48.5480   44.6900 O   0  0  0  0  0  0  0  0  0  0  0  0
   81.2800   47.8940   44.4890 C   0  0  0  0  0  2  0  0  0  0  0  0
   80.5740   48.7330   43.5720 O   0  0  0  0  0  0  0  0  0  0  0  0
   81.3840   49.8080   43.2610 C   0  0  0  0  0  0  0  0  0  0  0  0
   81.0510   50.9090   42.4740 C   0  0  0  0  0  3  0  0  0  0  0  0
   81.9770   51.9610   42.3930 C   0  0  0  0  0  0  0  0  0  0  0  0
   83.2260   51.8210   43.0610 C   0  0  0  0  0  0  0  0  0  0  0  0
   84.0710   52.8930   43.0340 C   0  0  0  0  0  0  0  0  0  0  0  0
   85.2510   52.9580   43.6990 C   0  0  0  0  0  0  0  0  0  0  0  0
   85.7280   54.2510   43.4510 C   0  0  0  0  0  0  0  0  0  0  0  0
   86.8050   54.7480   43.8700 O   0  0  0  0  0  0  0  0  0  0  0  0
   84.7890   54.9100   42.6490 C   0  0  0  0  0  0  0  0  0  0  0  0
   84.8790   56.0980   42.2390 O   0  0  0  0  0  0  0  0  0  0  0  0
   83.7530   54.0920   42.3820 N   0  0  0  0  0  0  0  0  0  0  0  0
   82.5840   54.2500   41.7110 C   0  0  0  0  0  3  0  0  0  0  0  0
   81.6720   53.1700   41.7040 C   0  0  0  0  0  3  0  0  0  0  0  0
   85.7000   47.0270   44.3000 C   0  0  0  0  0  1  0  0  0  0  0  0
   84.9700   48.1930   44.6680 O   0  0  0  0  0  0  0  0  0  0  0  0
  1  2  1  0  0  0  0
  2  3  2  0  0  0  0
  4  3  1  0  0  0  0
  5  4  2  0  0  0  0
  6  5  1  0  0  0  0
  6  1  2  0  0  0  0
  7  8  1  0  0  0  0
  7  6  1  0  0  0  0
  8  9  1  0  0  0  0
 10  9  1  0  0  0  0
 11 10  1  0  0  0  0
 12 11  1  0  0  0  0
 12  8  2  0  0  0  0
 13 12  1  0  0  0  0
 14 13  2  0  0  0  0
 14 15  1  0  0  0  0
 15  7  2  0  0  0  0
 16 15  1  0  0  0  0
 16 17  2  0  0  0  0
 17  5  1  0  0  0  0
 18 17  1  0  0  0  0
 18 19  2  0  0  0  0
 20 18  1  0  0  0  0
 21 20  2  0  0  0  0
 22 20  1  0  0  0  0
 22 16  1  0  0  0  0
 23 22  1  0  0  0  0
 24 23  2  0  0  0  0
 24 14  1  0  0  0  0
 25 26  1  0  0  0  0
 26  1  1  0  0  0  0
M  END
>  <MODEL>
1

>  <REMARK>
 VINA RESULT:    -9.926      0.000      0.000
 INTER + INTRA:         -10.619
 INTER:                 -10.475
 INTRA:                  -0.143
 UNBOUND:                -0.113
  Name = 
  2 active torsions:
  status: ('A' for Active; 'I' for Inactive)
    1  A    between atoms: C_1  and  O_2
    2  A    between atoms: O_2  and  C_3
                            x       y       z     vdW  Elec       q    Type
                         _______ _______ _______ _____ _____    ______ ____

>  <TORSDO>
F 1

$$$$
=
 OpenBabel08112514243D

 26 31  0  0  0  0  0  0  0  0999 V2000
   84.8690   55.3970   45.0160 C   0  0  0  0  0  0  0  0  0  0  0  0
   84.1790   56.3230   44.2080 C   0  0  0  0  0  3  0  0  0  0  0  0
   84.1570   56.1910   42.8240 C   0  0  0  0  0  3  0  0  0  0  0  0
   84.8520   55.1610   42.2060 C   0  0  0  0  0  3  0  0  0  0  0  0
   85.5230   54.2010   42.9760 C   0  0  0  0  0  0  0  0  0  0  0  0
   85.4540   54.2420   44.4210 C   0  0  0  0  0  0  0  0  0  0  0  0
   86.0440   53.1500   45.1800 C   0  0  0  0  0  0  0  0  0  0  0  0
   85.8570   52.8670   46.5550 C   0  0  0  0  0  0  0  0  0  0  0  0
   85.0100   53.4580   47.4760 O   0  0  0  0  0  0  0  0  0  0  0  0
   85.1550   52.8030   48.7400 C   0  0  0  0  0  2  0  0  0  0  0  0
   86.1060   51.7620   48.5060 O   0  0  0  0  0  0  0  0  0  0  0  0
   86.4900   51.8210   47.1800 C   0  0  0  0  0  0  0  0  0  0  0  0
   87.3330   50.9350   46.5110 C   0  0  0  0  0  3  0  0  0  0  0  0
   87.4890   51.0970   45.1250 C   0  0  0  0  0  0  0  0  0  0  0  0
   86.8340   52.1900   44.4910 C   0  0  0  0  0  0  0  0  0  0  0  0
   86.9340   52.2740   43.1320 C   0  0  0  0  0  0  0  0  0  0  0  0
   86.2930   53.1930   42.3690 C   0  0  0  0  0  0  0  0  0  0  0  0
   86.6220   52.8520   41.0510 C   0  0  0  0  0  0  0  0  0  0  0  0
   86.2490   53.4460   40.0060 O   0  0  0  0  0  0  0  0  0  0  0  0
   87.4450   51.7210   41.0910 C   0  0  0  0  0  0  0  0  0  0  0  0
   87.9230   51.1260   40.0890 O   0  0  0  0  0  0  0  0  0  0  0  0
   87.6490   51.3420   42.3670 N   0  0  0  0  0  0  0  0  0  0  0  0
   88.3090   50.3040   42.9410 C   0  0  0  0  0  3  0  0  0  0  0  0
   88.2400   50.1710   44.3470 C   0  0  0  0  0  3  0  0  0  0  0  0
   85.7240   56.7940   46.9200 C   0  0  0  0  0  1  0  0  0  0  0  0
   85.0520   55.6600   46.3810 O   0  0  0  0  0  0  0  0  0  0  0  0
  1 26  1  0  0  0  0
  2  1  2  0  0  0  0
  3  2  1  0  0  0  0
  4  3  2  0  0  0  0
  4  5  1  0  0  0  0
  5  6  1  0  0  0  0
  6  1  1  0  0  0  0
  6  7  2  0  0  0  0
  7  8  1  0  0  0  0
  8 12  2  0  0  0  0
  8  9  1  0  0  0  0
  9 10  1  0  0  0  0
 11 10  1  0  0  0  0
 12 11  1  0  0  0  0
 13 12  1  0  0  0  0
 14 13  2  0  0  0  0
 15 14  1  0  0  0  0
 15  7  1  0  0  0  0
 16 15  2  0  0  0  0
 17  5  2  0  0  0  0
 17 16  1  0  0  0  0
 18 20  1  0  0  0  0
 18 17  1  0  0  0  0
 19 18  2  0  0  0  0
 20 22  1  0  0  0  0
 21 20  2  0  0  0  0
 22 23  1  0  0  0  0
 22 16  1  0  0  0  0
 23 24  2  0  0  0  0
 24 14  1  0  0  0  0
 26 25  1  0  0  0  0
M  END
>  <MODEL>
2

>  <REMARK>
 VINA RESULT:    -9.687      3.996      5.973
 INTER + INTRA:         -10.366
 INTER:                 -10.217
 INTRA:                  -0.149
 UNBOUND:                -0.113
  Name = 
  2 active torsions:
  status: ('A' for Active; 'I' for Inactive)
    1  A    between atoms: C_1  and  O_2
    2  A    between atoms: O_2  and  C_3
                            x       y       z     vdW  Elec       q    Type
                         _______ _______ _______ _____ _____    ______ ____

>  <TORSDO>
F 1

$$$$
=
 OpenBabel08112514243D

 26 31  0  0  0  0  0  0  0  0999 V2000
   85.2500   54.6780   42.2110 C   0  0  0  0  0  0  0  0  0  0  0  0
   84.5400   55.8720   42.4520 C   0  0  0  0  0  3  0  0  0  0  0  0
   84.2560   56.2890   43.7470 C   0  0  0  0  0  3  0  0  0  0  0  0
   84.6340   55.5110   44.8340 C   0  0  0  0  0  3  0  0  0  0  0  0
   85.3710   54.3350   44.6370 C   0  0  0  0  0  0  0  0  0  0  0  0
   85.7900   53.9460   43.3080 C   0  0  0  0  0  0  0  0  0  0  0  0
   86.6700   52.7980   43.1610 C   0  0  0  0  0  0  0  0  0  0  0  0
   87.3960   52.4200   42.0050 C   0  0  0  0  0  0  0  0  0  0  0  0
   87.5450   53.0780   40.7960 O   0  0  0  0  0  0  0  0  0  0  0  0
   88.4050   52.3130   39.9450 C   0  0  0  0  0  2  0  0  0  0  0  0
   88.7900   51.1850   40.7330 O   0  0  0  0  0  0  0  0  0  0  0  0
   88.1790   51.2930   41.9670 C   0  0  0  0  0  0  0  0  0  0  0  0
   88.3550   50.4540   43.0660 C   0  0  0  0  0  3  0  0  0  0  0  0
   87.7420   50.8190   44.2750 C   0  0  0  0  0  0  0  0  0  0  0  0
   86.9260   51.9850   44.2990 C   0  0  0  0  0  0  0  0  0  0  0  0
   86.4120   52.3630   45.5060 C   0  0  0  0  0  0  0  0  0  0  0  0
   85.6990   53.4960   45.7170 C   0  0  0  0  0  0  0  0  0  0  0  0
   85.4530   53.5100   47.0960 C   0  0  0  0  0  0  0  0  0  0  0  0
   84.8130   54.3830   47.7360 O   0  0  0  0  0  0  0  0  0  0  0  0
   86.0520   52.3740   47.6510 C   0  0  0  0  0  0  0  0  0  0  0  0
   86.0470   52.0640   48.8720 O   0  0  0  0  0  0  0  0  0  0  0  0
   86.6560   51.6510   46.6880 N   0  0  0  0  0  0  0  0  0  0  0  0
   87.4050   50.5190   46.6970 C   0  0  0  0  0  3  0  0  0  0  0  0
   87.9600   50.0810   45.4730 C   0  0  0  0  0  3  0  0  0  0  0  0
   84.5220   54.5570   39.8100 C   0  0  0  0  0  1  0  0  0  0  0  0
   85.3460   54.1730   40.9070 O   0  0  0  0  0  0  0  0  0  0  0  0
  1  2  2  0  0  0  0
  1  6  1  0  0  0  0
  2  3  1  0  0  0  0
  3  4  2  0  0  0  0
  5  4  1  0  0  0  0
  5 17  1  0  0  0  0
  6  5  2  0  0  0  0
  7  6  1  0  0  0  0
  7 15  1  0  0  0  0
  8  7  2  0  0  0  0
  9  8  1  0  0  0  0
 10 11  1  0  0  0  0
 10  9  1  0  0  0  0
 11 12  1  0  0  0  0
 12  8  1  0  0  0  0
 12 13  2  0  0  0  0
 13 14  1  0  0  0  0
 14 15  2  0  0  0  0
 14 24  1  0  0  0  0
 15 16  1  0  0  0  0
 16 17  2  0  0  0  0
 16 22  1  0  0  0  0
 17 18  1  0  0  0  0
 18 20  1  0  0  0  0
 18 19  2  0  0  0  0
 20 21  2  0  0  0  0
 22 23  1  0  0  0  0
 22 20  1  0  0  0  0
 24 23  2  0  0  0  0
 25 26  1  0  0  0  0
 26  1  1  0  0  0  0
M  END
>  <MODEL>
3

>  <REMARK>
 VINA RESULT:    -9.637      4.055      6.331
 INTER + INTRA:         -10.313
 INTER:                 -10.183
 INTRA:                  -0.130
 UNBOUND:                -0.113
  Name = 
  2 active torsions:
  status: ('A' for Active; 'I' for Inactive)
    1  A    between atoms: C_1  and  O_2
    2  A    between atoms: O_2  and  C_3
                            x       y       z     vdW  Elec       q    Type
                         _______ _______ _______ _____ _____    ______ ____

>  <TORSDO>
F 1

$$$$
=
 OpenBabel08112514243D

 26 31  0  0  0  0  0  0  0  0999 V2000
   86.7660   52.6330   42.8280 C   0  0  0  0  0  0  0  0  0  0  0  0
   87.9870   52.0030   43.1450 C   0  0  0  0  0  3  0  0  0  0  0  0
   88.0210   50.6810   43.5740 C   0  0  0  0  0  3  0  0  0  0  0  0
   86.8430   49.9650   43.7360 C   0  0  0  0  0  3  0  0  0  0  0  0
   85.6120   50.5450   43.3990 C   0  0  0  0  0  0  0  0  0  0  0  0
   85.5600   51.8750   42.8300 C   0  0  0  0  0  0  0  0  0  0  0  0
   84.2810   52.3860   42.3640 C   0  0  0  0  0  0  0  0  0  0  0  0
   84.0610   53.5250   41.5510 C   0  0  0  0  0  0  0  0  0  0  0  0
   84.9710   54.3510   40.9160 O   0  0  0  0  0  0  0  0  0  0  0  0
   84.2650   55.3540   40.1790 C   0  0  0  0  0  2  0  0  0  0  0  0
   82.8830   55.0500   40.3790 O   0  0  0  0  0  0  0  0  0  0  0  0
   82.8010   53.9360   41.1930 C   0  0  0  0  0  0  0  0  0  0  0  0
   81.6450   53.2510   41.5640 C   0  0  0  0  0  3  0  0  0  0  0  0
   81.7930   52.0590   42.2900 C   0  0  0  0  0  0  0  0  0  0  0  0
   83.1030   51.6480   42.6620 C   0  0  0  0  0  0  0  0  0  0  0  0
   83.2230   50.4430   43.2930 C   0  0  0  0  0  0  0  0  0  0  0  0
   84.4030   49.8640   43.6260 C   0  0  0  0  0  0  0  0  0  0  0  0
   84.0490   48.6230   44.1690 C   0  0  0  0  0  0  0  0  0  0  0  0
   84.8330   47.7490   44.6210 O   0  0  0  0  0  0  0  0  0  0  0  0
   82.6550   48.5140   44.1220 C   0  0  0  0  0  0  0  0  0  0  0  0
   81.9820   47.5240   44.5140 O   0  0  0  0  0  0  0  0  0  0  0  0
   82.1220   49.6250   43.5790 N   0  0  0  0  0  0  0  0  0  0  0  0
   80.8550   49.9990   43.2640 C   0  0  0  0  0  3  0  0  0  0  0  0
   80.6730   51.2400   42.6110 C   0  0  0  0  0  3  0  0  0  0  0  0
   86.7920   55.0210   43.6070 C   0  0  0  0  0  1  0  0  0  0  0  0
   86.7330   54.0160   42.5990 O   0  0  0  0  0  0  0  0  0  0  0  0
  1  6  2  0  0  0  0
  1  2  1  0  0  0  0
  2  3  2  0  0  0  0
  3  4  1  0  0  0  0
  5 17  1  0  0  0  0
  5  4  2  0  0  0  0
  6  5  1  0  0  0  0
  7 15  1  0  0  0  0
  7  6  1  0  0  0  0
  8  7  2  0  0  0  0
  9  8  1  0  0  0  0
 10 11  1  0  0  0  0
 10  9  1  0  0  0  0
 11 12  1  0  0  0  0
 12  8  1  0  0  0  0
 12 13  2  0  0  0  0
 13 14  1  0  0  0  0
 14 24  1  0  0  0  0
 14 15  2  0  0  0  0
 15 16  1  0  0  0  0
 16 22  1  0  0  0  0
 16 17  2  0  0  0  0
 17 18  1  0  0  0  0
 18 19  2  0  0  0  0
 20 18  1  0  0  0  0
 20 21  2  0  0  0  0
 22 20  1  0  0  0  0
 23 22  1  0  0  0  0
 24 23  2  0  0  0  0
 26  1  1  0  0  0  0
 26 25  1  0  0  0  0
M  END
>  <MODEL>
4

>  <REMARK>
 VINA RESULT:    -9.562      1.759      5.183
 INTER + INTRA:         -10.233
 INTER:                 -10.127
 INTRA:                  -0.106
 UNBOUND:                -0.113
  Name = 
  2 active torsions:
  status: ('A' for Active; 'I' for Inactive)
    1  A    between atoms: C_1  and  O_2
    2  A    between atoms: O_2  and  C_3
                            x       y       z     vdW  Elec       q    Type
                         _______ _______ _______ _____ _____    ______ ____

>  <TORSDO>
F 1

$$$$
=
 OpenBabel08112514243D

 26 31  0  0  0  0  0  0  0  0999 V2000
   81.1650   48.3400   44.1550 C   0  0  0  0  0  0  0  0  0  0  0  0
   79.8540   48.7240   43.8080 C   0  0  0  0  0  3  0  0  0  0  0  0
   79.6040   49.9380   43.1780 C   0  0  0  0  0  3  0  0  0  0  0  0
   80.6450   50.8180   42.9130 C   0  0  0  0  0  3  0  0  0  0  0  0
   81.9670   50.4590   43.2120 C   0  0  0  0  0  0  0  0  0  0  0  0
   82.2660   49.1490   43.7500 C   0  0  0  0  0  0  0  0  0  0  0  0
   83.6580   48.7630   43.9140 C   0  0  0  0  0  0  0  0  0  0  0  0
   84.1610   47.4630   44.1640 C   0  0  0  0  0  0  0  0  0  0  0  0
   83.5000   46.2480   44.2020 O   0  0  0  0  0  0  0  0  0  0  0  0
   84.4440   45.2030   44.4600 C   0  0  0  0  0  2  0  0  0  0  0  0
   85.7090   45.8640   44.5330 O   0  0  0  0  0  0  0  0  0  0  0  0
   85.5010   47.2150   44.3320 C   0  0  0  0  0  0  0  0  0  0  0  0
   86.4750   48.2080   44.2340 C   0  0  0  0  0  3  0  0  0  0  0  0
   86.0580   49.5040   43.8930 C   0  0  0  0  0  0  0  0  0  0  0  0
   84.6660   49.7490   43.7300 C   0  0  0  0  0  0  0  0  0  0  0  0
   84.2970   50.9970   43.3160 C   0  0  0  0  0  0  0  0  0  0  0  0
   83.0260   51.3640   43.0200 C   0  0  0  0  0  0  0  0  0  0  0  0
   83.1330   52.6860   42.5690 C   0  0  0  0  0  0  0  0  0  0  0  0
   82.1910   53.4300   42.1920 O   0  0  0  0  0  0  0  0  0  0  0  0
   84.4850   53.0450   42.6050 C   0  0  0  0  0  0  0  0  0  0  0  0
   84.9580   54.1590   42.2570 O   0  0  0  0  0  0  0  0  0  0  0  0
   85.2250   52.0150   43.0590 N   0  0  0  0  0  0  0  0  0  0  0  0
   86.5580   51.8240   43.2320 C   0  0  0  0  0  3  0  0  0  0  0  0
   86.9960   50.5510   43.6620 C   0  0  0  0  0  3  0  0  0  0  0  0
   80.3630   46.3060   45.3900 C   0  0  0  0  0  1  0  0  0  0  0  0
   81.3730   47.2170   44.9680 O   0  0  0  0  0  0  0  0  0  0  0  0
  1 26  1  0  0  0  0
  2  1  1  0  0  0  0
  3  2  2  0  0  0  0
  4  3  1  0  0  0  0
  4  5  2  0  0  0  0
  5  6  1  0  0  0  0
  6  7  1  0  0  0  0
  6  1  2  0  0  0  0
  7  8  1  0  0  0  0
  8  9  1  0  0  0  0
  8 12  2  0  0  0  0
  9 10  1  0  0  0  0
 10 11  1  0  0  0  0
 12 11  1  0  0  0  0
 13 12  1  0  0  0  0
 14 13  2  0  0  0  0
 15 14  1  0  0  0  0
 15  7  2  0  0  0  0
 16 15  1  0  0  0  0
 17  5  1  0  0  0  0
 17 16  2  0  0  0  0
 18 20  1  0  0  0  0
 18 17  1  0  0  0  0
 19 18  2  0  0  0  0
 20 22  1  0  0  0  0
 21 20  2  0  0  0  0
 22 23  1  0  0  0  0
 22 16  1  0  0  0  0
 23 24  2  0  0  0  0
 24 14  1  0  0  0  0
 26 25  1  0  0  0  0
M  END
>  <MODEL>
5

>  <REMARK>
 VINA RESULT:    -9.431      1.704      4.596
 INTER + INTRA:         -10.095
 INTER:                 -10.013
 INTRA:                  -0.082
 UNBOUND:                -0.113
  Name = 
  2 active torsions:
  status: ('A' for Active; 'I' for Inactive)
    1  A    between atoms: C_1  and  O_2
    2  A    between atoms: O_2  and  C_3
                            x       y       z     vdW  Elec       q    Type
                         _______ _______ _______ _____ _____    ______ ____

>  <TORSDO>
F 1

$$$$
=
 OpenBabel08112514243D

 26 31  0  0  0  0  0  0  0  0999 V2000
   87.9750   51.7510   41.9600 C   0  0  0  0  0  0  0  0  0  0  0  0
   88.7260   50.5610   41.8650 C   0  0  0  0  0  3  0  0  0  0  0  0
   88.8790   49.7200   42.9610 C   0  0  0  0  0  3  0  0  0  0  0  0
   88.3260   50.0580   44.1880 C   0  0  0  0  0  3  0  0  0  0  0  0
   87.5450   51.2150   44.3150 C   0  0  0  0  0  0  0  0  0  0  0  0
   87.2630   52.0400   43.1600 C   0  0  0  0  0  0  0  0  0  0  0  0
   86.3360   53.1510   43.3030 C   0  0  0  0  0  0  0  0  0  0  0  0
   85.7300   53.8990   42.2640 C   0  0  0  0  0  0  0  0  0  0  0  0
   85.7690   53.7060   40.8940 O   0  0  0  0  0  0  0  0  0  0  0  0
   84.9700   54.7070   40.2540 C   0  0  0  0  0  2  0  0  0  0  0  0
   84.4230   55.4790   41.3250 O   0  0  0  0  0  0  0  0  0  0  0  0
   84.8880   54.9530   42.5150 C   0  0  0  0  0  0  0  0  0  0  0  0
   84.5290   55.3480   43.8030 C   0  0  0  0  0  3  0  0  0  0  0  0
   85.0160   54.5910   44.8810 C   0  0  0  0  0  0  0  0  0  0  0  0
   85.8950   53.5060   44.6070 C   0  0  0  0  0  0  0  0  0  0  0  0
   86.2840   52.7370   45.6660 C   0  0  0  0  0  0  0  0  0  0  0  0
   87.0370   51.6140   45.5640 C   0  0  0  0  0  0  0  0  0  0  0  0
   87.1170   51.1200   46.8720 C   0  0  0  0  0  0  0  0  0  0  0  0
   87.7300   50.0890   47.2500 O   0  0  0  0  0  0  0  0  0  0  0  0
   86.3850   51.9770   47.7020 C   0  0  0  0  0  0  0  0  0  0  0  0
   86.2250   51.8370   48.9430 O   0  0  0  0  0  0  0  0  0  0  0  0
   85.8560   52.9830   46.9780 N   0  0  0  0  0  0  0  0  0  0  0  0
   85.0410   54.0250   47.2780 C   0  0  0  0  0  3  0  0  0  0  0  0
   84.6090   54.8560   46.2190 C   0  0  0  0  0  3  0  0  0  0  0  0
   88.8900   52.6420   39.7970 C   0  0  0  0  0  1  0  0  0  0  0  0
   88.0040   52.6810   40.9120 O   0  0  0  0  0  0  0  0  0  0  0  0
  1  6  1  0  0  0  0
  2  1  2  0  0  0  0
  2  3  1  0  0  0  0
  3  4  2  0  0  0  0
  4  5  1  0  0  0  0
  5 17  1  0  0  0  0
  6  7  1  0  0  0  0
  6  5  2  0  0  0  0
  7 15  1  0  0  0  0
  8 12  1  0  0  0  0
  8  7  2  0  0  0  0
  9  8  1  0  0  0  0
 10  9  1  0  0  0  0
 10 11  1  0  0  0  0
 11 12  1  0  0  0  0
 12 13  2  0  0  0  0
 13 14  1  0  0  0  0
 14 24  1  0  0  0  0
 15 14  2  0  0  0  0
 15 16  1  0  0  0  0
 16 22  1  0  0  0  0
 17 16  2  0  0  0  0
 17 18  1  0  0  0  0
 18 19  2  0  0  0  0
 18 20  1  0  0  0  0
 20 21  2  0  0  0  0
 22 23  1  0  0  0  0
 22 20  1  0  0  0  0
 24 23  2  0  0  0  0
 25 26  1  0  0  0  0
 26  1  1  0  0  0  0
M  END
>  <MODEL>
6

>  <REMARK>
 VINA RESULT:    -9.344      3.928      5.534
 INTER + INTRA:         -10.003
 INTER:                  -9.883
 INTRA:                  -0.120
 UNBOUND:                -0.113
  Name = 
  2 active torsions:
  status: ('A' for Active; 'I' for Inactive)
    1  A    between atoms: C_1  and  O_2
    2  A    between atoms: O_2  and  C_3
                            x       y       z     vdW  Elec       q    Type
                         _______ _______ _______ _____ _____    ______ ____

>  <TORSDO>
F 1

$$$$
=
 OpenBabel08112514243D

 26 31  0  0  0  0  0  0  0  0999 V2000
   88.5820   47.2530   42.4460 C   0  0  0  0  0  0  0  0  0  0  0  0
   89.9600   47.3160   42.1560 C   0  0  0  0  0  3  0  0  0  0  0  0
   90.6160   48.5370   42.0470 C   0  0  0  0  0  3  0  0  0  0  0  0
   89.9120   49.7260   42.1850 C   0  0  0  0  0  3  0  0  0  0  0  0
   88.5470   49.7050   42.5070 C   0  0  0  0  0  0  0  0  0  0  0  0
   87.8710   48.4490   42.7510 C   0  0  0  0  0  0  0  0  0  0  0  0
   86.4950   48.4760   43.2190 C   0  0  0  0  0  0  0  0  0  0  0  0
   85.7550   47.3970   43.7620 C   0  0  0  0  0  0  0  0  0  0  0  0
   86.1630   46.1150   44.0840 O   0  0  0  0  0  0  0  0  0  0  0  0
   85.0590   45.3930   44.6380 C   0  0  0  0  0  2  0  0  0  0  0  0
   83.9830   46.3330   44.6640 O   0  0  0  0  0  0  0  0  0  0  0  0
   84.4440   47.5290   44.1470 C   0  0  0  0  0  0  0  0  0  0  0  0
   83.7470   48.7340   44.0730 C   0  0  0  0  0  3  0  0  0  0  0  0
   84.4470   49.8700   43.6350 C   0  0  0  0  0  0  0  0  0  0  0  0
   85.8030   49.7180   43.2310 C   0  0  0  0  0  0  0  0  0  0  0  0
   86.4820   50.8530   42.8900 C   0  0  0  0  0  0  0  0  0  0  0  0
   87.8010   50.8940   42.5770 C   0  0  0  0  0  0  0  0  0  0  0  0
   88.0760   52.2530   42.3800 C   0  0  0  0  0  0  0  0  0  0  0  0
   89.1850   52.7570   42.0640 O   0  0  0  0  0  0  0  0  0  0  0  0
   86.8950   52.9690   42.6010 C   0  0  0  0  0  0  0  0  0  0  0  0
   86.7700   54.2200   42.5260 O   0  0  0  0  0  0  0  0  0  0  0  0
   85.8950   52.1250   42.9220 N   0  0  0  0  0  0  0  0  0  0  0  0
   84.5970   52.3020   43.2750 C   0  0  0  0  0  3  0  0  0  0  0  0
   83.8450   51.1600   43.6360 C   0  0  0  0  0  3  0  0  0  0  0  0
   88.4800   44.7450   42.5560 C   0  0  0  0  0  1  0  0  0  0  0  0
   87.9020   46.0300   42.3470 O   0  0  0  0  0  0  0  0  0  0  0  0
  1  6  1  0  0  0  0
  2  1  2  0  0  0  0
  3  2  1  0  0  0  0
  3  4  2  0  0  0  0
  4  5  1  0  0  0  0
  5 17  2  0  0  0  0
  5  6  1  0  0  0  0
  6  7  2  0  0  0  0
  7 15  1  0  0  0  0
  7  8  1  0  0  0  0
  8  9  1  0  0  0  0
  8 12  2  0  0  0  0
  9 10  1  0  0  0  0
 10 11  1  0  0  0  0
 12 11  1  0  0  0  0
 13 12  1  0  0  0  0
 14 24  1  0  0  0  0
 14 13  2  0  0  0  0
 15 14  1  0  0  0  0
 16 22  1  0  0  0  0
 16 15  2  0  0  0  0
 17 16  1  0  0  0  0
 18 17  1  0  0  0  0
 18 20  1  0  0  0  0
 19 18  2  0  0  0  0
 20 22  1  0  0  0  0
 21 20  2  0  0  0  0
 22 23  1  0  0  0  0
 23 24  2  0  0  0  0
 26  1  1  0  0  0  0
 26 25  1  0  0  0  0
M  END
>  <MODEL>
7

>  <REMARK>
 VINA RESULT:    -9.219      2.882      3.915
 INTER + INTRA:          -9.871
 INTER:                  -9.940
 INTRA:                   0.070
 UNBOUND:                -0.113
  Name = 
  2 active torsions:
  status: ('A' for Active; 'I' for Inactive)
    1  A    between atoms: C_1  and  O_2
    2  A    between atoms: O_2  and  C_3
                            x       y       z     vdW  Elec       q    Type
                         _______ _______ _______ _____ _____    ______ ____

>  <TORSDO>
F 1

$$$$
=
 OpenBabel08112514243D

 26 31  0  0  0  0  0  0  0  0999 V2000
   85.8040   52.4840   47.7500 C   0  0  0  0  0  0  0  0  0  0  0  0
   86.4550   51.5480   48.5790 C   0  0  0  0  0  3  0  0  0  0  0  0
   87.2610   50.5510   48.0420 C   0  0  0  0  0  3  0  0  0  0  0  0
   87.4090   50.4340   46.6660 C   0  0  0  0  0  3  0  0  0  0  0  0
   86.8050   51.3650   45.8100 C   0  0  0  0  0  0  0  0  0  0  0  0
   86.0670   52.4870   46.3490 C   0  0  0  0  0  0  0  0  0  0  0  0
   85.5770   53.5060   45.4350 C   0  0  0  0  0  0  0  0  0  0  0  0
   85.0780   54.7880   45.7720 C   0  0  0  0  0  0  0  0  0  0  0  0
   85.0330   55.4290   46.9980 O   0  0  0  0  0  0  0  0  0  0  0  0
   84.4660   56.7320   46.8300 C   0  0  0  0  0  2  0  0  0  0  0  0
   84.2140   56.8430   45.4280 O   0  0  0  0  0  0  0  0  0  0  0  0
   84.6110   55.6640   44.8250 C   0  0  0  0  0  0  0  0  0  0  0  0
   84.6230   55.3840   43.4590 C   0  0  0  0  0  3  0  0  0  0  0  0
   85.1930   54.1700   43.0440 C   0  0  0  0  0  0  0  0  0  0  0  0
   85.6660   53.2670   44.0370 C   0  0  0  0  0  0  0  0  0  0  0  0
   86.2910   52.1330   43.6020 C   0  0  0  0  0  0  0  0  0  0  0  0
   86.8820   51.2220   44.4130 C   0  0  0  0  0  0  0  0  0  0  0  0
   87.4530   50.2870   43.5400 C   0  0  0  0  0  0  0  0  0  0  0  0
   88.1010   49.2570   43.8610 O   0  0  0  0  0  0  0  0  0  0  0  0
   87.1840   50.6990   42.2310 C   0  0  0  0  0  0  0  0  0  0  0  0
   87.5570   50.1070   41.1830 O   0  0  0  0  0  0  0  0  0  0  0  0
   86.4700   51.8420   42.2420 N   0  0  0  0  0  0  0  0  0  0  0  0
   86.0060   52.6670   41.2690 C   0  0  0  0  0  3  0  0  0  0  0  0
   85.3490   53.8540   41.6640 C   0  0  0  0  0  3  0  0  0  0  0  0
   83.8090   52.9650   49.1970 C   0  0  0  0  0  1  0  0  0  0  0  0
   84.8390   53.3460   48.2910 O   0  0  0  0  0  0  0  0  0  0  0  0
  1 26  1  0  0  0  0
  1  2  1  0  0  0  0
  3  2  2  0  0  0  0
  4  3  1  0  0  0  0
  5  6  1  0  0  0  0
  5  4  2  0  0  0  0
  6  1  2  0  0  0  0
  7  8  1  0  0  0  0
  7  6  1  0  0  0  0
  8  9  1  0  0  0  0
 10  9  1  0  0  0  0
 11 10  1  0  0  0  0
 12 11  1  0  0  0  0
 12  8  2  0  0  0  0
 13 12  1  0  0  0  0
 14 13  2  0  0  0  0
 14 15  1  0  0  0  0
 15  7  2  0  0  0  0
 16 15  1  0  0  0  0
 16 17  2  0  0  0  0
 17  5  1  0  0  0  0
 18 19  2  0  0  0  0
 18 17  1  0  0  0  0
 20 22  1  0  0  0  0
 20 18  1  0  0  0  0
 21 20  2  0  0  0  0
 22 16  1  0  0  0  0
 23 24  2  0  0  0  0
 23 22  1  0  0  0  0
 24 14  1  0  0  0  0
 26 25  1  0  0  0  0
M  END
>  <MODEL>
8

>  <REMARK>
 VINA RESULT:    -9.211      3.645      5.250
 INTER + INTRA:          -9.862
 INTER:                  -9.717
 INTRA:                  -0.145
 UNBOUND:                -0.113
  Name = 
  2 active torsions:
  status: ('A' for Active; 'I' for Inactive)
    1  A    between atoms: C_1  and  O_2
    2  A    between atoms: O_2  and  C_3
                            x       y       z     vdW  Elec       q    Type
                         _______ _______ _______ _____ _____    ______ ____

>  <TORSDO>
F 1

$$$$
=
 OpenBabel08112514243D

 26 31  0  0  0  0  0  0  0  0999 V2000
   82.9780   53.9310   42.4220 C   0  0  0  0  0  0  0  0  0  0  0  0
   81.9010   53.4090   41.6760 C   0  0  0  0  0  3  0  0  0  0  0  0
   81.5820   52.0570   41.7250 C   0  0  0  0  0  3  0  0  0  0  0  0
   82.3470   51.1830   42.4850 C   0  0  0  0  0  3  0  0  0  0  0  0
   83.4050   51.6680   43.2670 C   0  0  0  0  0  0  0  0  0  0  0  0
   83.6770   53.0880   43.3320 C   0  0  0  0  0  0  0  0  0  0  0  0
   84.6900   53.5630   44.2620 C   0  0  0  0  0  0  0  0  0  0  0  0
   84.9170   54.9010   44.6680 C   0  0  0  0  0  0  0  0  0  0  0  0
   84.1940   56.0480   44.3890 O   0  0  0  0  0  0  0  0  0  0  0  0
   84.8000   57.1610   45.0540 C   0  0  0  0  0  2  0  0  0  0  0  0
   85.8990   56.6020   45.7750 O   0  0  0  0  0  0  0  0  0  0  0  0
   85.9260   55.2420   45.5330 C   0  0  0  0  0  0  0  0  0  0  0  0
   86.7810   54.3040   46.1100 C   0  0  0  0  0  3  0  0  0  0  0  0
   86.5530   52.9480   45.8280 C   0  0  0  0  0  0  0  0  0  0  0  0
   85.5090   52.6080   44.9230 C   0  0  0  0  0  0  0  0  0  0  0  0
   85.2560   51.2800   44.7340 C   0  0  0  0  0  0  0  0  0  0  0  0
   84.2380   50.7910   43.9840 C   0  0  0  0  0  0  0  0  0  0  0  0
   84.3170   49.4010   44.1410 C   0  0  0  0  0  0  0  0  0  0  0  0
   83.5650   48.5420   43.6130 O   0  0  0  0  0  0  0  0  0  0  0  0
   85.3850   49.1250   45.0010 C   0  0  0  0  0  0  0  0  0  0  0  0
   85.7450   47.9780   45.3800 O   0  0  0  0  0  0  0  0  0  0  0  0
   85.9790   50.2710   45.3850 N   0  0  0  0  0  0  0  0  0  0  0  0
   87.0000   50.5590   46.2320 C   0  0  0  0  0  3  0  0  0  0  0  0
   87.3060   51.9200   46.4630 C   0  0  0  0  0  3  0  0  0  0  0  0
   84.1700   55.6880   41.0800 C   0  0  0  0  0  1  0  0  0  0  0  0
   83.4090   55.2470   42.2000 O   0  0  0  0  0  0  0  0  0  0  0  0
  1  6  1  0  0  0  0
  2  3  1  0  0  0  0
  2  1  2  0  0  0  0
  3  4  2  0  0  0  0
  4  5  1  0  0  0  0
  5  6  2  0  0  0  0
  5 17  1  0  0  0  0
  6  7  1  0  0  0  0
  7  8  2  0  0  0  0
  7 15  1  0  0  0  0
  8 12  1  0  0  0  0
  9  8  1  0  0  0  0
  9 10  1  0  0  0  0
 10 11  1  0  0  0  0
 12 11  1  0  0  0  0
 12 13  2  0  0  0  0
 14 13  1  0  0  0  0
 14 24  1  0  0  0  0
 15 14  2  0  0  0  0
 16 15  1  0  0  0  0
 16 22  1  0  0  0  0
 17 18  1  0  0  0  0
 17 16  2  0  0  0  0
 18 20  1  0  0  0  0
 19 18  2  0  0  0  0
 20 21  2  0  0  0  0
 20 22  1  0  0  0  0
 22 23  1  0  0  0  0
 23 24  2  0  0  0  0
 25 26  1  0  0  0  0
 26  1  1  0  0  0  0
M  END
>  <MODEL>
9

>  <REMARK>
 VINA RESULT:    -8.971      1.867      6.570
 INTER + INTRA:          -9.608
 INTER:                  -9.495
 INTRA:                  -0.113
 UNBOUND:                -0.113
  Name = 
  2 active torsions:
  status: ('A' for Active; 'I' for Inactive)
    1  A    between atoms: C_1  and  O_2
    2  A    between atoms: O_2  and  C_3
                            x       y       z     vdW  Elec       q    Type
                         _______ _______ _______ _____ _____    ______ ____

>  <TORSDO>
F 1

$$$$
