=
 OpenBabel09092515023D

 26 31  0  0  0  0  0  0  0  0999 V2000
   85.6000   49.5840   44.5890 C   0  0  0  0  0  0  0  0  0  0  0  0
   86.8000   49.7100   45.3180 C   0  0  0  0  0  3  0  0  0  0  0  0
   87.4570   50.9310   45.4140 C   0  0  0  0  0  3  0  0  0  0  0  0
   86.9610   52.0480   44.7560 C   0  0  0  0  0  3  0  0  0  0  0  0
   85.7530   51.9720   44.0490 C   0  0  0  0  0  0  0  0  0  0  0  0
   84.9850   50.7460   44.0410 C   0  0  0  0  0  0  0  0  0  0  0  0
   83.6720   50.7480   43.4160 C   0  0  0  0  0  0  0  0  0  0  0  0
   82.6680   49.7550   43.5300 C   0  0  0  0  0  0  0  0  0  0  0  0
   82.6280   48.6220   44.3250 O   0  0  0  0  0  0  0  0  0  0  0  0
   81.3860   47.9430   44.1160 C   0  0  0  0  0  2  0  0  0  0  0  0
   80.6750   48.7590   43.1820 O   0  0  0  0  0  0  0  0  0  0  0  0
   81.4690   49.8450   42.8690 C   0  0  0  0  0  0  0  0  0  0  0  0
   81.1250   50.9320   42.0660 C   0  0  0  0  0  3  0  0  0  0  0  0
   82.0320   52.0000   41.9830 C   0  0  0  0  0  0  0  0  0  0  0  0
   83.2760   51.8900   42.6670 C   0  0  0  0  0  0  0  0  0  0  0  0
   84.1010   52.9770   42.6380 C   0  0  0  0  0  0  0  0  0  0  0  0
   85.2720   53.0710   43.3150 C   0  0  0  0  0  0  0  0  0  0  0  0
   85.7280   54.3700   43.0580 C   0  0  0  0  0  0  0  0  0  0  0  0
   86.7900   54.8920   43.4840 O   0  0  0  0  0  0  0  0  0  0  0  0
   84.7870   55.0030   42.2390 C   0  0  0  0  0  0  0  0  0  0  0  0
   84.8590   56.1870   41.8160 O   0  0  0  0  0  0  0  0  0  0  0  0
   83.7690   54.1630   41.9690 N   0  0  0  0  0  0  0  0  0  0  0  0
   82.6040   54.2920   41.2830 C   0  0  0  0  0  3  0  0  0  0  0  0
   81.7120   53.1950   41.2780 C   0  0  0  0  0  3  0  0  0  0  0  0
   85.7690   47.2310   43.7280 C   0  0  0  0  0  1  0  0  0  0  0  0
   85.0670   48.3130   44.3330 O   0  0  0  0  0  0  0  0  0  0  0  0
  1  2  1  0  0  0  0
  2  3  2  0  0  0  0
  4  3  1  0  0  0  0
  5  4  2  0  0  0  0
  6  5  1  0  0  0  0
  6  1  2  0  0  0  0
  7  8  1  0  0  0  0
  7  6  1  0  0  0  0
  8  9  1  0  0  0  0
 10  9  1  0  0  0  0
 11 10  1  0  0  0  0
 12 11  1  0  0  0  0
 12  8  2  0  0  0  0
 13 12  1  0  0  0  0
 14 13  2  0  0  0  0
 14 15  1  0  0  0  0
 15  7  2  0  0  0  0
 16 15  1  0  0  0  0
 16 17  2  0  0  0  0
 17  5  1  0  0  0  0
 18 17  1  0  0  0  0
 18 19  2  0  0  0  0
 20 18  1  0  0  0  0
 21 20  2  0  0  0  0
 22 20  1  0  0  0  0
 22 16  1  0  0  0  0
 23 22  1  0  0  0  0
 24 23  2  0  0  0  0
 24 14  1  0  0  0  0
 25 26  1  0  0  0  0
 26  1  1  0  0  0  0
M  END
>  <MODEL>
1

>  <REMARK>
 VINA RESULT:   -10.005      0.000      0.000
 INTER + INTRA:         -10.670
 INTER:                 -10.519
 INTRA:                  -0.151
 UNBOUND:                -0.080
  Name = 
  2 active torsions:
  status: ('A' for Active; 'I' for Inactive)
    1  A    between atoms: C_1  and  O_2
    2  A    between atoms: O_2  and  C_3
                            x       y       z     vdW  Elec       q    Type
                         _______ _______ _______ _____ _____    ______ ____

>  <TORSDO>
F 1

$$$$
=
 OpenBabel09092515023D

 26 31  0  0  0  0  0  0  0  0999 V2000
   85.2040   54.6650   41.8010 C   0  0  0  0  0  0  0  0  0  0  0  0
   84.4750   55.8210   42.1440 C   0  0  0  0  0  3  0  0  0  0  0  0
   84.2440   56.1570   43.4730 C   0  0  0  0  0  3  0  0  0  0  0  0
   84.6970   55.3320   44.4940 C   0  0  0  0  0  3  0  0  0  0  0  0
   85.4550   54.1910   44.1960 C   0  0  0  0  0  0  0  0  0  0  0  0
   85.8180   53.8890   42.8280 C   0  0  0  0  0  0  0  0  0  0  0  0
   86.7210   52.7780   42.5730 C   0  0  0  0  0  0  0  0  0  0  0  0
   87.3990   52.4870   41.3640 C   0  0  0  0  0  0  0  0  0  0  0  0
   87.4690   53.2150   40.1890 O   0  0  0  0  0  0  0  0  0  0  0  0
   88.3060   52.5250   39.2550 C   0  0  0  0  0  2  0  0  0  0  0  0
   88.7600   51.3670   39.9580 O   0  0  0  0  0  0  0  0  0  0  0  0
   88.2090   51.3880   41.2250 C   0  0  0  0  0  0  0  0  0  0  0  0
   88.4620   50.4950   42.2650 C   0  0  0  0  0  3  0  0  0  0  0  0
   87.9000   50.7740   43.5210 C   0  0  0  0  0  0  0  0  0  0  0  0
   87.0550   51.9120   43.6490 C   0  0  0  0  0  0  0  0  0  0  0  0
   86.5920   52.2060   44.9000 C   0  0  0  0  0  0  0  0  0  0  0  0
   85.8600   53.3040   45.2090 C   0  0  0  0  0  0  0  0  0  0  0  0
   85.6830   53.2340   46.5960 C   0  0  0  0  0  0  0  0  0  0  0  0
   85.0520   54.0510   47.3160 O   0  0  0  0  0  0  0  0  0  0  0  0
   86.3390   52.0880   47.0570 C   0  0  0  0  0  0  0  0  0  0  0  0
   86.4040   51.7110   48.2570 O   0  0  0  0  0  0  0  0  0  0  0  0
   86.9140   51.4370   46.0260 N   0  0  0  0  0  0  0  0  0  0  0  0
   87.6930   50.3300   45.9350 C   0  0  0  0  0  3  0  0  0  0  0  0
   88.1990   49.9770   44.6630 C   0  0  0  0  0  3  0  0  0  0  0  0
   84.4570   54.7590   39.4050 C   0  0  0  0  0  1  0  0  0  0  0  0
   85.2490   54.2350   40.4670 O   0  0  0  0  0  0  0  0  0  0  0  0
  1  2  2  0  0  0  0
  1  6  1  0  0  0  0
  2  3  1  0  0  0  0
  3  4  2  0  0  0  0
  5  4  1  0  0  0  0
  5 17  1  0  0  0  0
  6  5  2  0  0  0  0
  7  6  1  0  0  0  0
  7 15  1  0  0  0  0
  8  7  2  0  0  0  0
  9  8  1  0  0  0  0
 10 11  1  0  0  0  0
 10  9  1  0  0  0  0
 11 12  1  0  0  0  0
 12  8  1  0  0  0  0
 12 13  2  0  0  0  0
 13 14  1  0  0  0  0
 14 15  2  0  0  0  0
 14 24  1  0  0  0  0
 15 16  1  0  0  0  0
 16 17  2  0  0  0  0
 16 22  1  0  0  0  0
 17 18  1  0  0  0  0
 18 20  1  0  0  0  0
 18 19  2  0  0  0  0
 20 21  2  0  0  0  0
 22 20  1  0  0  0  0
 23 22  1  0  0  0  0
 24 23  2  0  0  0  0
 25 26  1  0  0  0  0
 26  1  1  0  0  0  0
M  END
>  <MODEL>
2

>  <REMARK>
 VINA RESULT:    -9.797      3.969      6.321
 INTER + INTRA:         -10.449
 INTER:                 -10.329
 INTRA:                  -0.120
 UNBOUND:                -0.080
  Name = 
  2 active torsions:
  status: ('A' for Active; 'I' for Inactive)
    1  A    between atoms: C_1  and  O_2
    2  A    between atoms: O_2  and  C_3
                            x       y       z     vdW  Elec       q    Type
                         _______ _______ _______ _____ _____    ______ ____

>  <TORSDO>
F 1

$$$$
=
 OpenBabel09092515023D

 26 31  0  0  0  0  0  0  0  0999 V2000
   84.8340   55.4280   44.7120 C   0  0  0  0  0  0  0  0  0  0  0  0
   84.1700   56.3000   43.8250 C   0  0  0  0  0  3  0  0  0  0  0  0
   84.2040   56.0900   42.4510 C   0  0  0  0  0  3  0  0  0  0  0  0
   84.9310   55.0320   41.9210 C   0  0  0  0  0  3  0  0  0  0  0  0
   85.5770   54.1240   42.7710 C   0  0  0  0  0  0  0  0  0  0  0  0
   85.4510   54.2460   44.2080 C   0  0  0  0  0  0  0  0  0  0  0  0
   86.0170   53.2060   45.0500 C   0  0  0  0  0  0  0  0  0  0  0  0
   85.7780   52.9990   46.4310 C   0  0  0  0  0  0  0  0  0  0  0  0
   84.8910   53.6340   47.2830 O   0  0  0  0  0  0  0  0  0  0  0  0
   84.9900   53.0530   48.5870 C   0  0  0  0  0  2  0  0  0  0  0  0
   85.9560   52.0100   48.4500 O   0  0  0  0  0  0  0  0  0  0  0  0
   86.3930   51.9970   47.1390 C   0  0  0  0  0  0  0  0  0  0  0  0
   87.2680   51.0810   46.5560 C   0  0  0  0  0  3  0  0  0  0  0  0
   87.4780   51.1660   45.1700 C   0  0  0  0  0  0  0  0  0  0  0  0
   86.8410   52.2150   44.4490 C   0  0  0  0  0  0  0  0  0  0  0  0
   86.9950   52.2220   43.0920 C   0  0  0  0  0  0  0  0  0  0  0  0
   86.3780   53.0900   42.2540 C   0  0  0  0  0  0  0  0  0  0  0  0
   86.7610   52.6780   40.9710 C   0  0  0  0  0  0  0  0  0  0  0  0
   86.4260   53.2070   39.8800 O   0  0  0  0  0  0  0  0  0  0  0  0
   87.5900   51.5590   41.1080 C   0  0  0  0  0  0  0  0  0  0  0  0
   88.1120   50.9120   40.1610 O   0  0  0  0  0  0  0  0  0  0  0  0
   87.7450   51.2540   42.4110 N   0  0  0  0  0  0  0  0  0  0  0  0
   88.3890   50.2570   43.0700 C   0  0  0  0  0  3  0  0  0  0  0  0
   88.2650   50.2040   44.4770 C   0  0  0  0  0  3  0  0  0  0  0  0
   85.6690   56.8990   46.5680 C   0  0  0  0  0  1  0  0  0  0  0  0
   84.9610   55.7700   46.0660 O   0  0  0  0  0  0  0  0  0  0  0  0
  1 26  1  0  0  0  0
  2  1  2  0  0  0  0
  3  2  1  0  0  0  0
  4  3  2  0  0  0  0
  4  5  1  0  0  0  0
  5  6  1  0  0  0  0
  6  1  1  0  0  0  0
  6  7  2  0  0  0  0
  7  8  1  0  0  0  0
  8 12  2  0  0  0  0
  8  9  1  0  0  0  0
  9 10  1  0  0  0  0
 11 10  1  0  0  0  0
 12 11  1  0  0  0  0
 13 12  1  0  0  0  0
 14 13  2  0  0  0  0
 15  7  1  0  0  0  0
 15 14  1  0  0  0  0
 16 15  2  0  0  0  0
 17  5  2  0  0  0  0
 17 16  1  0  0  0  0
 18 20  1  0  0  0  0
 18 17  1  0  0  0  0
 19 18  2  0  0  0  0
 20 22  1  0  0  0  0
 21 20  2  0  0  0  0
 22 23  1  0  0  0  0
 22 16  1  0  0  0  0
 23 24  2  0  0  0  0
 24 14  1  0  0  0  0
 26 25  1  0  0  0  0
M  END
>  <MODEL>
3

>  <REMARK>
 VINA RESULT:    -9.700      4.000      6.011
 INTER + INTRA:         -10.347
 INTER:                 -10.198
 INTRA:                  -0.148
 UNBOUND:                -0.080
  Name = 
  2 active torsions:
  status: ('A' for Active; 'I' for Inactive)
    1  A    between atoms: C_1  and  O_2
    2  A    between atoms: O_2  and  C_3
                            x       y       z     vdW  Elec       q    Type
                         _______ _______ _______ _____ _____    ______ ____

>  <TORSDO>
F 1

$$$$
=
 OpenBabel09092515023D

 26 31  0  0  0  0  0  0  0  0999 V2000
   86.9580   52.5650   42.5810 C   0  0  0  0  0  0  0  0  0  0  0  0
   88.2220   52.0020   42.8510 C   0  0  0  0  0  3  0  0  0  0  0  0
   88.3490   50.6710   43.2290 C   0  0  0  0  0  3  0  0  0  0  0  0
   87.2220   49.8760   43.3880 C   0  0  0  0  0  3  0  0  0  0  0  0
   85.9500   50.3890   43.0970 C   0  0  0  0  0  0  0  0  0  0  0  0
   85.8020   51.7320   42.5790 C   0  0  0  0  0  0  0  0  0  0  0  0
   84.4840   52.1770   42.1570 C   0  0  0  0  0  0  0  0  0  0  0  0
   84.1750   53.3280   41.3910 C   0  0  0  0  0  0  0  0  0  0  0  0
   85.0180   54.2330   40.7700 O   0  0  0  0  0  0  0  0  0  0  0  0
   84.2340   55.2150   40.0840 C   0  0  0  0  0  2  0  0  0  0  0  0
   82.8780   54.8170   40.3000 O   0  0  0  0  0  0  0  0  0  0  0  0
   82.8840   53.6710   41.0730 C   0  0  0  0  0  0  0  0  0  0  0  0
   81.7810   52.9030   41.4410 C   0  0  0  0  0  3  0  0  0  0  0  0
   82.0190   51.6970   42.1200 C   0  0  0  0  0  0  0  0  0  0  0  0
   83.3610   51.3570   42.4500 C   0  0  0  0  0  0  0  0  0  0  0  0
   83.5700   50.1400   43.0340 C   0  0  0  0  0  0  0  0  0  0  0  0
   84.7910   49.6250   43.3220 C   0  0  0  0  0  0  0  0  0  0  0  0
   84.5270   48.3460   43.8270 C   0  0  0  0  0  0  0  0  0  0  0  0
   85.3740   47.5080   44.2300 O   0  0  0  0  0  0  0  0  0  0  0  0
   83.1420   48.1500   43.8030 C   0  0  0  0  0  0  0  0  0  0  0  0
   82.5410   47.1060   44.1710 O   0  0  0  0  0  0  0  0  0  0  0  0
   82.5280   49.2450   43.3120 N   0  0  0  0  0  0  0  0  0  0  0  0
   81.2340   49.5490   43.0360 C   0  0  0  0  0  3  0  0  0  0  0  0
   80.9610   50.7980   42.4330 C   0  0  0  0  0  3  0  0  0  0  0  0
   86.7820   54.9150   43.4510 C   0  0  0  0  0  1  0  0  0  0  0  0
   86.8330   53.9500   42.4040 O   0  0  0  0  0  0  0  0  0  0  0  0
  1  2  1  0  0  0  0
  2  3  2  0  0  0  0
  3  4  1  0  0  0  0
  5 17  1  0  0  0  0
  5  4  2  0  0  0  0
  6  1  2  0  0  0  0
  6  5  1  0  0  0  0
  7 15  1  0  0  0  0
  7  6  1  0  0  0  0
  8  7  2  0  0  0  0
  9  8  1  0  0  0  0
 10 11  1  0  0  0  0
 10  9  1  0  0  0  0
 11 12  1  0  0  0  0
 12  8  1  0  0  0  0
 12 13  2  0  0  0  0
 13 14  1  0  0  0  0
 14 24  1  0  0  0  0
 14 15  2  0  0  0  0
 15 16  1  0  0  0  0
 16 22  1  0  0  0  0
 16 17  2  0  0  0  0
 17 18  1  0  0  0  0
 18 19  2  0  0  0  0
 20 18  1  0  0  0  0
 20 21  2  0  0  0  0
 22 20  1  0  0  0  0
 23 22  1  0  0  0  0
 24 23  2  0  0  0  0
 26  1  1  0  0  0  0
 26 25  1  0  0  0  0
M  END
>  <MODEL>
4

>  <REMARK>
 VINA RESULT:    -9.690      1.829      5.175
 INTER + INTRA:         -10.336
 INTER:                 -10.258
 INTRA:                  -0.078
 UNBOUND:                -0.080
  Name = 
  2 active torsions:
  status: ('A' for Active; 'I' for Inactive)
    1  A    between atoms: C_1  and  O_2
    2  A    between atoms: O_2  and  C_3
                            x       y       z     vdW  Elec       q    Type
                         _______ _______ _______ _____ _____    ______ ____

>  <TORSDO>
F 1

$$$$
=
 OpenBabel09092515023D

 26 31  0  0  0  0  0  0  0  0999 V2000
   87.4990   51.8530   43.5180 C   0  0  0  0  0  0  0  0  0  0  0  0
   88.0370   50.6420   43.9980 C   0  0  0  0  0  3  0  0  0  0  0  0
   87.8340   50.2370   45.3120 C   0  0  0  0  0  3  0  0  0  0  0  0
   87.1260   51.0430   46.1930 C   0  0  0  0  0  3  0  0  0  0  0  0
   86.5460   52.2390   45.7460 C   0  0  0  0  0  0  0  0  0  0  0  0
   86.6350   52.6190   44.3520 C   0  0  0  0  0  0  0  0  0  0  0  0
   85.9030   53.7920   43.9000 C   0  0  0  0  0  0  0  0  0  0  0  0
   85.6430   54.1740   42.5610 C   0  0  0  0  0  0  0  0  0  0  0  0
   85.9050   53.5020   41.3800 O   0  0  0  0  0  0  0  0  0  0  0  0
   85.4260   54.2790   40.2780 C   0  0  0  0  0  2  0  0  0  0  0  0
   84.8290   55.4320   40.8760 O   0  0  0  0  0  0  0  0  0  0  0  0
   84.9630   55.3240   42.2470 C   0  0  0  0  0  0  0  0  0  0  0  0
   84.4420   56.1860   43.2100 C   0  0  0  0  0  3  0  0  0  0  0  0
   84.5780   55.8210   44.5590 C   0  0  0  0  0  0  0  0  0  0  0  0
   85.2920   54.6300   44.8720 C   0  0  0  0  0  0  0  0  0  0  0  0
   85.3360   54.2560   46.1850 C   0  0  0  0  0  0  0  0  0  0  0  0
   85.8890   53.1050   46.6380 C   0  0  0  0  0  0  0  0  0  0  0  0
   85.6340   53.1050   48.0150 C   0  0  0  0  0  0  0  0  0  0  0  0
   85.9780   52.2230   48.8430 O   0  0  0  0  0  0  0  0  0  0  0  0
   84.9190   54.2680   48.3200 C   0  0  0  0  0  0  0  0  0  0  0  0
   84.5050   54.5970   49.4630 O   0  0  0  0  0  0  0  0  0  0  0  0
   84.7180   54.9950   47.2030 N   0  0  0  0  0  0  0  0  0  0  0  0
   84.0530   56.1500   46.9440 C   0  0  0  0  0  3  0  0  0  0  0  0
   83.9790   56.5850   45.6010 C   0  0  0  0  0  3  0  0  0  0  0  0
   89.1620   52.1500   41.6600 C   0  0  0  0  0  1  0  0  0  0  0  0
   87.8860   52.3410   42.2610 O   0  0  0  0  0  0  0  0  0  0  0  0
  1  2  2  0  0  0  0
  1  6  1  0  0  0  0
  2  3  1  0  0  0  0
  3  4  2  0  0  0  0
  5  4  1  0  0  0  0
  5 17  1  0  0  0  0
  6  5  2  0  0  0  0
  7  6  1  0  0  0  0
  7 15  1  0  0  0  0
  8  7  2  0  0  0  0
  9  8  1  0  0  0  0
 10 11  1  0  0  0  0
 10  9  1  0  0  0  0
 11 12  1  0  0  0  0
 12  8  1  0  0  0  0
 12 13  2  0  0  0  0
 13 14  1  0  0  0  0
 14 15  2  0  0  0  0
 14 24  1  0  0  0  0
 15 16  1  0  0  0  0
 16 17  2  0  0  0  0
 16 22  1  0  0  0  0
 17 18  1  0  0  0  0
 18 20  1  0  0  0  0
 18 19  2  0  0  0  0
 20 21  2  0  0  0  0
 22 20  1  0  0  0  0
 23 22  1  0  0  0  0
 24 23  2  0  0  0  0
 25 26  1  0  0  0  0
 26  1  1  0  0  0  0
M  END
>  <MODEL>
5

>  <REMARK>
 VINA RESULT:    -9.505      3.944      5.330
 INTER + INTRA:         -10.140
 INTER:                 -10.001
 INTRA:                  -0.139
 UNBOUND:                -0.080
  Name = 
  2 active torsions:
  status: ('A' for Active; 'I' for Inactive)
    1  A    between atoms: C_1  and  O_2
    2  A    between atoms: O_2  and  C_3
                            x       y       z     vdW  Elec       q    Type
                         _______ _______ _______ _____ _____    ______ ____

>  <TORSDO>
F 1

$$$$
=
 OpenBabel09092515023D

 26 31  0  0  0  0  0  0  0  0999 V2000
   84.1250   52.7220   41.9200 C   0  0  0  0  0  0  0  0  0  0  0  0
   83.9220   53.3160   40.6580 C   0  0  0  0  0  3  0  0  0  0  0  0
   84.1210   54.6780   40.4650 C   0  0  0  0  0  3  0  0  0  0  0  0
   84.4870   55.4910   41.5300 C   0  0  0  0  0  3  0  0  0  0  0  0
   84.7320   54.9330   42.7920 C   0  0  0  0  0  0  0  0  0  0  0  0
   84.6560   53.5010   42.9880 C   0  0  0  0  0  0  0  0  0  0  0  0
   85.0530   52.9500   44.2740 C   0  0  0  0  0  0  0  0  0  0  0  0
   85.3040   51.5900   44.5800 C   0  0  0  0  0  0  0  0  0  0  0  0
   85.3500   50.4870   43.7460 O   0  0  0  0  0  0  0  0  0  0  0  0
   85.6750   49.3250   44.5160 C   0  0  0  0  0  2  0  0  0  0  0  0
   85.8600   49.8100   45.8480 O   0  0  0  0  0  0  0  0  0  0  0  0
   85.6460   51.1750   45.8430 C   0  0  0  0  0  0  0  0  0  0  0  0
   85.8110   52.0530   46.9130 C   0  0  0  0  0  3  0  0  0  0  0  0
   85.6720   53.4270   46.6610 C   0  0  0  0  0  0  0  0  0  0  0  0
   85.3090   53.8440   45.3490 C   0  0  0  0  0  0  0  0  0  0  0  0
   85.2630   55.1880   45.1120 C   0  0  0  0  0  0  0  0  0  0  0  0
   85.0310   55.7470   43.8990 C   0  0  0  0  0  0  0  0  0  0  0  0
   85.1560   57.1260   44.1130 C   0  0  0  0  0  0  0  0  0  0  0  0
   85.0140   58.0350   43.2560 O   0  0  0  0  0  0  0  0  0  0  0  0
   85.4750   57.3250   45.4610 C   0  0  0  0  0  0  0  0  0  0  0  0
   85.6760   58.4410   46.0100 O   0  0  0  0  0  0  0  0  0  0  0  0
   85.5520   56.1410   46.0990 N   0  0  0  0  0  0  0  0  0  0  0  0
   85.8730   55.7790   47.3670 C   0  0  0  0  0  3  0  0  0  0  0  0
   85.9330   54.3990   47.6680 C   0  0  0  0  0  3  0  0  0  0  0  0
   82.3750   50.9390   42.1780 C   0  0  0  0  0  1  0  0  0  0  0  0
   83.7230   51.3970   42.1420 O   0  0  0  0  0  0  0  0  0  0  0  0
  1 26  1  0  0  0  0
  1  6  1  0  0  0  0
  2  1  2  0  0  0  0
  3  2  1  0  0  0  0
  3  4  2  0  0  0  0
  4  5  1  0  0  0  0
  5  6  2  0  0  0  0
  5 17  1  0  0  0  0
  6  7  1  0  0  0  0
  7  8  2  0  0  0  0
  7 15  1  0  0  0  0
  8 12  1  0  0  0  0
  9 10  1  0  0  0  0
  9  8  1  0  0  0  0
 10 11  1  0  0  0  0
 12 11  1  0  0  0  0
 12 13  2  0  0  0  0
 14 13  1  0  0  0  0
 14 24  1  0  0  0  0
 15 14  2  0  0  0  0
 16 15  1  0  0  0  0
 16 22  1  0  0  0  0
 17 18  1  0  0  0  0
 17 16  2  0  0  0  0
 18 20  1  0  0  0  0
 19 18  2  0  0  0  0
 20 21  2  0  0  0  0
 20 22  1  0  0  0  0
 22 23  1  0  0  0  0
 23 24  2  0  0  0  0
 26 25  1  0  0  0  0
M  END
>  <MODEL>
6

>  <REMARK>
 VINA RESULT:    -9.491      2.583      4.933
 INTER + INTRA:         -10.125
 INTER:                  -9.985
 INTRA:                  -0.140
 UNBOUND:                -0.080
  Name = 
  2 active torsions:
  status: ('A' for Active; 'I' for Inactive)
    1  A    between atoms: C_1  and  O_2
    2  A    between atoms: O_2  and  C_3
                            x       y       z     vdW  Elec       q    Type
                         _______ _______ _______ _____ _____    ______ ____

>  <TORSDO>
F 1

$$$$
=
 OpenBabel09092515023D

 26 31  0  0  0  0  0  0  0  0999 V2000
   88.7310   47.3620   42.2080 C   0  0  0  0  0  0  0  0  0  0  0  0
   90.1120   47.4820   41.9460 C   0  0  0  0  0  3  0  0  0  0  0  0
   90.7180   48.7290   41.8470 C   0  0  0  0  0  3  0  0  0  0  0  0
   89.9620   49.8880   41.9660 C   0  0  0  0  0  3  0  0  0  0  0  0
   88.5940   49.8110   42.2600 C   0  0  0  0  0  0  0  0  0  0  0  0
   87.9650   48.5290   42.4950 C   0  0  0  0  0  0  0  0  0  0  0  0
   86.5800   48.5000   42.9340 C   0  0  0  0  0  0  0  0  0  0  0  0
   85.8740   47.3920   43.4660 C   0  0  0  0  0  0  0  0  0  0  0  0
   86.3290   46.1280   43.8000 O   0  0  0  0  0  0  0  0  0  0  0  0
   85.2440   45.3620   44.3340 C   0  0  0  0  0  2  0  0  0  0  0  0
   84.1300   46.2570   44.3340 O   0  0  0  0  0  0  0  0  0  0  0  0
   84.5510   47.4700   43.8230 C   0  0  0  0  0  0  0  0  0  0  0  0
   83.8070   48.6450   43.7310 C   0  0  0  0  0  3  0  0  0  0  0  0
   84.4670   49.8070   43.3030 C   0  0  0  0  0  0  0  0  0  0  0  0
   85.8370   49.7120   42.9270 C   0  0  0  0  0  0  0  0  0  0  0  0
   86.4750   50.8730   42.5970 C   0  0  0  0  0  0  0  0  0  0  0  0
   87.7960   50.9690   42.3110 C   0  0  0  0  0  0  0  0  0  0  0  0
   88.0190   52.3370   42.1150 C   0  0  0  0  0  0  0  0  0  0  0  0
   89.1130   52.8860   41.8200 O   0  0  0  0  0  0  0  0  0  0  0  0
   86.8050   53.0040   42.3090 C   0  0  0  0  0  0  0  0  0  0  0  0
   86.6290   54.2480   42.2280 O   0  0  0  0  0  0  0  0  0  0  0  0
   85.8350   52.1200   42.6130 N   0  0  0  0  0  0  0  0  0  0  0  0
   84.5230   52.2430   42.9390 C   0  0  0  0  0  3  0  0  0  0  0  0
   83.8130   51.0720   43.2870 C   0  0  0  0  0  3  0  0  0  0  0  0
   88.6980   44.8610   42.4320 C   0  0  0  0  0  1  0  0  0  0  0  0
   88.1050   46.1130   42.1000 O   0  0  0  0  0  0  0  0  0  0  0  0
  1  6  1  0  0  0  0
  2  1  2  0  0  0  0
  3  2  1  0  0  0  0
  3  4  2  0  0  0  0
  4  5  1  0  0  0  0
  5 17  2  0  0  0  0
  5  6  1  0  0  0  0
  6  7  2  0  0  0  0
  7  8  1  0  0  0  0
  8  9  1  0  0  0  0
  8 12  2  0  0  0  0
  9 10  1  0  0  0  0
 11 10  1  0  0  0  0
 12 11  1  0  0  0  0
 13 12  1  0  0  0  0
 14 13  2  0  0  0  0
 15  7  1  0  0  0  0
 15 14  1  0  0  0  0
 16 22  1  0  0  0  0
 16 15  2  0  0  0  0
 17 16  1  0  0  0  0
 18 20  1  0  0  0  0
 18 17  1  0  0  0  0
 19 18  2  0  0  0  0
 20 22  1  0  0  0  0
 21 20  2  0  0  0  0
 22 23  1  0  0  0  0
 23 24  2  0  0  0  0
 24 14  1  0  0  0  0
 26  1  1  0  0  0  0
 26 25  1  0  0  0  0
M  END
>  <MODEL>
7

>  <REMARK>
 VINA RESULT:    -9.374      2.847      3.934
 INTER + INTRA:         -10.002
 INTER:                 -10.143
 INTRA:                   0.141
 UNBOUND:                -0.080
  Name = 
  2 active torsions:
  status: ('A' for Active; 'I' for Inactive)
    1  A    between atoms: C_1  and  O_2
    2  A    between atoms: O_2  and  C_3
                            x       y       z     vdW  Elec       q    Type
                         _______ _______ _______ _____ _____    ______ ____

>  <TORSDO>
F 1

$$$$
=
 OpenBabel09092515023D

 26 31  0  0  0  0  0  0  0  0999 V2000
   81.4780   48.4420   43.7800 C   0  0  0  0  0  0  0  0  0  0  0  0
   80.1760   48.8560   43.4340 C   0  0  0  0  0  3  0  0  0  0  0  0
   79.9560   50.0610   42.7770 C   0  0  0  0  0  3  0  0  0  0  0  0
   81.0200   50.9030   42.4820 C   0  0  0  0  0  3  0  0  0  0  0  0
   82.3330   50.5120   42.7790 C   0  0  0  0  0  0  0  0  0  0  0  0
   82.5990   49.2070   43.3470 C   0  0  0  0  0  0  0  0  0  0  0  0
   83.9800   48.7840   43.5090 C   0  0  0  0  0  0  0  0  0  0  0  0
   84.4470   47.4760   43.7870 C   0  0  0  0  0  0  0  0  0  0  0  0
   83.7500   46.2820   43.8600 O   0  0  0  0  0  0  0  0  0  0  0  0
   84.6650   45.2170   44.1370 C   0  0  0  0  0  2  0  0  0  0  0  0
   85.9490   45.8410   44.1830 O   0  0  0  0  0  0  0  0  0  0  0  0
   85.7800   47.1930   43.9500 C   0  0  0  0  0  0  0  0  0  0  0  0
   86.7820   48.1530   43.8200 C   0  0  0  0  0  3  0  0  0  0  0  0
   86.4000   49.4530   43.4500 C   0  0  0  0  0  0  0  0  0  0  0  0
   85.0140   49.7350   43.2920 C   0  0  0  0  0  0  0  0  0  0  0  0
   84.6790   50.9830   42.8500 C   0  0  0  0  0  0  0  0  0  0  0  0
   83.4170   51.3800   42.5560 C   0  0  0  0  0  0  0  0  0  0  0  0
   83.5590   52.6870   42.0720 C   0  0  0  0  0  0  0  0  0  0  0  0
   82.6360   53.4490   41.6840 O   0  0  0  0  0  0  0  0  0  0  0  0
   84.9210   53.0060   42.0880 C   0  0  0  0  0  0  0  0  0  0  0  0
   85.4240   54.0970   41.7080 O   0  0  0  0  0  0  0  0  0  0  0  0
   85.6350   51.9660   42.5610 N   0  0  0  0  0  0  0  0  0  0  0  0
   86.9630   51.7400   42.7280 C   0  0  0  0  0  3  0  0  0  0  0  0
   87.3670   50.4650   43.1860 C   0  0  0  0  0  3  0  0  0  0  0  0
   80.6280   46.4570   45.0630 C   0  0  0  0  0  1  0  0  0  0  0  0
   81.6600   47.3330   44.6190 O   0  0  0  0  0  0  0  0  0  0  0  0
  1 26  1  0  0  0  0
  2  1  1  0  0  0  0
  3  2  2  0  0  0  0
  4  3  1  0  0  0  0
  4  5  2  0  0  0  0
  5  6  1  0  0  0  0
  6  7  1  0  0  0  0
  6  1  2  0  0  0  0
  7  8  1  0  0  0  0
  8  9  1  0  0  0  0
  8 12  2  0  0  0  0
  9 10  1  0  0  0  0
 10 11  1  0  0  0  0
 12 11  1  0  0  0  0
 13 12  1  0  0  0  0
 14 13  2  0  0  0  0
 15 14  1  0  0  0  0
 15  7  2  0  0  0  0
 16 15  1  0  0  0  0
 17  5  1  0  0  0  0
 17 16  2  0  0  0  0
 18 20  1  0  0  0  0
 18 17  1  0  0  0  0
 19 18  2  0  0  0  0
 20 22  1  0  0  0  0
 21 20  2  0  0  0  0
 22 23  1  0  0  0  0
 22 16  1  0  0  0  0
 23 24  2  0  0  0  0
 24 14  1  0  0  0  0
 26 25  1  0  0  0  0
M  END
>  <MODEL>
8

>  <REMARK>
 VINA RESULT:    -9.349      1.749      4.595
 INTER + INTRA:          -9.975
 INTER:                  -9.896
 INTRA:                  -0.080
 UNBOUND:                -0.080
  Name = 
  2 active torsions:
  status: ('A' for Active; 'I' for Inactive)
    1  A    between atoms: C_1  and  O_2
    2  A    between atoms: O_2  and  C_3
                            x       y       z     vdW  Elec       q    Type
                         _______ _______ _______ _____ _____    ______ ____

>  <TORSDO>
F 1

$$$$
=
 OpenBabel09092515023D

 26 31  0  0  0  0  0  0  0  0999 V2000
   85.9530   52.2790   47.4370 C   0  0  0  0  0  0  0  0  0  0  0  0
   86.6100   51.3370   48.2560 C   0  0  0  0  0  3  0  0  0  0  0  0
   87.4350   50.3620   47.7090 C   0  0  0  0  0  3  0  0  0  0  0  0
   87.5980   50.2710   46.3330 C   0  0  0  0  0  3  0  0  0  0  0  0
   86.9890   51.2090   45.4880 C   0  0  0  0  0  0  0  0  0  0  0  0
   86.2300   52.3100   46.0400 C   0  0  0  0  0  0  0  0  0  0  0  0
   85.7340   53.3380   45.1390 C   0  0  0  0  0  0  0  0  0  0  0  0
   85.2130   54.6070   45.4940 C   0  0  0  0  0  0  0  0  0  0  0  0
   85.1480   55.2250   46.7310 O   0  0  0  0  0  0  0  0  0  0  0  0
   84.5640   56.5230   46.5800 C   0  0  0  0  0  2  0  0  0  0  0  0
   84.3240   56.6550   45.1770 O   0  0  0  0  0  0  0  0  0  0  0  0
   84.7430   55.4940   44.5580 C   0  0  0  0  0  0  0  0  0  0  0  0
   84.7730   55.2380   43.1880 C   0  0  0  0  0  3  0  0  0  0  0  0
   85.3640   54.0400   42.7570 C   0  0  0  0  0  0  0  0  0  0  0  0
   85.8400   53.1250   43.7380 C   0  0  0  0  0  0  0  0  0  0  0  0
   86.4850   52.0090   43.2890 C   0  0  0  0  0  0  0  0  0  0  0  0
   87.0810   51.0910   44.0890 C   0  0  0  0  0  0  0  0  0  0  0  0
   87.6740   50.1810   43.2060 C   0  0  0  0  0  0  0  0  0  0  0  0
   88.3330   49.1550   43.5150 O   0  0  0  0  0  0  0  0  0  0  0  0
   87.4110   50.6130   41.9010 C   0  0  0  0  0  0  0  0  0  0  0  0
   87.8030   50.0450   40.8470 O   0  0  0  0  0  0  0  0  0  0  0  0
   86.6810   51.7440   41.9260 N   0  0  0  0  0  0  0  0  0  0  0  0
   86.2150   52.5800   40.9640 C   0  0  0  0  0  3  0  0  0  0  0  0
   85.5370   53.7510   41.3730 C   0  0  0  0  0  3  0  0  0  0  0  0
   84.1610   52.8100   49.1140 C   0  0  0  0  0  1  0  0  0  0  0  0
   84.9710   53.1170   47.9840 O   0  0  0  0  0  0  0  0  0  0  0  0
  1 26  1  0  0  0  0
  1  2  1  0  0  0  0
  3  2  2  0  0  0  0
  4  3  1  0  0  0  0
  5  6  1  0  0  0  0
  5  4  2  0  0  0  0
  6  1  2  0  0  0  0
  7  8  1  0  0  0  0
  7  6  1  0  0  0  0
  8  9  1  0  0  0  0
 10  9  1  0  0  0  0
 11 10  1  0  0  0  0
 12 11  1  0  0  0  0
 12  8  2  0  0  0  0
 13 12  1  0  0  0  0
 14 13  2  0  0  0  0
 14 15  1  0  0  0  0
 15  7  2  0  0  0  0
 16 15  1  0  0  0  0
 16 17  2  0  0  0  0
 17  5  1  0  0  0  0
 18 19  2  0  0  0  0
 18 17  1  0  0  0  0
 20 22  1  0  0  0  0
 20 18  1  0  0  0  0
 21 20  2  0  0  0  0
 22 16  1  0  0  0  0
 23 24  2  0  0  0  0
 23 22  1  0  0  0  0
 24 14  1  0  0  0  0
 26 25  1  0  0  0  0
M  END
>  <MODEL>
9

>  <REMARK>
 VINA RESULT:    -9.276      3.672      5.251
 INTER + INTRA:          -9.898
 INTER:                  -9.762
 INTRA:                  -0.136
 UNBOUND:                -0.080
  Name = 
  2 active torsions:
  status: ('A' for Active; 'I' for Inactive)
    1  A    between atoms: C_1  and  O_2
    2  A    between atoms: O_2  and  C_3
                            x       y       z     vdW  Elec       q    Type
                         _______ _______ _______ _____ _____    ______ ____

>  <TORSDO>
F 1

$$$$
