MODEL 1
REMARK VINA RESULT:    -6.950      0.000      0.000
REMARK INTER + INTRA:         -15.782
REMARK INTER:                 -14.201
REMARK INTRA:                  -1.581
REMARK UNBOUND:                -1.315
REMARK  Name = 
REMARK  21 active torsions:
REMARK  status: ('A' for Active; 'I' for Inactive)
REMARK    1  A    between atoms: C_2  and  C_3
REMARK    2  A    between atoms: C_3  and  O_4
REMARK    3  A    between atoms: C_3  and  C_8
REMARK    4  A    between atoms: O_4  and  C_5
REMARK    5  A    between atoms: C_5  and  C_7
REMARK    6  A    between atoms: C_9  and  C_10
REMARK    7  A    between atoms: C_11  and  C_12
REMARK    8  A    between atoms: C_12  and  C_13
REMARK    9  A    between atoms: C_12  and  O_27
REMARK   10  A    between atoms: C_13  and  C_14
REMARK   11  A    between atoms: C_14  and  C_15
REMARK   12  A    between atoms: C_15  and  C_16
REMARK   13  A    between atoms: C_16  and  C_17
REMARK   14  A    between atoms: C_17  and  C_18
REMARK   15  A    between atoms: C_18  and  C_19
REMARK   16  A    between atoms: C_19  and  C_20
REMARK   17  A    between atoms: C_20  and  C_21
REMARK   18  A    between atoms: C_21  and  C_22
REMARK   19  A    between atoms: C_22  and  O_23
REMARK   20  A    between atoms: O_23  and  C_24
REMARK   21  A    between atoms: C_24  and  C_26
REMARK                            x       y       z     vdW  Elec       q    Type
REMARK                         _______ _______ _______ _____ _____    ______ ____
ROOT
ATOM      1  C   UNL     1      86.813  50.589  47.780  0.00  0.00    +0.116 C 
ENDROOT
BRANCH   1   2
ATOM      2  O   UNL     1      87.710  50.290  48.820  0.00  0.00    -0.379 OA
ATOM      3  H   UNL     1      87.854  49.331  48.857  0.00  0.00    +0.000 HD
ENDBRANCH   1   2
BRANCH   1   5
ATOM      4  C   UNL     1      87.963  50.103  45.412  0.00  0.00    -0.012 C 
ATOM      5  C   UNL     1      87.445  50.323  46.478  0.00  0.00    -0.057 C 
BRANCH   4   7
ATOM      6  C   UNL     1      89.092  49.625  43.099  0.00  0.00    -0.040 C 
ATOM      7  C   UNL     1      88.571  49.844  44.164  0.00  0.00    -0.011 C 
BRANCH   6   8
ATOM      8  C   UNL     1      89.732  49.360  41.805  0.00  0.00    +0.182 C 
BRANCH   8  10
ATOM      9  C   UNL     1      88.744  47.082  41.693  0.00  0.00    -0.098 C 
ATOM     10  C   UNL     1      89.816  47.875  41.595  0.00  0.00    -0.039 C 
ENDBRANCH   8  10
BRANCH   8  11
ATOM     11  O   UNL     1      88.954  49.930  40.755  0.00  0.00    -0.444 OA
BRANCH  11  12
ATOM     12  C   UNL     1      89.105  51.251  40.313  0.00  0.00    +0.305 C 
ATOM     13  O   UNL     1      88.714  51.595  39.165  0.00  0.00    -0.251 OA
ATOM     14  C   UNL     1      89.767  52.250  41.199  0.00  0.00    +0.033 C 
ENDBRANCH  11  12
ENDBRANCH   8  11
ENDBRANCH   6   8
ENDBRANCH   4   7
ENDBRANCH   1   5
BRANCH   1  15
ATOM     15  C   UNL     1      86.332  52.054  47.852  0.00  0.00    -0.016 C 
BRANCH  15  16
ATOM     16  C   UNL     1      85.730  52.564  46.531  0.00  0.00    -0.050 C 
BRANCH  16  17
ATOM     17  C   UNL     1      84.378  53.267  46.728  0.00  0.00    -0.053 C 
BRANCH  17  18
ATOM     18  C   UNL     1      84.393  54.138  47.993  0.00  0.00    -0.053 C 
BRANCH  18  19
ATOM     19  C   UNL     1      84.436  55.643  47.683  0.00  0.00    -0.053 C 
BRANCH  19  20
ATOM     20  C   UNL     1      85.789  56.088  47.101  0.00  0.00    -0.053 C 
BRANCH  20  21
ATOM     21  C   UNL     1      85.633  57.090  45.945  0.00  0.00    -0.053 C 
BRANCH  21  22
ATOM     22  C   UNL     1      86.508  56.729  44.731  0.00  0.00    -0.050 C 
BRANCH  22  23
ATOM     23  C   UNL     1      86.095  55.395  44.087  0.00  0.00    -0.019 C 
BRANCH  23  24
ATOM     24  C   UNL     1      84.788  55.502  43.289  0.00  0.00    +0.092 C 
BRANCH  24  25
ATOM     25  O   UNL     1      85.053  55.925  41.953  0.00  0.00    -0.465 OA
BRANCH  25  26
ATOM     26  C   UNL     1      84.425  55.372  40.831  0.00  0.00    +0.304 C 
ATOM     27  O   UNL     1      84.699  55.781  39.670  0.00  0.00    -0.251 OA
ATOM     28  C   UNL     1      83.373  54.333  41.020  0.00  0.00    +0.033 C 
ENDBRANCH  25  26
ENDBRANCH  24  25
ENDBRANCH  23  24
ENDBRANCH  22  23
ENDBRANCH  21  22
ENDBRANCH  20  21
ENDBRANCH  19  20
ENDBRANCH  18  19
ENDBRANCH  17  18
ENDBRANCH  16  17
ENDBRANCH  15  16
ENDBRANCH   1  15
TORSDOF 19
ENDMDL
MODEL 2
REMARK VINA RESULT:    -6.940      2.079      4.401
REMARK INTER + INTRA:         -15.762
REMARK INTER:                 -12.683
REMARK INTRA:                  -3.079
REMARK UNBOUND:                -1.315
REMARK  Name = 
REMARK  21 active torsions:
REMARK  status: ('A' for Active; 'I' for Inactive)
REMARK    1  A    between atoms: C_2  and  C_3
REMARK    2  A    between atoms: C_3  and  O_4
REMARK    3  A    between atoms: C_3  and  C_8
REMARK    4  A    between atoms: O_4  and  C_5
REMARK    5  A    between atoms: C_5  and  C_7
REMARK    6  A    between atoms: C_9  and  C_10
REMARK    7  A    between atoms: C_11  and  C_12
REMARK    8  A    between atoms: C_12  and  C_13
REMARK    9  A    between atoms: C_12  and  O_27
REMARK   10  A    between atoms: C_13  and  C_14
REMARK   11  A    between atoms: C_14  and  C_15
REMARK   12  A    between atoms: C_15  and  C_16
REMARK   13  A    between atoms: C_16  and  C_17
REMARK   14  A    between atoms: C_17  and  C_18
REMARK   15  A    between atoms: C_18  and  C_19
REMARK   16  A    between atoms: C_19  and  C_20
REMARK   17  A    between atoms: C_20  and  C_21
REMARK   18  A    between atoms: C_21  and  C_22
REMARK   19  A    between atoms: C_22  and  O_23
REMARK   20  A    between atoms: O_23  and  C_24
REMARK   21  A    between atoms: C_24  and  C_26
REMARK                            x       y       z     vdW  Elec       q    Type
REMARK                         _______ _______ _______ _____ _____    ______ ____
ROOT
ATOM      1  C   UNL     1      85.208  56.841  44.997  0.00  0.00    +0.116 C 
ENDROOT
BRANCH   1   2
ATOM      2  O   UNL     1      83.838  56.819  44.683  0.00  0.00    -0.379 OA
ATOM      3  H   UNL     1      83.611  57.613  44.174  0.00  0.00    +0.000 HD
ENDBRANCH   1   2
BRANCH   1   5
ATOM      4  C   UNL     1      86.484  54.908  43.653  0.00  0.00    -0.012 C 
ATOM      5  C   UNL     1      85.910  55.779  44.258  0.00  0.00    -0.057 C 
BRANCH   4   7
ATOM      6  C   UNL     1      87.724  53.015  42.339  0.00  0.00    -0.040 C 
ATOM      7  C   UNL     1      87.154  53.888  42.944  0.00  0.00    -0.011 C 
BRANCH   6   8
ATOM      8  C   UNL     1      88.413  51.949  41.602  0.00  0.00    +0.182 C 
BRANCH   8  10
ATOM      9  C   UNL     1      90.178  53.093  40.277  0.00  0.00    -0.098 C 
ATOM     10  C   UNL     1      89.833  52.368  41.346  0.00  0.00    -0.039 C 
ENDBRANCH   8  10
BRANCH   8  11
ATOM     11  O   UNL     1      88.421  50.752  42.376  0.00  0.00    -0.444 OA
BRANCH  11  12
ATOM     12  C   UNL     1      88.638  49.481  41.830  0.00  0.00    +0.305 C 
ATOM     13  O   UNL     1      87.780  48.946  41.077  0.00  0.00    -0.251 OA
ATOM     14  C   UNL     1      89.884  48.738  42.173  0.00  0.00    +0.033 C 
ENDBRANCH  11  12
ENDBRANCH   8  11
ENDBRANCH   6   8
ENDBRANCH   4   7
ENDBRANCH   1   5
BRANCH   1  15
ATOM     15  C   UNL     1      85.444  56.682  46.514  0.00  0.00    -0.016 C 
BRANCH  15  16
ATOM     16  C   UNL     1      84.753  55.444  47.113  0.00  0.00    -0.050 C 
BRANCH  16  17
ATOM     17  C   UNL     1      85.724  54.543  47.892  0.00  0.00    -0.053 C 
BRANCH  17  18
ATOM     18  C   UNL     1      85.476  53.062  47.568  0.00  0.00    -0.053 C 
BRANCH  18  19
ATOM     19  C   UNL     1      86.449  52.509  46.514  0.00  0.00    -0.053 C 
BRANCH  19  20
ATOM     20  C   UNL     1      85.742  51.657  45.446  0.00  0.00    -0.053 C 
BRANCH  20  21
ATOM     21  C   UNL     1      84.409  52.273  44.988  0.00  0.00    -0.053 C 
BRANCH  21  22
ATOM     22  C   UNL     1      83.455  51.227  44.383  0.00  0.00    -0.050 C 
BRANCH  22  23
ATOM     23  C   UNL     1      83.409  51.295  42.848  0.00  0.00    -0.019 C 
BRANCH  23  24
ATOM     24  C   UNL     1      83.421  52.734  42.317  0.00  0.00    +0.092 C 
BRANCH  24  25
ATOM     25  O   UNL     1      84.388  52.873  41.277  0.00  0.00    -0.465 OA
BRANCH  25  26
ATOM     26  C   UNL     1      84.538  54.038  40.517  0.00  0.00    +0.304 C 
ATOM     27  O   UNL     1      85.287  54.055  39.502  0.00  0.00    -0.251 OA
ATOM     28  C   UNL     1      83.854  55.290  40.952  0.00  0.00    +0.033 C 
ENDBRANCH  25  26
ENDBRANCH  24  25
ENDBRANCH  23  24
ENDBRANCH  22  23
ENDBRANCH  21  22
ENDBRANCH  20  21
ENDBRANCH  19  20
ENDBRANCH  18  19
ENDBRANCH  17  18
ENDBRANCH  16  17
ENDBRANCH  15  16
ENDBRANCH   1  15
TORSDOF 19
ENDMDL
MODEL 3
REMARK VINA RESULT:    -6.935      1.456      2.362
REMARK INTER + INTRA:         -15.750
REMARK INTER:                 -12.831
REMARK INTRA:                  -2.919
REMARK UNBOUND:                -1.315
REMARK  Name = 
REMARK  21 active torsions:
REMARK  status: ('A' for Active; 'I' for Inactive)
REMARK    1  A    between atoms: C_2  and  C_3
REMARK    2  A    between atoms: C_3  and  O_4
REMARK    3  A    between atoms: C_3  and  C_8
REMARK    4  A    between atoms: O_4  and  C_5
REMARK    5  A    between atoms: C_5  and  C_7
REMARK    6  A    between atoms: C_9  and  C_10
REMARK    7  A    between atoms: C_11  and  C_12
REMARK    8  A    between atoms: C_12  and  C_13
REMARK    9  A    between atoms: C_12  and  O_27
REMARK   10  A    between atoms: C_13  and  C_14
REMARK   11  A    between atoms: C_14  and  C_15
REMARK   12  A    between atoms: C_15  and  C_16
REMARK   13  A    between atoms: C_16  and  C_17
REMARK   14  A    between atoms: C_17  and  C_18
REMARK   15  A    between atoms: C_18  and  C_19
REMARK   16  A    between atoms: C_19  and  C_20
REMARK   17  A    between atoms: C_20  and  C_21
REMARK   18  A    between atoms: C_21  and  C_22
REMARK   19  A    between atoms: C_22  and  O_23
REMARK   20  A    between atoms: O_23  and  C_24
REMARK   21  A    between atoms: C_24  and  C_26
REMARK                            x       y       z     vdW  Elec       q    Type
REMARK                         _______ _______ _______ _____ _____    ______ ____
ROOT
ATOM      1  C   UNL     1      85.188  52.790  47.831  0.00  0.00    +0.116 C 
ENDROOT
BRANCH   1   2
ATOM      2  O   UNL     1      86.029  53.363  48.800  0.00  0.00    -0.379 OA
ATOM      3  H   UNL     1      86.741  52.742  49.019  0.00  0.00    +0.000 HD
ENDBRANCH   1   2
BRANCH   1   5
ATOM      4  C   UNL     1      86.628  52.018  45.710  0.00  0.00    -0.012 C 
ATOM      5  C   UNL     1      85.981  52.365  46.666  0.00  0.00    -0.057 C 
BRANCH   4   7
ATOM      6  C   UNL     1      88.033  51.268  43.633  0.00  0.00    -0.040 C 
ATOM      7  C   UNL     1      87.385  51.612  44.590  0.00  0.00    -0.011 C 
BRANCH   6   8
ATOM      8  C   UNL     1      88.824  50.853  42.468  0.00  0.00    +0.182 C 
BRANCH   8  10
ATOM      9  C   UNL     1      89.926  48.719  41.829  0.00  0.00    -0.098 C 
ATOM     10  C   UNL     1      88.931  49.355  42.455  0.00  0.00    -0.039 C 
ENDBRANCH   8  10
BRANCH   8  11
ATOM     11  O   UNL     1      88.179  51.278  41.269  0.00  0.00    -0.444 OA
BRANCH  11  12
ATOM     12  C   UNL     1      88.642  52.336  40.477  0.00  0.00    +0.305 C 
ATOM     13  O   UNL     1      87.931  52.806  39.548  0.00  0.00    -0.251 OA
ATOM     14  C   UNL     1      90.006  52.888  40.714  0.00  0.00    +0.033 C 
ENDBRANCH  11  12
ENDBRANCH   8  11
ENDBRANCH   6   8
ENDBRANCH   4   7
ENDBRANCH   1   5
BRANCH   1  15
ATOM     15  C   UNL     1      84.077  53.767  47.395  0.00  0.00    -0.016 C 
BRANCH  15  16
ATOM     16  C   UNL     1      84.104  55.103  48.157  0.00  0.00    -0.050 C 
BRANCH  16  17
ATOM     17  C   UNL     1      84.420  56.299  47.247  0.00  0.00    -0.053 C 
BRANCH  17  18
ATOM     18  C   UNL     1      85.934  56.429  47.019  0.00  0.00    -0.053 C 
BRANCH  18  19
ATOM     19  C   UNL     1      86.404  55.749  45.723  0.00  0.00    -0.053 C 
BRANCH  19  20
ATOM     20  C   UNL     1      86.169  56.622  44.478  0.00  0.00    -0.053 C 
BRANCH  20  21
ATOM     21  C   UNL     1      85.214  55.964  43.468  0.00  0.00    -0.053 C 
BRANCH  21  22
ATOM     22  C   UNL     1      84.539  54.702  44.033  0.00  0.00    -0.050 C 
BRANCH  22  23
ATOM     23  C   UNL     1      84.504  53.551  43.014  0.00  0.00    -0.019 C 
BRANCH  23  24
ATOM     24  C   UNL     1      85.496  53.749  41.861  0.00  0.00    +0.092 C 
BRANCH  24  25
ATOM     25  O   UNL     1      84.815  53.720  40.607  0.00  0.00    -0.465 OA
BRANCH  25  26
ATOM     26  C   UNL     1      84.329  54.866  39.968  0.00  0.00    +0.304 C 
ATOM     27  O   UNL     1      85.120  55.741  39.520  0.00  0.00    -0.251 OA
ATOM     28  C   UNL     1      82.857  55.084  39.875  0.00  0.00    +0.033 C 
ENDBRANCH  25  26
ENDBRANCH  24  25
ENDBRANCH  23  24
ENDBRANCH  22  23
ENDBRANCH  21  22
ENDBRANCH  20  21
ENDBRANCH  19  20
ENDBRANCH  18  19
ENDBRANCH  17  18
ENDBRANCH  16  17
ENDBRANCH  15  16
ENDBRANCH   1  15
TORSDOF 19
ENDMDL
MODEL 4
REMARK VINA RESULT:    -6.905      2.399      4.137
REMARK INTER + INTRA:         -15.689
REMARK INTER:                 -12.512
REMARK INTRA:                  -3.177
REMARK UNBOUND:                -1.315
REMARK  Name = 
REMARK  21 active torsions:
REMARK  status: ('A' for Active; 'I' for Inactive)
REMARK    1  A    between atoms: C_2  and  C_3
REMARK    2  A    between atoms: C_3  and  O_4
REMARK    3  A    between atoms: C_3  and  C_8
REMARK    4  A    between atoms: O_4  and  C_5
REMARK    5  A    between atoms: C_5  and  C_7
REMARK    6  A    between atoms: C_9  and  C_10
REMARK    7  A    between atoms: C_11  and  C_12
REMARK    8  A    between atoms: C_12  and  C_13
REMARK    9  A    between atoms: C_12  and  O_27
REMARK   10  A    between atoms: C_13  and  C_14
REMARK   11  A    between atoms: C_14  and  C_15
REMARK   12  A    between atoms: C_15  and  C_16
REMARK   13  A    between atoms: C_16  and  C_17
REMARK   14  A    between atoms: C_17  and  C_18
REMARK   15  A    between atoms: C_18  and  C_19
REMARK   16  A    between atoms: C_19  and  C_20
REMARK   17  A    between atoms: C_20  and  C_21
REMARK   18  A    between atoms: C_21  and  C_22
REMARK   19  A    between atoms: C_22  and  O_23
REMARK   20  A    between atoms: O_23  and  C_24
REMARK   21  A    between atoms: C_24  and  C_26
REMARK                            x       y       z     vdW  Elec       q    Type
REMARK                         _______ _______ _______ _____ _____    ______ ____
ROOT
ATOM      1  C   UNL     1      85.794  57.211  44.566  0.00  0.00    +0.116 C 
ENDROOT
BRANCH   1   2
ATOM      2  O   UNL     1      85.714  58.179  43.550  0.00  0.00    -0.379 OA
ATOM      3  H   UNL     1      86.595  58.325  43.171  0.00  0.00    +0.000 HD
ENDBRANCH   1   2
BRANCH   1   5
ATOM      4  C   UNL     1      86.850  54.951  43.594  0.00  0.00    -0.012 C 
ATOM      5  C   UNL     1      86.374  55.968  44.033  0.00  0.00    -0.057 C 
BRANCH   4   7
ATOM      6  C   UNL     1      87.884  52.743  42.642  0.00  0.00    -0.040 C 
ATOM      7  C   UNL     1      87.407  53.761  43.079  0.00  0.00    -0.011 C 
BRANCH   6   8
ATOM      8  C   UNL     1      88.463  51.501  42.116  0.00  0.00    +0.182 C 
BRANCH   8  10
ATOM      9  C   UNL     1      87.723  49.691  43.649  0.00  0.00    -0.098 C 
ATOM     10  C   UNL     1      87.578  50.348  42.494  0.00  0.00    -0.039 C 
ENDBRANCH   8  10
BRANCH   8  11
ATOM     11  O   UNL     1      88.545  51.571  40.694  0.00  0.00    -0.444 OA
BRANCH  11  12
ATOM     12  C   UNL     1      89.115  52.649  40.006  0.00  0.00    +0.305 C 
ATOM     13  O   UNL     1      88.509  53.194  39.044  0.00  0.00    -0.251 OA
ATOM     14  C   UNL     1      90.470  53.134  40.394  0.00  0.00    +0.033 C 
ENDBRANCH  11  12
ENDBRANCH   8  11
ENDBRANCH   6   8
ENDBRANCH   4   7
ENDBRANCH   1   5
BRANCH   1  15
ATOM     15  C   UNL     1      84.412  56.931  45.192  0.00  0.00    -0.016 C 
BRANCH  15  16
ATOM     16  C   UNL     1      84.454  56.774  46.722  0.00  0.00    -0.050 C 
BRANCH  16  17
ATOM     17  C   UNL     1      85.777  56.174  47.220  0.00  0.00    -0.053 C 
BRANCH  17  18
ATOM     18  C   UNL     1      85.525  54.917  48.066  0.00  0.00    -0.053 C 
BRANCH  18  19
ATOM     19  C   UNL     1      84.673  53.866  47.336  0.00  0.00    -0.053 C 
BRANCH  19  20
ATOM     20  C   UNL     1      85.526  52.855  46.551  0.00  0.00    -0.053 C 
BRANCH  20  21
ATOM     21  C   UNL     1      84.704  52.065  45.519  0.00  0.00    -0.053 C 
BRANCH  21  22
ATOM     22  C   UNL     1      84.172  52.957  44.382  0.00  0.00    -0.050 C 
BRANCH  22  23
ATOM     23  C   UNL     1      83.431  52.152  43.303  0.00  0.00    -0.019 C 
BRANCH  23  24
ATOM     24  C   UNL     1      84.252  51.991  42.016  0.00  0.00    +0.092 C 
BRANCH  24  25
ATOM     25  O   UNL     1      83.813  52.919  41.026  0.00  0.00    -0.465 OA
BRANCH  25  26
ATOM     26  C   UNL     1      84.457  54.135  40.772  0.00  0.00    +0.304 C 
ATOM     27  O   UNL     1      85.513  54.176  40.084  0.00  0.00    -0.251 OA
ATOM     28  C   UNL     1      83.919  55.388  41.377  0.00  0.00    +0.033 C 
ENDBRANCH  25  26
ENDBRANCH  24  25
ENDBRANCH  23  24
ENDBRANCH  22  23
ENDBRANCH  21  22
ENDBRANCH  20  21
ENDBRANCH  19  20
ENDBRANCH  18  19
ENDBRANCH  17  18
ENDBRANCH  16  17
ENDBRANCH  15  16
ENDBRANCH   1  15
TORSDOF 19
ENDMDL
MODEL 5
REMARK VINA RESULT:    -6.820      1.693      2.694
REMARK INTER + INTRA:         -15.512
REMARK INTER:                 -12.948
REMARK INTRA:                  -2.564
REMARK UNBOUND:                -1.315
REMARK  Name = 
REMARK  21 active torsions:
REMARK  status: ('A' for Active; 'I' for Inactive)
REMARK    1  A    between atoms: C_2  and  C_3
REMARK    2  A    between atoms: C_3  and  O_4
REMARK    3  A    between atoms: C_3  and  C_8
REMARK    4  A    between atoms: O_4  and  C_5
REMARK    5  A    between atoms: C_5  and  C_7
REMARK    6  A    between atoms: C_9  and  C_10
REMARK    7  A    between atoms: C_11  and  C_12
REMARK    8  A    between atoms: C_12  and  C_13
REMARK    9  A    between atoms: C_12  and  O_27
REMARK   10  A    between atoms: C_13  and  C_14
REMARK   11  A    between atoms: C_14  and  C_15
REMARK   12  A    between atoms: C_15  and  C_16
REMARK   13  A    between atoms: C_16  and  C_17
REMARK   14  A    between atoms: C_17  and  C_18
REMARK   15  A    between atoms: C_18  and  C_19
REMARK   16  A    between atoms: C_19  and  C_20
REMARK   17  A    between atoms: C_20  and  C_21
REMARK   18  A    between atoms: C_21  and  C_22
REMARK   19  A    between atoms: C_22  and  O_23
REMARK   20  A    between atoms: O_23  and  C_24
REMARK   21  A    between atoms: C_24  and  C_26
REMARK                            x       y       z     vdW  Elec       q    Type
REMARK                         _______ _______ _______ _____ _____    ______ ____
ROOT
ATOM      1  C   UNL     1      85.434  52.221  47.433  0.00  0.00    +0.116 C 
ENDROOT
BRANCH   1   2
ATOM      2  O   UNL     1      86.293  52.776  48.398  0.00  0.00    -0.379 OA
ATOM      3  H   UNL     1      86.542  53.675  48.131  0.00  0.00    +0.000 HD
ENDBRANCH   1   2
BRANCH   1   5
ATOM      4  C   UNL     1      86.787  51.734  45.175  0.00  0.00    -0.012 C 
ATOM      5  C   UNL     1      86.178  51.954  46.192  0.00  0.00    -0.057 C 
BRANCH   4   7
ATOM      6  C   UNL     1      88.108  51.255  42.967  0.00  0.00    -0.040 C 
ATOM      7  C   UNL     1      87.498  51.474  43.983  0.00  0.00    -0.011 C 
BRANCH   6   8
ATOM      8  C   UNL     1      88.856  50.988  41.732  0.00  0.00    +0.182 C 
BRANCH   8  10
ATOM      9  C   UNL     1      90.168  52.929  40.904  0.00  0.00    -0.098 C 
ATOM     10  C   UNL     1      89.007  52.270  40.963  0.00  0.00    -0.039 C 
ENDBRANCH   8  10
BRANCH   8  11
ATOM     11  O   UNL     1      90.152  50.487  42.050  0.00  0.00    -0.444 OA
BRANCH  11  12
ATOM     12  C   UNL     1      90.427  49.128  42.248  0.00  0.00    +0.305 C 
ATOM     13  O   UNL     1      90.440  48.324  41.277  0.00  0.00    -0.251 OA
ATOM     14  C   UNL     1      90.671  48.622  43.628  0.00  0.00    +0.033 C 
ENDBRANCH  11  12
ENDBRANCH   8  11
ENDBRANCH   6   8
ENDBRANCH   4   7
ENDBRANCH   1   5
BRANCH   1  15
ATOM     15  C   UNL     1      84.232  53.145  47.147  0.00  0.00    -0.016 C 
BRANCH  15  16
ATOM     16  C   UNL     1      83.538  53.657  48.422  0.00  0.00    -0.050 C 
BRANCH  16  17
ATOM     17  C   UNL     1      83.809  55.146  48.686  0.00  0.00    -0.053 C 
BRANCH  17  18
ATOM     18  C   UNL     1      83.907  55.928  47.367  0.00  0.00    -0.053 C 
BRANCH  18  19
ATOM     19  C   UNL     1      85.210  56.734  47.245  0.00  0.00    -0.053 C 
BRANCH  19  20
ATOM     20  C   UNL     1      86.403  55.867  46.807  0.00  0.00    -0.053 C 
BRANCH  20  21
ATOM     21  C   UNL     1      86.364  55.523  45.308  0.00  0.00    -0.053 C 
BRANCH  21  22
ATOM     22  C   UNL     1      86.649  56.745  44.417  0.00  0.00    -0.050 C 
BRANCH  22  23
ATOM     23  C   UNL     1      85.366  57.352  43.826  0.00  0.00    -0.019 C 
BRANCH  23  24
ATOM     24  C   UNL     1      84.417  56.291  43.255  0.00  0.00    +0.092 C 
BRANCH  24  25
ATOM     25  O   UNL     1      85.009  55.648  42.127  0.00  0.00    -0.465 OA
BRANCH  25  26
ATOM     26  C   UNL     1      85.159  54.261  42.022  0.00  0.00    +0.304 C 
ATOM     27  O   UNL     1      85.953  53.759  41.180  0.00  0.00    -0.251 OA
ATOM     28  C   UNL     1      84.321  53.368  42.872  0.00  0.00    +0.033 C 
ENDBRANCH  25  26
ENDBRANCH  24  25
ENDBRANCH  23  24
ENDBRANCH  22  23
ENDBRANCH  21  22
ENDBRANCH  20  21
ENDBRANCH  19  20
ENDBRANCH  18  19
ENDBRANCH  17  18
ENDBRANCH  16  17
ENDBRANCH  15  16
ENDBRANCH   1  15
TORSDOF 19
ENDMDL
MODEL 6
REMARK VINA RESULT:    -6.761      3.383      6.120
REMARK INTER + INTRA:         -15.390
REMARK INTER:                 -12.530
REMARK INTRA:                  -2.860
REMARK UNBOUND:                -1.315
REMARK  Name = 
REMARK  21 active torsions:
REMARK  status: ('A' for Active; 'I' for Inactive)
REMARK    1  A    between atoms: C_2  and  C_3
REMARK    2  A    between atoms: C_3  and  O_4
REMARK    3  A    between atoms: C_3  and  C_8
REMARK    4  A    between atoms: O_4  and  C_5
REMARK    5  A    between atoms: C_5  and  C_7
REMARK    6  A    between atoms: C_9  and  C_10
REMARK    7  A    between atoms: C_11  and  C_12
REMARK    8  A    between atoms: C_12  and  C_13
REMARK    9  A    between atoms: C_12  and  O_27
REMARK   10  A    between atoms: C_13  and  C_14
REMARK   11  A    between atoms: C_14  and  C_15
REMARK   12  A    between atoms: C_15  and  C_16
REMARK   13  A    between atoms: C_16  and  C_17
REMARK   14  A    between atoms: C_17  and  C_18
REMARK   15  A    between atoms: C_18  and  C_19
REMARK   16  A    between atoms: C_19  and  C_20
REMARK   17  A    between atoms: C_20  and  C_21
REMARK   18  A    between atoms: C_21  and  C_22
REMARK   19  A    between atoms: C_22  and  O_23
REMARK   20  A    between atoms: O_23  and  C_24
REMARK   21  A    between atoms: C_24  and  C_26
REMARK                            x       y       z     vdW  Elec       q    Type
REMARK                         _______ _______ _______ _____ _____    ______ ____
ROOT
ATOM      1  C   UNL     1      84.906  56.013  45.123  0.00  0.00    +0.116 C 
ENDROOT
BRANCH   1   2
ATOM      2  O   UNL     1      83.884  56.797  44.560  0.00  0.00    -0.379 OA
ATOM      3  H   UNL     1      83.400  56.274  43.902  0.00  0.00    +0.000 HD
ENDBRANCH   1   2
BRANCH   1   5
ATOM      4  C   UNL     1      84.425  53.419  44.669  0.00  0.00    -0.012 C 
ATOM      5  C   UNL     1      84.641  54.587  44.874  0.00  0.00    -0.057 C 
BRANCH   4   7
ATOM      6  C   UNL     1      83.953  50.883  44.222  0.00  0.00    -0.040 C 
ATOM      7  C   UNL     1      84.172  52.051  44.427  0.00  0.00    -0.011 C 
BRANCH   6   8
ATOM      8  C   UNL     1      83.681  49.462  43.973  0.00  0.00    +0.182 C 
BRANCH   8  10
ATOM      9  C   UNL     1      85.265  47.553  43.816  0.00  0.00    -0.098 C 
ATOM     10  C   UNL     1      84.846  48.648  44.459  0.00  0.00    -0.039 C 
ENDBRANCH   8  10
BRANCH   8  11
ATOM     11  O   UNL     1      82.512  49.062  44.684  0.00  0.00    -0.444 OA
BRANCH  11  12
ATOM     12  C   UNL     1      81.360  48.569  44.058  0.00  0.00    +0.305 C 
ATOM     13  O   UNL     1      81.322  47.390  43.612  0.00  0.00    -0.251 OA
ATOM     14  C   UNL     1      80.179  49.461  43.886  0.00  0.00    +0.033 C 
ENDBRANCH  11  12
ENDBRANCH   8  11
ENDBRANCH   6   8
ENDBRANCH   4   7
ENDBRANCH   1   5
BRANCH   1  15
ATOM     15  C   UNL     1      85.052  56.274  46.636  0.00  0.00    -0.016 C 
BRANCH  15  16
ATOM     16  C   UNL     1      83.755  56.028  47.427  0.00  0.00    -0.050 C 
BRANCH  16  17
ATOM     17  C   UNL     1      83.978  55.162  48.676  0.00  0.00    -0.053 C 
BRANCH  17  18
ATOM     18  C   UNL     1      83.847  53.669  48.339  0.00  0.00    -0.053 C 
BRANCH  18  19
ATOM     19  C   UNL     1      85.042  52.837  48.831  0.00  0.00    -0.053 C 
BRANCH  19  20
ATOM     20  C   UNL     1      85.975  52.408  47.686  0.00  0.00    -0.053 C 
BRANCH  20  21
ATOM     21  C   UNL     1      86.801  51.159  48.036  0.00  0.00    -0.053 C 
BRANCH  21  22
ATOM     22  C   UNL     1      87.222  50.362  46.788  0.00  0.00    -0.050 C 
BRANCH  22  23
ATOM     23  C   UNL     1      87.459  51.267  45.567  0.00  0.00    -0.019 C 
BRANCH  23  24
ATOM     24  C   UNL     1      87.925  50.485  44.332  0.00  0.00    +0.092 C 
BRANCH  24  25
ATOM     25  O   UNL     1      87.419  51.087  43.141  0.00  0.00    -0.465 OA
BRANCH  25  26
ATOM     26  C   UNL     1      88.052  50.984  41.897  0.00  0.00    +0.304 C 
ATOM     27  O   UNL     1      87.564  50.267  40.981  0.00  0.00    -0.251 OA
ATOM     28  C   UNL     1      89.353  51.680  41.679  0.00  0.00    +0.033 C 
ENDBRANCH  25  26
ENDBRANCH  24  25
ENDBRANCH  23  24
ENDBRANCH  22  23
ENDBRANCH  21  22
ENDBRANCH  20  21
ENDBRANCH  19  20
ENDBRANCH  18  19
ENDBRANCH  17  18
ENDBRANCH  16  17
ENDBRANCH  15  16
ENDBRANCH   1  15
TORSDOF 19
ENDMDL
MODEL 7
REMARK VINA RESULT:    -6.760      2.523      6.049
REMARK INTER + INTRA:         -15.387
REMARK INTER:                 -13.046
REMARK INTRA:                  -2.342
REMARK UNBOUND:                -1.315
REMARK  Name = 
REMARK  21 active torsions:
REMARK  status: ('A' for Active; 'I' for Inactive)
REMARK    1  A    between atoms: C_2  and  C_3
REMARK    2  A    between atoms: C_3  and  O_4
REMARK    3  A    between atoms: C_3  and  C_8
REMARK    4  A    between atoms: O_4  and  C_5
REMARK    5  A    between atoms: C_5  and  C_7
REMARK    6  A    between atoms: C_9  and  C_10
REMARK    7  A    between atoms: C_11  and  C_12
REMARK    8  A    between atoms: C_12  and  C_13
REMARK    9  A    between atoms: C_12  and  O_27
REMARK   10  A    between atoms: C_13  and  C_14
REMARK   11  A    between atoms: C_14  and  C_15
REMARK   12  A    between atoms: C_15  and  C_16
REMARK   13  A    between atoms: C_16  and  C_17
REMARK   14  A    between atoms: C_17  and  C_18
REMARK   15  A    between atoms: C_18  and  C_19
REMARK   16  A    between atoms: C_19  and  C_20
REMARK   17  A    between atoms: C_20  and  C_21
REMARK   18  A    between atoms: C_21  and  C_22
REMARK   19  A    between atoms: C_22  and  O_23
REMARK   20  A    between atoms: O_23  and  C_24
REMARK   21  A    between atoms: C_24  and  C_26
REMARK                            x       y       z     vdW  Elec       q    Type
REMARK                         _______ _______ _______ _____ _____    ______ ____
ROOT
ATOM      1  C   UNL     1      85.062  58.384  45.421  0.00  0.00    +0.116 C 
ENDROOT
BRANCH   1   2
ATOM      2  O   UNL     1      83.851  59.096  45.471  0.00  0.00    -0.379 OA
ATOM      3  H   UNL     1      83.137  58.501  45.748  0.00  0.00    +0.000 HD
ENDBRANCH   1   2
BRANCH   1   5
ATOM      4  C   UNL     1      84.915  56.458  43.568  0.00  0.00    -0.012 C 
ATOM      5  C   UNL     1      84.981  57.326  44.402  0.00  0.00    -0.057 C 
BRANCH   4   7
ATOM      6  C   UNL     1      84.767  54.572  41.758  0.00  0.00    -0.040 C 
ATOM      7  C   UNL     1      84.837  55.441  42.592  0.00  0.00    -0.011 C 
BRANCH   6   8
ATOM      8  C   UNL     1      84.678  53.519  40.740  0.00  0.00    +0.182 C 
BRANCH   8  10
ATOM      9  C   UNL     1      82.402  53.207  41.689  0.00  0.00    -0.098 C 
ATOM     10  C   UNL     1      83.414  52.735  40.954  0.00  0.00    -0.039 C 
ENDBRANCH   8  10
BRANCH   8  11
ATOM     11  O   UNL     1      84.643  54.103  39.440  0.00  0.00    -0.444 OA
BRANCH  11  12
ATOM     12  C   UNL     1      84.240  55.423  39.199  0.00  0.00    +0.305 C 
ATOM     13  O   UNL     1      85.084  56.357  39.152  0.00  0.00    -0.251 OA
ATOM     14  C   UNL     1      82.791  55.729  39.032  0.00  0.00    +0.033 C 
ENDBRANCH  11  12
ENDBRANCH   8  11
ENDBRANCH   6   8
ENDBRANCH   4   7
ENDBRANCH   1   5
BRANCH   1  15
ATOM     15  C   UNL     1      85.420  57.778  46.794  0.00  0.00    -0.016 C 
BRANCH  15  16
ATOM     16  C   UNL     1      85.026  56.297  46.929  0.00  0.00    -0.050 C 
BRANCH  16  17
ATOM     17  C   UNL     1      83.690  56.103  47.663  0.00  0.00    -0.053 C 
BRANCH  17  18
ATOM     18  C   UNL     1      83.838  55.098  48.815  0.00  0.00    -0.053 C 
BRANCH  18  19
ATOM     19  C   UNL     1      83.723  53.636  48.352  0.00  0.00    -0.053 C 
BRANCH  19  20
ATOM     20  C   UNL     1      85.079  52.910  48.346  0.00  0.00    -0.053 C 
BRANCH  20  21
ATOM     21  C   UNL     1      85.667  52.770  46.932  0.00  0.00    -0.053 C 
BRANCH  21  22
ATOM     22  C   UNL     1      84.579  52.717  45.845  0.00  0.00    -0.050 C 
BRANCH  22  23
ATOM     23  C   UNL     1      85.122  52.212  44.497  0.00  0.00    -0.019 C 
BRANCH  23  24
ATOM     24  C   UNL     1      86.579  51.741  44.584  0.00  0.00    +0.092 C 
BRANCH  24  25
ATOM     25  O   UNL     1      87.444  52.672  43.935  0.00  0.00    -0.465 OA
BRANCH  25  26
ATOM     26  C   UNL     1      87.808  52.573  42.588  0.00  0.00    +0.304 C 
ATOM     27  O   UNL     1      88.349  53.545  41.992  0.00  0.00    -0.251 OA
ATOM     28  C   UNL     1      87.495  51.326  41.834  0.00  0.00    +0.033 C 
ENDBRANCH  25  26
ENDBRANCH  24  25
ENDBRANCH  23  24
ENDBRANCH  22  23
ENDBRANCH  21  22
ENDBRANCH  20  21
ENDBRANCH  19  20
ENDBRANCH  18  19
ENDBRANCH  17  18
ENDBRANCH  16  17
ENDBRANCH  15  16
ENDBRANCH   1  15
TORSDOF 19
ENDMDL
MODEL 8
REMARK VINA RESULT:    -6.739      3.190      9.555
REMARK INTER + INTRA:         -15.343
REMARK INTER:                 -14.028
REMARK INTRA:                  -1.315
REMARK UNBOUND:                -1.315
REMARK  Name = 
REMARK  21 active torsions:
REMARK  status: ('A' for Active; 'I' for Inactive)
REMARK    1  A    between atoms: C_2  and  C_3
REMARK    2  A    between atoms: C_3  and  O_4
REMARK    3  A    between atoms: C_3  and  C_8
REMARK    4  A    between atoms: O_4  and  C_5
REMARK    5  A    between atoms: C_5  and  C_7
REMARK    6  A    between atoms: C_9  and  C_10
REMARK    7  A    between atoms: C_11  and  C_12
REMARK    8  A    between atoms: C_12  and  C_13
REMARK    9  A    between atoms: C_12  and  O_27
REMARK   10  A    between atoms: C_13  and  C_14
REMARK   11  A    between atoms: C_14  and  C_15
REMARK   12  A    between atoms: C_15  and  C_16
REMARK   13  A    between atoms: C_16  and  C_17
REMARK   14  A    between atoms: C_17  and  C_18
REMARK   15  A    between atoms: C_18  and  C_19
REMARK   16  A    between atoms: C_19  and  C_20
REMARK   17  A    between atoms: C_20  and  C_21
REMARK   18  A    between atoms: C_21  and  C_22
REMARK   19  A    between atoms: C_22  and  O_23
REMARK   20  A    between atoms: O_23  and  C_24
REMARK   21  A    between atoms: C_24  and  C_26
REMARK                            x       y       z     vdW  Elec       q    Type
REMARK                         _______ _______ _______ _____ _____    ______ ____
ROOT
ATOM      1  C   UNL     1      88.146  51.865  40.088  0.00  0.00    +0.116 C 
ENDROOT
BRANCH   1   2
ATOM      2  O   UNL     1      88.343  52.693  38.970  0.00  0.00    -0.379 OA
ATOM      3  H   UNL     1      88.798  52.194  38.273  0.00  0.00    +0.000 HD
ENDBRANCH   1   2
BRANCH   1   5
ATOM      4  C   UNL     1      87.231  53.312  42.147  0.00  0.00    -0.012 C 
ATOM      5  C   UNL     1      87.643  52.660  41.220  0.00  0.00    -0.057 C 
BRANCH   4   7
ATOM      6  C   UNL     1      86.331  54.730  44.155  0.00  0.00    -0.040 C 
ATOM      7  C   UNL     1      86.747  54.077  43.230  0.00  0.00    -0.011 C 
BRANCH   6   8
ATOM      8  C   UNL     1      85.820  55.521  45.280  0.00  0.00    +0.182 C 
BRANCH   8  10
ATOM      9  C   UNL     1      85.702  55.139  47.733  0.00  0.00    -0.098 C 
ATOM     10  C   UNL     1      86.317  54.924  46.566  0.00  0.00    -0.039 C 
ENDBRANCH   8  10
BRANCH   8  11
ATOM     11  O   UNL     1      86.294  56.863  45.183  0.00  0.00    -0.444 OA
BRANCH  11  12
ATOM     12  C   UNL     1      85.512  57.925  44.711  0.00  0.00    +0.305 C 
ATOM     13  O   UNL     1      85.599  58.307  43.513  0.00  0.00    -0.251 OA
ATOM     14  C   UNL     1      84.594  58.633  45.647  0.00  0.00    +0.033 C 
ENDBRANCH  11  12
ENDBRANCH   8  11
ENDBRANCH   6   8
ENDBRANCH   4   7
ENDBRANCH   1   5
BRANCH   1  15
ATOM     15  C   UNL     1      89.443  51.130  40.485  0.00  0.00    -0.016 C 
BRANCH  15  16
ATOM     16  C   UNL     1      89.253  50.135  41.643  0.00  0.00    -0.050 C 
BRANCH  16  17
ATOM     17  C   UNL     1      90.290  49.002  41.627  0.00  0.00    -0.053 C 
BRANCH  17  18
ATOM     18  C   UNL     1      90.204  48.163  42.911  0.00  0.00    -0.053 C 
BRANCH  18  19
ATOM     19  C   UNL     1      89.738  46.721  42.654  0.00  0.00    -0.053 C 
BRANCH  19  20
ATOM     20  C   UNL     1      88.325  46.655  42.050  0.00  0.00    -0.053 C 
BRANCH  20  21
ATOM     21  C   UNL     1      87.263  47.288  42.964  0.00  0.00    -0.053 C 
BRANCH  21  22
ATOM     22  C   UNL     1      85.923  46.532  42.921  0.00  0.00    -0.050 C 
BRANCH  22  23
ATOM     23  C   UNL     1      85.348  46.276  44.324  0.00  0.00    -0.019 C 
BRANCH  23  24
ATOM     24  C   UNL     1      85.387  44.794  44.719  0.00  0.00    +0.092 C 
BRANCH  24  25
ATOM     25  O   UNL     1      86.731  44.316  44.730  0.00  0.00    -0.465 OA
BRANCH  25  26
ATOM     26  C   UNL     1      87.186  43.277  43.911  0.00  0.00    +0.304 C 
ATOM     27  O   UNL     1      86.933  43.270  42.675  0.00  0.00    -0.251 OA
ATOM     28  C   UNL     1      87.924  42.134  44.520  0.00  0.00    +0.033 C 
ENDBRANCH  25  26
ENDBRANCH  24  25
ENDBRANCH  23  24
ENDBRANCH  22  23
ENDBRANCH  21  22
ENDBRANCH  20  21
ENDBRANCH  19  20
ENDBRANCH  18  19
ENDBRANCH  17  18
ENDBRANCH  16  17
ENDBRANCH  15  16
ENDBRANCH   1  15
TORSDOF 19
ENDMDL
MODEL 9
REMARK VINA RESULT:    -6.737      4.167      5.506
REMARK INTER + INTRA:         -15.340
REMARK INTER:                 -13.322
REMARK INTRA:                  -2.017
REMARK UNBOUND:                -1.315
REMARK  Name = 
REMARK  21 active torsions:
REMARK  status: ('A' for Active; 'I' for Inactive)
REMARK    1  A    between atoms: C_2  and  C_3
REMARK    2  A    between atoms: C_3  and  O_4
REMARK    3  A    between atoms: C_3  and  C_8
REMARK    4  A    between atoms: O_4  and  C_5
REMARK    5  A    between atoms: C_5  and  C_7
REMARK    6  A    between atoms: C_9  and  C_10
REMARK    7  A    between atoms: C_11  and  C_12
REMARK    8  A    between atoms: C_12  and  C_13
REMARK    9  A    between atoms: C_12  and  O_27
REMARK   10  A    between atoms: C_13  and  C_14
REMARK   11  A    between atoms: C_14  and  C_15
REMARK   12  A    between atoms: C_15  and  C_16
REMARK   13  A    between atoms: C_16  and  C_17
REMARK   14  A    between atoms: C_17  and  C_18
REMARK   15  A    between atoms: C_18  and  C_19
REMARK   16  A    between atoms: C_19  and  C_20
REMARK   17  A    between atoms: C_20  and  C_21
REMARK   18  A    between atoms: C_21  and  C_22
REMARK   19  A    between atoms: C_22  and  O_23
REMARK   20  A    between atoms: O_23  and  C_24
REMARK   21  A    between atoms: C_24  and  C_26
REMARK                            x       y       z     vdW  Elec       q    Type
REMARK                         _______ _______ _______ _____ _____    ______ ____
ROOT
ATOM      1  C   UNL     1      81.404  46.718  44.080  0.00  0.00    +0.116 C 
ENDROOT
BRANCH   1   2
ATOM      2  O   UNL     1      81.155  46.311  45.403  0.00  0.00    -0.379 OA
ATOM      3  H   UNL     1      81.967  46.398  45.926  0.00  0.00    +0.000 HD
ENDBRANCH   1   2
BRANCH   1   5
ATOM      4  C   UNL     1      84.011  46.469  43.522  0.00  0.00    -0.012 C 
ATOM      5  C   UNL     1      82.837  46.580  43.774  0.00  0.00    -0.057 C 
BRANCH   4   7
ATOM      6  C   UNL     1      86.560  46.232  42.978  0.00  0.00    -0.040 C 
ATOM      7  C   UNL     1      85.385  46.341  43.227  0.00  0.00    -0.011 C 
BRANCH   6   8
ATOM      8  C   UNL     1      87.991  46.100  42.680  0.00  0.00    +0.182 C 
BRANCH   8  10
ATOM      9  C   UNL     1      87.988  43.689  43.286  0.00  0.00    -0.098 C 
ATOM     10  C   UNL     1      88.305  44.654  42.417  0.00  0.00    -0.039 C 
ENDBRANCH   8  10
BRANCH   8  11
ATOM     11  O   UNL     1      88.316  46.859  41.518  0.00  0.00    -0.444 OA
BRANCH  11  12
ATOM     12  C   UNL     1      88.434  48.255  41.517  0.00  0.00    +0.305 C 
ATOM     13  O   UNL     1      87.569  48.975  40.950  0.00  0.00    -0.251 OA
ATOM     14  C   UNL     1      89.616  48.892  42.164  0.00  0.00    +0.033 C 
ENDBRANCH  11  12
ENDBRANCH   8  11
ENDBRANCH   6   8
ENDBRANCH   4   7
ENDBRANCH   1   5
BRANCH   1  15
ATOM     15  C   UNL     1      80.942  48.170  43.838  0.00  0.00    -0.016 C 
BRANCH  15  16
ATOM     16  C   UNL     1      81.733  49.207  44.654  0.00  0.00    -0.050 C 
BRANCH  16  17
ATOM     17  C   UNL     1      82.509  50.193  43.767  0.00  0.00    -0.053 C 
BRANCH  17  18
ATOM     18  C   UNL     1      81.745  50.476  42.465  0.00  0.00    -0.053 C 
BRANCH  18  19
ATOM     19  C   UNL     1      81.492  51.975  42.234  0.00  0.00    -0.053 C 
BRANCH  19  20
ATOM     20  C   UNL     1      82.764  52.822  42.403  0.00  0.00    -0.053 C 
BRANCH  20  21
ATOM     21  C   UNL     1      83.409  53.195  41.058  0.00  0.00    -0.053 C 
BRANCH  21  22
ATOM     22  C   UNL     1      84.941  53.314  41.152  0.00  0.00    -0.050 C 
BRANCH  22  23
ATOM     23  C   UNL     1      85.544  52.332  42.169  0.00  0.00    -0.019 C 
BRANCH  23  24
ATOM     24  C   UNL     1      87.052  52.125  41.970  0.00  0.00    +0.092 C 
BRANCH  24  25
ATOM     25  O   UNL     1      87.457  52.609  40.691  0.00  0.00    -0.465 OA
BRANCH  25  26
ATOM     26  C   UNL     1      88.712  52.346  40.130  0.00  0.00    +0.304 C 
ATOM     27  O   UNL     1      88.838  51.519  39.186  0.00  0.00    -0.251 OA
ATOM     28  C   UNL     1      89.921  53.005  40.701  0.00  0.00    +0.033 C 
ENDBRANCH  25  26
ENDBRANCH  24  25
ENDBRANCH  23  24
ENDBRANCH  22  23
ENDBRANCH  21  22
ENDBRANCH  20  21
ENDBRANCH  19  20
ENDBRANCH  18  19
ENDBRANCH  17  18
ENDBRANCH  16  17
ENDBRANCH  15  16
ENDBRANCH   1  15
TORSDOF 19
ENDMDL
