MODEL 1
REMARK VINA RESULT:    -6.518      0.000      0.000
REMARK INTER + INTRA:         -16.127
REMARK INTER:                 -12.646
REMARK INTRA:                  -3.480
REMARK UNBOUND:                -2.559
REMARK  Name = 
REMARK  21 active torsions:
REMARK  status: ('A' for Active; 'I' for Inactive)
REMARK    1  A    between atoms: C_2  and  C_3
REMARK    2  A    between atoms: C_3  and  O_4
REMARK    3  A    between atoms: C_3  and  C_8
REMARK    4  A    between atoms: O_4  and  C_5
REMARK    5  A    between atoms: C_5  and  C_7
REMARK    6  A    between atoms: C_9  and  C_10
REMARK    7  A    between atoms: C_11  and  C_12
REMARK    8  A    between atoms: C_12  and  C_13
REMARK    9  A    between atoms: C_12  and  O_27
REMARK   10  A    between atoms: C_13  and  C_14
REMARK   11  A    between atoms: C_14  and  C_15
REMARK   12  A    between atoms: C_15  and  C_16
REMARK   13  A    between atoms: C_16  and  C_17
REMARK   14  A    between atoms: C_17  and  C_18
REMARK   15  A    between atoms: C_18  and  C_19
REMARK   16  A    between atoms: C_19  and  C_20
REMARK   17  A    between atoms: C_20  and  C_21
REMARK   18  A    between atoms: C_21  and  C_22
REMARK   19  A    between atoms: C_22  and  O_23
REMARK   20  A    between atoms: O_23  and  C_24
REMARK   21  A    between atoms: C_24  and  C_26
REMARK                            x       y       z     vdW  Elec       q    Type
REMARK                         _______ _______ _______ _____ _____    ______ ____
ROOT
ATOM      1  C   UNL     1      85.991  57.077  44.260  0.00  0.00    +0.116 C 
ENDROOT
BRANCH   1   2
ATOM      2  O   UNL     1      85.144  57.734  43.350  0.00  0.00    -0.379 OA
ATOM      3  H   UNL     1      85.675  58.288  42.757  0.00  0.00    +0.000 HD
ENDBRANCH   1   2
BRANCH   1   5
ATOM      4  C   UNL     1      86.838  54.763  43.213  0.00  0.00    -0.012 C 
ATOM      5  C   UNL     1      86.457  55.805  43.684  0.00  0.00    -0.057 C 
BRANCH   4   7
ATOM      6  C   UNL     1      87.666  52.497  42.196  0.00  0.00    -0.040 C 
ATOM      7  C   UNL     1      87.283  53.541  42.664  0.00  0.00    -0.011 C 
BRANCH   6   8
ATOM      8  C   UNL     1      88.134  51.226  41.632  0.00  0.00    +0.182 C 
BRANCH   8  10
ATOM      9  C   UNL     1      86.955  49.575  43.067  0.00  0.00    -0.098 C 
ATOM     10  C   UNL     1      87.096  50.168  41.878  0.00  0.00    -0.039 C 
ENDBRANCH   8  10
BRANCH   8  11
ATOM     11  O   UNL     1      88.328  51.363  40.226  0.00  0.00    -0.444 OA
BRANCH  11  12
ATOM     12  C   UNL     1      88.941  52.475  39.636  0.00  0.00    +0.305 C 
ATOM     13  O   UNL     1      88.312  53.202  38.820  0.00  0.00    -0.251 OA
ATOM     14  C   UNL     1      90.365  52.781  39.951  0.00  0.00    +0.033 C 
ENDBRANCH  11  12
ENDBRANCH   8  11
ENDBRANCH   6   8
ENDBRANCH   4   7
ENDBRANCH   1   5
BRANCH   1  15
ATOM     15  C   UNL     1      85.288  56.827  45.610  0.00  0.00    -0.016 C 
BRANCH  15  16
ATOM     16  C   UNL     1      86.157  56.056  46.619  0.00  0.00    -0.050 C 
BRANCH  16  17
ATOM     17  C   UNL     1      85.324  55.327  47.684  0.00  0.00    -0.053 C 
BRANCH  17  18
ATOM     18  C   UNL     1      84.459  54.229  47.046  0.00  0.00    -0.053 C 
BRANCH  18  19
ATOM     19  C   UNL     1      85.081  52.829  47.170  0.00  0.00    -0.053 C 
BRANCH  19  20
ATOM     20  C   UNL     1      85.665  52.321  45.841  0.00  0.00    -0.053 C 
BRANCH  20  21
ATOM     21  C   UNL     1      84.623  51.589  44.980  0.00  0.00    -0.053 C 
BRANCH  21  22
ATOM     22  C   UNL     1      84.067  52.474  43.849  0.00  0.00    -0.050 C 
BRANCH  22  23
ATOM     23  C   UNL     1      83.668  51.658  42.609  0.00  0.00    -0.019 C 
BRANCH  23  24
ATOM     24  C   UNL     1      83.200  52.540  41.444  0.00  0.00    +0.092 C 
BRANCH  24  25
ATOM     25  O   UNL     1      84.301  52.877  40.601  0.00  0.00    -0.465 OA
BRANCH  25  26
ATOM     26  C   UNL     1      84.549  54.175  40.139  0.00  0.00    +0.304 C 
ATOM     27  O   UNL     1      85.220  54.370  39.089  0.00  0.00    -0.251 OA
ATOM     28  C   UNL     1      84.066  55.339  40.935  0.00  0.00    +0.033 C 
ENDBRANCH  25  26
ENDBRANCH  24  25
ENDBRANCH  23  24
ENDBRANCH  22  23
ENDBRANCH  21  22
ENDBRANCH  20  21
ENDBRANCH  19  20
ENDBRANCH  18  19
ENDBRANCH  17  18
ENDBRANCH  16  17
ENDBRANCH  15  16
ENDBRANCH   1  15
TORSDOF 19
ENDMDL
MODEL 2
REMARK VINA RESULT:    -6.410      2.088      3.433
REMARK INTER + INTRA:         -15.902
REMARK INTER:                 -13.795
REMARK INTRA:                  -2.106
REMARK UNBOUND:                -2.559
REMARK  Name = 
REMARK  21 active torsions:
REMARK  status: ('A' for Active; 'I' for Inactive)
REMARK    1  A    between atoms: C_2  and  C_3
REMARK    2  A    between atoms: C_3  and  O_4
REMARK    3  A    between atoms: C_3  and  C_8
REMARK    4  A    between atoms: O_4  and  C_5
REMARK    5  A    between atoms: C_5  and  C_7
REMARK    6  A    between atoms: C_9  and  C_10
REMARK    7  A    between atoms: C_11  and  C_12
REMARK    8  A    between atoms: C_12  and  C_13
REMARK    9  A    between atoms: C_12  and  O_27
REMARK   10  A    between atoms: C_13  and  C_14
REMARK   11  A    between atoms: C_14  and  C_15
REMARK   12  A    between atoms: C_15  and  C_16
REMARK   13  A    between atoms: C_16  and  C_17
REMARK   14  A    between atoms: C_17  and  C_18
REMARK   15  A    between atoms: C_18  and  C_19
REMARK   16  A    between atoms: C_19  and  C_20
REMARK   17  A    between atoms: C_20  and  C_21
REMARK   18  A    between atoms: C_21  and  C_22
REMARK   19  A    between atoms: C_22  and  O_23
REMARK   20  A    between atoms: O_23  and  C_24
REMARK   21  A    between atoms: C_24  and  C_26
REMARK                            x       y       z     vdW  Elec       q    Type
REMARK                         _______ _______ _______ _____ _____    ______ ____
ROOT
ATOM      1  C   UNL     1      85.603  52.423  47.992  0.00  0.00    +0.116 C 
ENDROOT
BRANCH   1   2
ATOM      2  O   UNL     1      86.320  51.860  49.062  0.00  0.00    -0.379 OA
ATOM      3  H   UNL     1      85.998  50.961  49.231  0.00  0.00    +0.000 HD
ENDBRANCH   1   2
BRANCH   1   5
ATOM      4  C   UNL     1      86.818  51.853  45.676  0.00  0.00    -0.012 C 
ATOM      5  C   UNL     1      86.270  52.109  46.719  0.00  0.00    -0.057 C 
BRANCH   4   7
ATOM      6  C   UNL     1      88.009  51.302  43.411  0.00  0.00    -0.040 C 
ATOM      7  C   UNL     1      87.459  51.555  44.454  0.00  0.00    -0.011 C 
BRANCH   6   8
ATOM      8  C   UNL     1      88.684  50.996  42.144  0.00  0.00    +0.182 C 
BRANCH   8  10
ATOM      9  C   UNL     1      88.931  48.632  41.417  0.00  0.00    -0.098 C 
ATOM     10  C   UNL     1      88.149  49.700  41.604  0.00  0.00    -0.039 C 
ENDBRANCH   8  10
BRANCH   8  11
ATOM     11  O   UNL     1      88.425  52.030  41.196  0.00  0.00    -0.444 OA
BRANCH  11  12
ATOM     12  C   UNL     1      89.236  52.273  40.080  0.00  0.00    +0.305 C 
ATOM     13  O   UNL     1      89.062  51.639  39.005  0.00  0.00    -0.251 OA
ATOM     14  C   UNL     1      90.341  53.269  40.179  0.00  0.00    +0.033 C 
ENDBRANCH  11  12
ENDBRANCH   8  11
ENDBRANCH   6   8
ENDBRANCH   4   7
ENDBRANCH   1   5
BRANCH   1  15
ATOM     15  C   UNL     1      85.450  53.950  48.153  0.00  0.00    -0.016 C 
BRANCH  15  16
ATOM     16  C   UNL     1      84.379  54.557  47.231  0.00  0.00    -0.050 C 
BRANCH  16  17
ATOM     17  C   UNL     1      84.395  56.094  47.236  0.00  0.00    -0.053 C 
BRANCH  17  18
ATOM     18  C   UNL     1      85.712  56.629  46.656  0.00  0.00    -0.053 C 
BRANCH  18  19
ATOM     19  C   UNL     1      85.499  57.597  45.481  0.00  0.00    -0.053 C 
BRANCH  19  20
ATOM     20  C   UNL     1      86.337  57.222  44.247  0.00  0.00    -0.053 C 
BRANCH  20  21
ATOM     21  C   UNL     1      86.824  55.764  44.286  0.00  0.00    -0.053 C 
BRANCH  21  22
ATOM     22  C   UNL     1      85.966  54.833  43.409  0.00  0.00    -0.050 C 
BRANCH  22  23
ATOM     23  C   UNL     1      84.639  55.484  42.987  0.00  0.00    -0.019 C 
BRANCH  23  24
ATOM     24  C   UNL     1      83.931  54.713  41.865  0.00  0.00    +0.092 C 
BRANCH  24  25
ATOM     25  O   UNL     1      83.948  55.469  40.654  0.00  0.00    -0.465 OA
BRANCH  25  26
ATOM     26  C   UNL     1      84.431  54.968  39.440  0.00  0.00    +0.304 C 
ATOM     27  O   UNL     1      85.297  54.051  39.419  0.00  0.00    -0.251 OA
ATOM     28  C   UNL     1      83.962  55.572  38.161  0.00  0.00    +0.033 C 
ENDBRANCH  25  26
ENDBRANCH  24  25
ENDBRANCH  23  24
ENDBRANCH  22  23
ENDBRANCH  21  22
ENDBRANCH  20  21
ENDBRANCH  19  20
ENDBRANCH  18  19
ENDBRANCH  17  18
ENDBRANCH  16  17
ENDBRANCH  15  16
ENDBRANCH   1  15
TORSDOF 19
ENDMDL
MODEL 3
REMARK VINA RESULT:    -6.249      2.399      3.887
REMARK INTER + INTRA:         -15.566
REMARK INTER:                 -13.395
REMARK INTRA:                  -2.171
REMARK UNBOUND:                -2.559
REMARK  Name = 
REMARK  21 active torsions:
REMARK  status: ('A' for Active; 'I' for Inactive)
REMARK    1  A    between atoms: C_2  and  C_3
REMARK    2  A    between atoms: C_3  and  O_4
REMARK    3  A    between atoms: C_3  and  C_8
REMARK    4  A    between atoms: O_4  and  C_5
REMARK    5  A    between atoms: C_5  and  C_7
REMARK    6  A    between atoms: C_9  and  C_10
REMARK    7  A    between atoms: C_11  and  C_12
REMARK    8  A    between atoms: C_12  and  C_13
REMARK    9  A    between atoms: C_12  and  O_27
REMARK   10  A    between atoms: C_13  and  C_14
REMARK   11  A    between atoms: C_14  and  C_15
REMARK   12  A    between atoms: C_15  and  C_16
REMARK   13  A    between atoms: C_16  and  C_17
REMARK   14  A    between atoms: C_17  and  C_18
REMARK   15  A    between atoms: C_18  and  C_19
REMARK   16  A    between atoms: C_19  and  C_20
REMARK   17  A    between atoms: C_20  and  C_21
REMARK   18  A    between atoms: C_21  and  C_22
REMARK   19  A    between atoms: C_22  and  O_23
REMARK   20  A    between atoms: O_23  and  C_24
REMARK   21  A    between atoms: C_24  and  C_26
REMARK                            x       y       z     vdW  Elec       q    Type
REMARK                         _______ _______ _______ _____ _____    ______ ____
ROOT
ATOM      1  C   UNL     1      86.466  50.984  47.321  0.00  0.00    +0.116 C 
ENDROOT
BRANCH   1   2
ATOM      2  O   UNL     1      87.244  50.660  48.445  0.00  0.00    -0.379 OA
ATOM      3  H   UNL     1      86.662  50.451  49.193  0.00  0.00    +0.000 HD
ENDBRANCH   1   2
BRANCH   1   5
ATOM      4  C   UNL     1      87.835  50.463  45.079  0.00  0.00    -0.012 C 
ATOM      5  C   UNL     1      87.218  50.697  46.089  0.00  0.00    -0.057 C 
BRANCH   4   7
ATOM      6  C   UNL     1      89.171  49.954  42.887  0.00  0.00    -0.040 C 
ATOM      7  C   UNL     1      88.556  50.190  43.897  0.00  0.00    -0.011 C 
BRANCH   6   8
ATOM      8  C   UNL     1      89.918  49.662  41.658  0.00  0.00    +0.182 C 
BRANCH   8  10
ATOM      9  C   UNL     1      89.062  47.329  41.710  0.00  0.00    -0.098 C 
ATOM     10  C   UNL     1      90.081  48.174  41.525  0.00  0.00    -0.039 C 
ENDBRANCH   8  10
BRANCH   8  11
ATOM     11  O   UNL     1      89.199  50.149  40.527  0.00  0.00    -0.444 OA
BRANCH  11  12
ATOM     12  C   UNL     1      89.053  51.510  40.233  0.00  0.00    +0.305 C 
ATOM     13  O   UNL     1      88.081  51.922  39.544  0.00  0.00    -0.251 OA
ATOM     14  C   UNL     1      90.081  52.478  40.711  0.00  0.00    +0.033 C 
ENDBRANCH  11  12
ENDBRANCH   8  11
ENDBRANCH   6   8
ENDBRANCH   4   7
ENDBRANCH   1   5
BRANCH   1  15
ATOM     15  C   UNL     1      86.024  52.462  47.344  0.00  0.00    -0.016 C 
BRANCH  15  16
ATOM     16  C   UNL     1      85.003  52.777  48.452  0.00  0.00    -0.050 C 
BRANCH  16  17
ATOM     17  C   UNL     1      84.934  54.275  48.785  0.00  0.00    -0.053 C 
BRANCH  17  18
ATOM     18  C   UNL     1      83.742  54.939  48.078  0.00  0.00    -0.053 C 
BRANCH  18  19
ATOM     19  C   UNL     1      84.170  55.920  46.975  0.00  0.00    -0.053 C 
BRANCH  19  20
ATOM     20  C   UNL     1      85.688  56.173  46.966  0.00  0.00    -0.053 C 
BRANCH  20  21
ATOM     21  C   UNL     1      86.333  55.841  45.611  0.00  0.00    -0.053 C 
BRANCH  21  22
ATOM     22  C   UNL     1      85.306  55.353  44.573  0.00  0.00    -0.050 C 
BRANCH  22  23
ATOM     23  C   UNL     1      85.299  56.219  43.303  0.00  0.00    -0.019 C 
BRANCH  23  24
ATOM     24  C   UNL     1      84.478  55.597  42.165  0.00  0.00    +0.092 C 
BRANCH  24  25
ATOM     25  O   UNL     1      85.250  54.617  41.473  0.00  0.00    -0.465 OA
BRANCH  25  26
ATOM     26  C   UNL     1      84.938  53.253  41.469  0.00  0.00    +0.304 C 
ATOM     27  O   UNL     1      83.871  52.836  40.942  0.00  0.00    -0.251 OA
ATOM     28  C   UNL     1      85.848  52.292  42.155  0.00  0.00    +0.033 C 
ENDBRANCH  25  26
ENDBRANCH  24  25
ENDBRANCH  23  24
ENDBRANCH  22  23
ENDBRANCH  21  22
ENDBRANCH  20  21
ENDBRANCH  19  20
ENDBRANCH  18  19
ENDBRANCH  17  18
ENDBRANCH  16  17
ENDBRANCH  15  16
ENDBRANCH   1  15
TORSDOF 19
ENDMDL
MODEL 4
REMARK VINA RESULT:    -6.241      2.022      3.110
REMARK INTER + INTRA:         -15.548
REMARK INTER:                 -12.977
REMARK INTRA:                  -2.571
REMARK UNBOUND:                -2.559
REMARK  Name = 
REMARK  21 active torsions:
REMARK  status: ('A' for Active; 'I' for Inactive)
REMARK    1  A    between atoms: C_2  and  C_3
REMARK    2  A    between atoms: C_3  and  O_4
REMARK    3  A    between atoms: C_3  and  C_8
REMARK    4  A    between atoms: O_4  and  C_5
REMARK    5  A    between atoms: C_5  and  C_7
REMARK    6  A    between atoms: C_9  and  C_10
REMARK    7  A    between atoms: C_11  and  C_12
REMARK    8  A    between atoms: C_12  and  C_13
REMARK    9  A    between atoms: C_12  and  O_27
REMARK   10  A    between atoms: C_13  and  C_14
REMARK   11  A    between atoms: C_14  and  C_15
REMARK   12  A    between atoms: C_15  and  C_16
REMARK   13  A    between atoms: C_16  and  C_17
REMARK   14  A    between atoms: C_17  and  C_18
REMARK   15  A    between atoms: C_18  and  C_19
REMARK   16  A    between atoms: C_19  and  C_20
REMARK   17  A    between atoms: C_20  and  C_21
REMARK   18  A    between atoms: C_21  and  C_22
REMARK   19  A    between atoms: C_22  and  O_23
REMARK   20  A    between atoms: O_23  and  C_24
REMARK   21  A    between atoms: C_24  and  C_26
REMARK                            x       y       z     vdW  Elec       q    Type
REMARK                         _______ _______ _______ _____ _____    ______ ____
ROOT
ATOM      1  C   UNL     1      85.999  57.062  44.536  0.00  0.00    +0.116 C 
ENDROOT
BRANCH   1   2
ATOM      2  O   UNL     1      85.740  58.102  43.626  0.00  0.00    -0.379 OA
ATOM      3  H   UNL     1      85.660  58.940  44.107  0.00  0.00    +0.000 HD
ENDBRANCH   1   2
BRANCH   1   5
ATOM      4  C   UNL     1      86.626  54.821  43.212  0.00  0.00    -0.012 C 
ATOM      5  C   UNL     1      86.344  55.831  43.808  0.00  0.00    -0.057 C 
BRANCH   4   7
ATOM      6  C   UNL     1      87.240  52.628  41.921  0.00  0.00    -0.040 C 
ATOM      7  C   UNL     1      86.956  53.639  42.515  0.00  0.00    -0.011 C 
BRANCH   6   8
ATOM      8  C   UNL     1      87.591  51.399  41.201  0.00  0.00    +0.182 C 
BRANCH   8  10
ATOM      9  C   UNL     1      89.914  52.255  40.983  0.00  0.00    -0.098 C 
ATOM     10  C   UNL     1      88.869  51.622  40.442  0.00  0.00    -0.039 C 
ENDBRANCH   8  10
BRANCH   8  11
ATOM     11  O   UNL     1      87.788  50.334  42.128  0.00  0.00    -0.444 OA
BRANCH  11  12
ATOM     12  C   UNL     1      88.331  49.093  41.774  0.00  0.00    +0.305 C 
ATOM     13  O   UNL     1      87.736  48.337  40.958  0.00  0.00    -0.251 OA
ATOM     14  C   UNL     1      89.609  48.646  42.396  0.00  0.00    +0.033 C 
ENDBRANCH  11  12
ENDBRANCH   8  11
ENDBRANCH   6   8
ENDBRANCH   4   7
ENDBRANCH   1   5
BRANCH   1  15
ATOM     15  C   UNL     1      84.795  56.811  45.468  0.00  0.00    -0.016 C 
BRANCH  15  16
ATOM     16  C   UNL     1      85.108  55.846  46.624  0.00  0.00    -0.050 C 
BRANCH  16  17
ATOM     17  C   UNL     1      83.849  55.414  47.393  0.00  0.00    -0.053 C 
BRANCH  17  18
ATOM     18  C   UNL     1      84.216  54.512  48.581  0.00  0.00    -0.053 C 
BRANCH  18  19
ATOM     19  C   UNL     1      85.622  53.904  48.460  0.00  0.00    -0.053 C 
BRANCH  19  20
ATOM     20  C   UNL     1      85.660  52.419  48.860  0.00  0.00    -0.053 C 
BRANCH  20  21
ATOM     21  C   UNL     1      86.337  51.539  47.796  0.00  0.00    -0.053 C 
BRANCH  21  22
ATOM     22  C   UNL     1      86.625  52.306  46.493  0.00  0.00    -0.050 C 
BRANCH  22  23
ATOM     23  C   UNL     1      85.819  51.762  45.303  0.00  0.00    -0.019 C 
BRANCH  23  24
ATOM     24  C   UNL     1      84.411  52.365  45.216  0.00  0.00    +0.092 C 
BRANCH  24  25
ATOM     25  O   UNL     1      83.991  52.457  43.855  0.00  0.00    -0.465 OA
BRANCH  25  26
ATOM     26  C   UNL     1      83.199  51.490  43.226  0.00  0.00    +0.304 C 
ATOM     27  O   UNL     1      83.006  50.365  43.762  0.00  0.00    -0.251 OA
ATOM     28  C   UNL     1      82.632  51.774  41.877  0.00  0.00    +0.033 C 
ENDBRANCH  25  26
ENDBRANCH  24  25
ENDBRANCH  23  24
ENDBRANCH  22  23
ENDBRANCH  21  22
ENDBRANCH  20  21
ENDBRANCH  19  20
ENDBRANCH  18  19
ENDBRANCH  17  18
ENDBRANCH  16  17
ENDBRANCH  15  16
ENDBRANCH   1  15
TORSDOF 19
ENDMDL
MODEL 5
REMARK VINA RESULT:    -6.186      2.411      4.321
REMARK INTER + INTRA:         -15.434
REMARK INTER:                 -13.261
REMARK INTRA:                  -2.173
REMARK UNBOUND:                -2.559
REMARK  Name = 
REMARK  21 active torsions:
REMARK  status: ('A' for Active; 'I' for Inactive)
REMARK    1  A    between atoms: C_2  and  C_3
REMARK    2  A    between atoms: C_3  and  O_4
REMARK    3  A    between atoms: C_3  and  C_8
REMARK    4  A    between atoms: O_4  and  C_5
REMARK    5  A    between atoms: C_5  and  C_7
REMARK    6  A    between atoms: C_9  and  C_10
REMARK    7  A    between atoms: C_11  and  C_12
REMARK    8  A    between atoms: C_12  and  C_13
REMARK    9  A    between atoms: C_12  and  O_27
REMARK   10  A    between atoms: C_13  and  C_14
REMARK   11  A    between atoms: C_14  and  C_15
REMARK   12  A    between atoms: C_15  and  C_16
REMARK   13  A    between atoms: C_16  and  C_17
REMARK   14  A    between atoms: C_17  and  C_18
REMARK   15  A    between atoms: C_18  and  C_19
REMARK   16  A    between atoms: C_19  and  C_20
REMARK   17  A    between atoms: C_20  and  C_21
REMARK   18  A    between atoms: C_21  and  C_22
REMARK   19  A    between atoms: C_22  and  O_23
REMARK   20  A    between atoms: O_23  and  C_24
REMARK   21  A    between atoms: C_24  and  C_26
REMARK                            x       y       z     vdW  Elec       q    Type
REMARK                         _______ _______ _______ _____ _____    ______ ____
ROOT
ATOM      1  C   UNL     1      87.043  50.354  47.679  0.00  0.00    +0.116 C 
ENDROOT
BRANCH   1   2
ATOM      2  O   UNL     1      88.223  49.990  48.352  0.00  0.00    -0.379 OA
ATOM      3  H   UNL     1      88.023  49.301  49.005  0.00  0.00    +0.000 HD
ENDBRANCH   1   2
BRANCH   1   5
ATOM      4  C   UNL     1      87.592  50.953  45.128  0.00  0.00    -0.012 C 
ATOM      5  C   UNL     1      87.345  50.684  46.277  0.00  0.00    -0.057 C 
BRANCH   4   7
ATOM      6  C   UNL     1      88.130  51.535  42.633  0.00  0.00    -0.040 C 
ATOM      7  C   UNL     1      87.880  51.267  43.783  0.00  0.00    -0.011 C 
BRANCH   6   8
ATOM      8  C   UNL     1      88.439  51.860  41.236  0.00  0.00    +0.182 C 
BRANCH   8  10
ATOM      9  C   UNL     1      90.228  53.170  40.112  0.00  0.00    -0.098 C 
ATOM     10  C   UNL     1      89.495  52.929  41.203  0.00  0.00    -0.039 C 
ENDBRANCH   8  10
BRANCH   8  11
ATOM     11  O   UNL     1      88.936  50.702  40.568  0.00  0.00    -0.444 OA
BRANCH  11  12
ATOM     12  C   UNL     1      88.902  49.417  41.124  0.00  0.00    +0.305 C 
ATOM     13  O   UNL     1      87.886  48.683  40.991  0.00  0.00    -0.251 OA
ATOM     14  C   UNL     1      90.068  48.927  41.912  0.00  0.00    +0.033 C 
ENDBRANCH  11  12
ENDBRANCH   8  11
ENDBRANCH   6   8
ENDBRANCH   4   7
ENDBRANCH   1   5
BRANCH   1  15
ATOM     15  C   UNL     1      86.342  51.542  48.369  0.00  0.00    -0.016 C 
BRANCH  15  16
ATOM     16  C   UNL     1      85.775  52.575  47.380  0.00  0.00    -0.050 C 
BRANCH  16  17
ATOM     17  C   UNL     1      84.463  53.208  47.871  0.00  0.00    -0.053 C 
BRANCH  17  18
ATOM     18  C   UNL     1      84.654  54.702  48.170  0.00  0.00    -0.053 C 
BRANCH  18  19
ATOM     19  C   UNL     1      86.010  55.241  47.685  0.00  0.00    -0.053 C 
BRANCH  19  20
ATOM     20  C   UNL     1      85.872  56.201  46.491  0.00  0.00    -0.053 C 
BRANCH  20  21
ATOM     21  C   UNL     1      86.184  55.519  45.148  0.00  0.00    -0.053 C 
BRANCH  21  22
ATOM     22  C   UNL     1      84.911  55.146  44.367  0.00  0.00    -0.050 C 
BRANCH  22  23
ATOM     23  C   UNL     1      84.932  53.690  43.874  0.00  0.00    -0.019 C 
BRANCH  23  24
ATOM     24  C   UNL     1      85.011  53.583  42.345  0.00  0.00    +0.092 C 
BRANCH  24  25
ATOM     25  O   UNL     1      84.857  52.226  41.932  0.00  0.00    -0.465 OA
BRANCH  25  26
ATOM     26  C   UNL     1      84.002  51.320  42.569  0.00  0.00    +0.304 C 
ATOM     27  O   UNL     1      84.464  50.356  43.239  0.00  0.00    -0.251 OA
ATOM     28  C   UNL     1      82.528  51.461  42.397  0.00  0.00    +0.033 C 
ENDBRANCH  25  26
ENDBRANCH  24  25
ENDBRANCH  23  24
ENDBRANCH  22  23
ENDBRANCH  21  22
ENDBRANCH  20  21
ENDBRANCH  19  20
ENDBRANCH  18  19
ENDBRANCH  17  18
ENDBRANCH  16  17
ENDBRANCH  15  16
ENDBRANCH   1  15
TORSDOF 19
ENDMDL
MODEL 6
REMARK VINA RESULT:    -6.186      3.274      5.747
REMARK INTER + INTRA:         -15.434
REMARK INTER:                 -12.537
REMARK INTRA:                  -2.897
REMARK UNBOUND:                -2.559
REMARK  Name = 
REMARK  21 active torsions:
REMARK  status: ('A' for Active; 'I' for Inactive)
REMARK    1  A    between atoms: C_2  and  C_3
REMARK    2  A    between atoms: C_3  and  O_4
REMARK    3  A    between atoms: C_3  and  C_8
REMARK    4  A    between atoms: O_4  and  C_5
REMARK    5  A    between atoms: C_5  and  C_7
REMARK    6  A    between atoms: C_9  and  C_10
REMARK    7  A    between atoms: C_11  and  C_12
REMARK    8  A    between atoms: C_12  and  C_13
REMARK    9  A    between atoms: C_12  and  O_27
REMARK   10  A    between atoms: C_13  and  C_14
REMARK   11  A    between atoms: C_14  and  C_15
REMARK   12  A    between atoms: C_15  and  C_16
REMARK   13  A    between atoms: C_16  and  C_17
REMARK   14  A    between atoms: C_17  and  C_18
REMARK   15  A    between atoms: C_18  and  C_19
REMARK   16  A    between atoms: C_19  and  C_20
REMARK   17  A    between atoms: C_20  and  C_21
REMARK   18  A    between atoms: C_21  and  C_22
REMARK   19  A    between atoms: C_22  and  O_23
REMARK   20  A    between atoms: O_23  and  C_24
REMARK   21  A    between atoms: C_24  and  C_26
REMARK                            x       y       z     vdW  Elec       q    Type
REMARK                         _______ _______ _______ _____ _____    ______ ____
ROOT
ATOM      1  C   UNL     1      85.040  54.139  45.020  0.00  0.00    +0.116 C 
ENDROOT
BRANCH   1   2
ATOM      2  O   UNL     1      84.486  55.102  44.160  0.00  0.00    -0.379 OA
ATOM      3  H   UNL     1      83.520  55.009  44.150  0.00  0.00    +0.000 HD
ENDBRANCH   1   2
BRANCH   1   5
ATOM      4  C   UNL     1      84.135  51.703  44.375  0.00  0.00    -0.012 C 
ATOM      5  C   UNL     1      84.542  52.800  44.665  0.00  0.00    -0.057 C 
BRANCH   4   7
ATOM      6  C   UNL     1      83.249  49.322  43.747  0.00  0.00    -0.040 C 
ATOM      7  C   UNL     1      83.658  50.418  44.037  0.00  0.00    -0.011 C 
BRANCH   6   8
ATOM      8  C   UNL     1      82.748  47.989  43.389  0.00  0.00    +0.182 C 
BRANCH   8  10
ATOM      9  C   UNL     1      83.742  45.712  43.325  0.00  0.00    -0.098 C 
ATOM     10  C   UNL     1      83.908  47.038  43.297  0.00  0.00    -0.039 C 
ENDBRANCH   8  10
BRANCH   8  11
ATOM     11  O   UNL     1      81.850  47.524  44.394  0.00  0.00    -0.444 OA
BRANCH  11  12
ATOM     12  C   UNL     1      80.456  47.587  44.272  0.00  0.00    +0.305 C 
ATOM     13  O   UNL     1      79.804  46.611  43.812  0.00  0.00    -0.251 OA
ATOM     14  C   UNL     1      79.742  48.837  44.657  0.00  0.00    +0.033 C 
ENDBRANCH  11  12
ENDBRANCH   8  11
ENDBRANCH   6   8
ENDBRANCH   4   7
ENDBRANCH   1   5
BRANCH   1  15
ATOM     15  C   UNL     1      84.726  54.451  46.498  0.00  0.00    -0.016 C 
BRANCH  15  16
ATOM     16  C   UNL     1      85.731  53.826  47.482  0.00  0.00    -0.050 C 
BRANCH  16  17
ATOM     17  C   UNL     1      85.215  52.521  48.107  0.00  0.00    -0.053 C 
BRANCH  17  18
ATOM     18  C   UNL     1      86.349  51.497  48.251  0.00  0.00    -0.053 C 
BRANCH  18  19
ATOM     19  C   UNL     1      86.656  50.755  46.941  0.00  0.00    -0.053 C 
BRANCH  19  20
ATOM     20  C   UNL     1      87.872  51.338  46.202  0.00  0.00    -0.053 C 
BRANCH  20  21
ATOM     21  C   UNL     1      87.808  51.104  44.683  0.00  0.00    -0.053 C 
BRANCH  21  22
ATOM     22  C   UNL     1      87.270  49.707  44.325  0.00  0.00    -0.050 C 
BRANCH  22  23
ATOM     23  C   UNL     1      87.279  49.447  42.810  0.00  0.00    -0.019 C 
BRANCH  23  24
ATOM     24  C   UNL     1      86.942  50.699  41.990  0.00  0.00    +0.092 C 
BRANCH  24  25
ATOM     25  O   UNL     1      87.566  50.639  40.709  0.00  0.00    -0.465 OA
BRANCH  25  26
ATOM     26  C   UNL     1      88.664  51.428  40.349  0.00  0.00    +0.304 C 
ATOM     27  O   UNL     1      89.035  51.510  39.146  0.00  0.00    -0.251 OA
ATOM     28  C   UNL     1      89.442  52.127  41.412  0.00  0.00    +0.033 C 
ENDBRANCH  25  26
ENDBRANCH  24  25
ENDBRANCH  23  24
ENDBRANCH  22  23
ENDBRANCH  21  22
ENDBRANCH  20  21
ENDBRANCH  19  20
ENDBRANCH  18  19
ENDBRANCH  17  18
ENDBRANCH  16  17
ENDBRANCH  15  16
ENDBRANCH   1  15
TORSDOF 19
ENDMDL
MODEL 7
REMARK VINA RESULT:    -6.163      2.716      5.082
REMARK INTER + INTRA:         -15.387
REMARK INTER:                 -12.530
REMARK INTRA:                  -2.856
REMARK UNBOUND:                -2.559
REMARK  Name = 
REMARK  21 active torsions:
REMARK  status: ('A' for Active; 'I' for Inactive)
REMARK    1  A    between atoms: C_2  and  C_3
REMARK    2  A    between atoms: C_3  and  O_4
REMARK    3  A    between atoms: C_3  and  C_8
REMARK    4  A    between atoms: O_4  and  C_5
REMARK    5  A    between atoms: C_5  and  C_7
REMARK    6  A    between atoms: C_9  and  C_10
REMARK    7  A    between atoms: C_11  and  C_12
REMARK    8  A    between atoms: C_12  and  C_13
REMARK    9  A    between atoms: C_12  and  O_27
REMARK   10  A    between atoms: C_13  and  C_14
REMARK   11  A    between atoms: C_14  and  C_15
REMARK   12  A    between atoms: C_15  and  C_16
REMARK   13  A    between atoms: C_16  and  C_17
REMARK   14  A    between atoms: C_17  and  C_18
REMARK   15  A    between atoms: C_18  and  C_19
REMARK   16  A    between atoms: C_19  and  C_20
REMARK   17  A    between atoms: C_20  and  C_21
REMARK   18  A    between atoms: C_21  and  C_22
REMARK   19  A    between atoms: C_22  and  O_23
REMARK   20  A    between atoms: O_23  and  C_24
REMARK   21  A    between atoms: C_24  and  C_26
REMARK                            x       y       z     vdW  Elec       q    Type
REMARK                         _______ _______ _______ _____ _____    ______ ____
ROOT
ATOM      1  C   UNL     1      85.033  55.123  42.671  0.00  0.00    +0.116 C 
ENDROOT
BRANCH   1   2
ATOM      2  O   UNL     1      83.987  56.057  42.576  0.00  0.00    -0.379 OA
ATOM      3  H   UNL     1      83.684  56.295  43.466  0.00  0.00    +0.000 HD
ENDBRANCH   1   2
BRANCH   1   5
ATOM      4  C   UNL     1      84.039  52.682  43.142  0.00  0.00    -0.012 C 
ATOM      5  C   UNL     1      84.487  53.781  42.930  0.00  0.00    -0.057 C 
BRANCH   4   7
ATOM      6  C   UNL     1      83.062  50.297  43.601  0.00  0.00    -0.040 C 
ATOM      7  C   UNL     1      83.512  51.396  43.392  0.00  0.00    -0.011 C 
BRANCH   6   8
ATOM      8  C   UNL     1      82.516  48.958  43.852  0.00  0.00    +0.182 C 
BRANCH   8  10
ATOM      9  C   UNL     1      80.474  49.966  42.857  0.00  0.00    -0.098 C 
ATOM     10  C   UNL     1      81.053  48.953  43.508  0.00  0.00    -0.039 C 
ENDBRANCH   8  10
BRANCH   8  11
ATOM     11  O   UNL     1      83.184  48.002  43.032  0.00  0.00    -0.444 OA
BRANCH  11  12
ATOM     12  C   UNL     1      83.809  46.855  43.537  0.00  0.00    +0.305 C 
ATOM     13  O   UNL     1      83.195  46.076  44.316  0.00  0.00    -0.251 OA
ATOM     14  C   UNL     1      85.227  46.572  43.177  0.00  0.00    +0.033 C 
ENDBRANCH  11  12
ENDBRANCH   8  11
ENDBRANCH   6   8
ENDBRANCH   4   7
ENDBRANCH   1   5
BRANCH   1  15
ATOM     15  C   UNL     1      86.041  55.512  43.773  0.00  0.00    -0.016 C 
BRANCH  15  16
ATOM     16  C   UNL     1      85.380  56.144  45.010  0.00  0.00    -0.050 C 
BRANCH  16  17
ATOM     17  C   UNL     1      85.336  55.187  46.212  0.00  0.00    -0.053 C 
BRANCH  17  18
ATOM     18  C   UNL     1      86.434  54.119  46.103  0.00  0.00    -0.053 C 
BRANCH  18  19
ATOM     19  C   UNL     1      86.046  52.792  46.774  0.00  0.00    -0.053 C 
BRANCH  19  20
ATOM     20  C   UNL     1      86.347  51.571  45.888  0.00  0.00    -0.053 C 
BRANCH  20  21
ATOM     21  C   UNL     1      87.346  51.891  44.763  0.00  0.00    -0.053 C 
BRANCH  21  22
ATOM     22  C   UNL     1      87.870  50.624  44.063  0.00  0.00    -0.050 C 
BRANCH  22  23
ATOM     23  C   UNL     1      87.031  50.246  42.831  0.00  0.00    -0.019 C 
BRANCH  23  24
ATOM     24  C   UNL     1      87.892  49.783  41.648  0.00  0.00    +0.092 C 
BRANCH  24  25
ATOM     25  O   UNL     1      87.759  50.686  40.551  0.00  0.00    -0.465 OA
BRANCH  25  26
ATOM     26  C   UNL     1      88.788  51.530  40.120  0.00  0.00    +0.304 C 
ATOM     27  O   UNL     1      88.960  51.764  38.892  0.00  0.00    -0.251 OA
ATOM     28  C   UNL     1      89.730  52.106  41.121  0.00  0.00    +0.033 C 
ENDBRANCH  25  26
ENDBRANCH  24  25
ENDBRANCH  23  24
ENDBRANCH  22  23
ENDBRANCH  21  22
ENDBRANCH  20  21
ENDBRANCH  19  20
ENDBRANCH  18  19
ENDBRANCH  17  18
ENDBRANCH  16  17
ENDBRANCH  15  16
ENDBRANCH   1  15
TORSDOF 19
ENDMDL
MODEL 8
REMARK VINA RESULT:    -6.145      2.808      4.146
REMARK INTER + INTRA:         -15.349
REMARK INTER:                 -12.242
REMARK INTRA:                  -3.108
REMARK UNBOUND:                -2.559
REMARK  Name = 
REMARK  21 active torsions:
REMARK  status: ('A' for Active; 'I' for Inactive)
REMARK    1  A    between atoms: C_2  and  C_3
REMARK    2  A    between atoms: C_3  and  O_4
REMARK    3  A    between atoms: C_3  and  C_8
REMARK    4  A    between atoms: O_4  and  C_5
REMARK    5  A    between atoms: C_5  and  C_7
REMARK    6  A    between atoms: C_9  and  C_10
REMARK    7  A    between atoms: C_11  and  C_12
REMARK    8  A    between atoms: C_12  and  C_13
REMARK    9  A    between atoms: C_12  and  O_27
REMARK   10  A    between atoms: C_13  and  C_14
REMARK   11  A    between atoms: C_14  and  C_15
REMARK   12  A    between atoms: C_15  and  C_16
REMARK   13  A    between atoms: C_16  and  C_17
REMARK   14  A    between atoms: C_17  and  C_18
REMARK   15  A    between atoms: C_18  and  C_19
REMARK   16  A    between atoms: C_19  and  C_20
REMARK   17  A    between atoms: C_20  and  C_21
REMARK   18  A    between atoms: C_21  and  C_22
REMARK   19  A    between atoms: C_22  and  O_23
REMARK   20  A    between atoms: O_23  and  C_24
REMARK   21  A    between atoms: C_24  and  C_26
REMARK                            x       y       z     vdW  Elec       q    Type
REMARK                         _______ _______ _______ _____ _____    ______ ____
ROOT
ATOM      1  C   UNL     1      85.902  51.884  48.211  0.00  0.00    +0.116 C 
ENDROOT
BRANCH   1   2
ATOM      2  O   UNL     1      86.710  51.337  49.223  0.00  0.00    -0.379 OA
ATOM      3  H   UNL     1      86.230  51.354  50.066  0.00  0.00    +0.000 HD
ENDBRANCH   1   2
BRANCH   1   5
ATOM      4  C   UNL     1      87.072  51.553  45.826  0.00  0.00    -0.012 C 
ATOM      5  C   UNL     1      86.546  51.702  46.900  0.00  0.00    -0.057 C 
BRANCH   4   7
ATOM      6  C   UNL     1      88.213  51.230  43.493  0.00  0.00    -0.040 C 
ATOM      7  C   UNL     1      87.686  51.378  44.567  0.00  0.00    -0.011 C 
BRANCH   6   8
ATOM      8  C   UNL     1      88.860  51.050  42.187  0.00  0.00    +0.182 C 
BRANCH   8  10
ATOM      9  C   UNL     1      88.240  48.643  42.138  0.00  0.00    -0.098 C 
ATOM     10  C   UNL     1      89.170  49.593  41.990  0.00  0.00    -0.039 C 
ENDBRANCH   8  10
BRANCH   8  11
ATOM     11  O   UNL     1      87.982  51.478  41.149  0.00  0.00    -0.444 OA
BRANCH  11  12
ATOM     12  C   UNL     1      88.343  52.412  40.170  0.00  0.00    +0.305 C 
ATOM     13  O   UNL     1      87.463  53.037  39.519  0.00  0.00    -0.251 OA
ATOM     14  C   UNL     1      89.785  52.641  39.870  0.00  0.00    +0.033 C 
ENDBRANCH  11  12
ENDBRANCH   8  11
ENDBRANCH   6   8
ENDBRANCH   4   7
ENDBRANCH   1   5
BRANCH   1  15
ATOM     15  C   UNL     1      85.615  53.379  48.463  0.00  0.00    -0.016 C 
BRANCH  15  16
ATOM     16  C   UNL     1      84.275  53.852  47.872  0.00  0.00    -0.050 C 
BRANCH  16  17
ATOM     17  C   UNL     1      84.436  55.046  46.919  0.00  0.00    -0.053 C 
BRANCH  17  18
ATOM     18  C   UNL     1      85.920  55.364  46.684  0.00  0.00    -0.053 C 
BRANCH  18  19
ATOM     19  C   UNL     1      86.336  55.224  45.211  0.00  0.00    -0.053 C 
BRANCH  19  20
ATOM     20  C   UNL     1      85.131  55.059  44.270  0.00  0.00    -0.053 C 
BRANCH  20  21
ATOM     21  C   UNL     1      85.266  53.836  43.347  0.00  0.00    -0.053 C 
BRANCH  21  22
ATOM     22  C   UNL     1      84.274  52.715  43.707  0.00  0.00    -0.050 C 
BRANCH  22  23
ATOM     23  C   UNL     1      84.476  51.457  42.847  0.00  0.00    -0.019 C 
BRANCH  23  24
ATOM     24  C   UNL     1      84.302  50.159  43.647  0.00  0.00    +0.092 C 
BRANCH  24  25
ATOM     25  O   UNL     1      82.971  50.059  44.152  0.00  0.00    -0.465 OA
BRANCH  25  26
ATOM     26  C   UNL     1      82.121  48.983  43.874  0.00  0.00    +0.304 C 
ATOM     27  O   UNL     1      82.510  47.794  44.033  0.00  0.00    -0.251 OA
ATOM     28  C   UNL     1      80.761  49.248  43.323  0.00  0.00    +0.033 C 
ENDBRANCH  25  26
ENDBRANCH  24  25
ENDBRANCH  23  24
ENDBRANCH  22  23
ENDBRANCH  21  22
ENDBRANCH  20  21
ENDBRANCH  19  20
ENDBRANCH  18  19
ENDBRANCH  17  18
ENDBRANCH  16  17
ENDBRANCH  15  16
ENDBRANCH   1  15
TORSDOF 19
ENDMDL
MODEL 9
REMARK VINA RESULT:    -6.114      2.151      3.379
REMARK INTER + INTRA:         -15.286
REMARK INTER:                 -12.727
REMARK INTRA:                  -2.559
REMARK UNBOUND:                -2.559
REMARK  Name = 
REMARK  21 active torsions:
REMARK  status: ('A' for Active; 'I' for Inactive)
REMARK    1  A    between atoms: C_2  and  C_3
REMARK    2  A    between atoms: C_3  and  O_4
REMARK    3  A    between atoms: C_3  and  C_8
REMARK    4  A    between atoms: O_4  and  C_5
REMARK    5  A    between atoms: C_5  and  C_7
REMARK    6  A    between atoms: C_9  and  C_10
REMARK    7  A    between atoms: C_11  and  C_12
REMARK    8  A    between atoms: C_12  and  C_13
REMARK    9  A    between atoms: C_12  and  O_27
REMARK   10  A    between atoms: C_13  and  C_14
REMARK   11  A    between atoms: C_14  and  C_15
REMARK   12  A    between atoms: C_15  and  C_16
REMARK   13  A    between atoms: C_16  and  C_17
REMARK   14  A    between atoms: C_17  and  C_18
REMARK   15  A    between atoms: C_18  and  C_19
REMARK   16  A    between atoms: C_19  and  C_20
REMARK   17  A    between atoms: C_20  and  C_21
REMARK   18  A    between atoms: C_21  and  C_22
REMARK   19  A    between atoms: C_22  and  O_23
REMARK   20  A    between atoms: O_23  and  C_24
REMARK   21  A    between atoms: C_24  and  C_26
REMARK                            x       y       z     vdW  Elec       q    Type
REMARK                         _______ _______ _______ _____ _____    ______ ____
ROOT
ATOM      1  C   UNL     1      85.449  56.106  43.592  0.00  0.00    +0.116 C 
ENDROOT
BRANCH   1   2
ATOM      2  O   UNL     1      84.672  56.540  42.504  0.00  0.00    -0.379 OA
ATOM      3  H   UNL     1      84.802  57.493  42.373  0.00  0.00    +0.000 HD
ENDBRANCH   1   2
BRANCH   1   5
ATOM      4  C   UNL     1      86.844  53.926  42.907  0.00  0.00    -0.012 C 
ATOM      5  C   UNL     1      86.217  54.908  43.215  0.00  0.00    -0.057 C 
BRANCH   4   7
ATOM      6  C   UNL     1      88.204  51.790  42.243  0.00  0.00    -0.040 C 
ATOM      7  C   UNL     1      87.578  52.775  42.548  0.00  0.00    -0.011 C 
BRANCH   6   8
ATOM      8  C   UNL     1      88.962  50.588  41.877  0.00  0.00    +0.182 C 
BRANCH   8  10
ATOM      9  C   UNL     1      88.224  48.234  41.573  0.00  0.00    -0.098 C 
ATOM     10  C   UNL     1      88.009  49.539  41.379  0.00  0.00    -0.039 C 
ENDBRANCH   8  10
BRANCH   8  11
ATOM     11  O   UNL     1      89.887  50.898  40.837  0.00  0.00    -0.444 OA
BRANCH  11  12
ATOM     12  C   UNL     1      89.666  51.897  39.880  0.00  0.00    +0.305 C 
ATOM     13  O   UNL     1      88.900  51.693  38.900  0.00  0.00    -0.251 OA
ATOM     14  C   UNL     1      90.372  53.203  40.005  0.00  0.00    +0.033 C 
ENDBRANCH  11  12
ENDBRANCH   8  11
ENDBRANCH   6   8
ENDBRANCH   4   7
ENDBRANCH   1   5
BRANCH   1  15
ATOM     15  C   UNL     1      84.576  55.814  44.831  0.00  0.00    -0.016 C 
BRANCH  15  16
ATOM     16  C   UNL     1      84.936  56.681  46.050  0.00  0.00    -0.050 C 
BRANCH  16  17
ATOM     17  C   UNL     1      84.215  56.232  47.330  0.00  0.00    -0.053 C 
BRANCH  17  18
ATOM     18  C   UNL     1      83.953  54.719  47.309  0.00  0.00    -0.053 C 
BRANCH  18  19
ATOM     19  C   UNL     1      84.365  54.022  48.615  0.00  0.00    -0.053 C 
BRANCH  19  20
ATOM     20  C   UNL     1      85.576  53.090  48.431  0.00  0.00    -0.053 C 
BRANCH  20  21
ATOM     21  C   UNL     1      86.249  53.263  47.060  0.00  0.00    -0.053 C 
BRANCH  21  22
ATOM     22  C   UNL     1      86.097  52.018  46.168  0.00  0.00    -0.050 C 
BRANCH  22  23
ATOM     23  C   UNL     1      87.441  51.322  45.897  0.00  0.00    -0.019 C 
BRANCH  23  24
ATOM     24  C   UNL     1      87.277  49.847  45.507  0.00  0.00    +0.092 C 
BRANCH  24  25
ATOM     25  O   UNL     1      85.896  49.488  45.488  0.00  0.00    -0.465 OA
BRANCH  25  26
ATOM     26  C   UNL     1      85.215  49.109  44.325  0.00  0.00    +0.304 C 
ATOM     27  O   UNL     1      84.870  47.910  44.140  0.00  0.00    -0.251 OA
ATOM     28  C   UNL     1      84.954  50.125  43.266  0.00  0.00    +0.033 C 
ENDBRANCH  25  26
ENDBRANCH  24  25
ENDBRANCH  23  24
ENDBRANCH  22  23
ENDBRANCH  21  22
ENDBRANCH  20  21
ENDBRANCH  19  20
ENDBRANCH  18  19
ENDBRANCH  17  18
ENDBRANCH  16  17
ENDBRANCH  15  16
ENDBRANCH   1  15
TORSDOF 19
ENDMDL
