MODEL 1
REMARK VINA RESULT:    -6.538      0.000      0.000
REMARK INTER + INTRA:         -12.803
REMARK INTER:                 -11.805
REMARK INTRA:                  -0.998
REMARK UNBOUND:                -0.914
REMARK  Name = 
REMARK  15 active torsions:
REMARK  status: ('A' for Active; 'I' for Inactive)
REMARK    1  A    between atoms: O_1  and  C_2
REMARK    2  A    between atoms: C_2  and  C_3
REMARK    3  A    between atoms: C_3  and  C_4
REMARK    4  A    between atoms: C_3  and  O_22
REMARK    5  A    between atoms: C_5  and  C_6
REMARK    6  A    between atoms: C_7  and  C_8
REMARK    7  A    between atoms: C_9  and  C_10
REMARK    8  A    between atoms: C_11  and  C_12
REMARK    9  A    between atoms: C_12  and  C_13
REMARK   10  A    between atoms: C_13  and  C_14
REMARK   11  A    between atoms: C_14  and  C_15
REMARK   12  A    between atoms: C_15  and  C_16
REMARK   13  A    between atoms: C_16  and  C_17
REMARK   14  A    between atoms: C_17  and  C_18
REMARK   15  A    between atoms: C_18  and  C_19
REMARK                            x       y       z     vdW  Elec       q    Type
REMARK                         _______ _______ _______ _____ _____    ______ ____
ROOT
ATOM      1  C   UNL     1      84.006  47.405  43.590  0.00  0.00    -0.000 C 
ATOM      2  C   UNL     1      85.103  46.972  43.344  0.00  0.00    -0.001 C 
ENDROOT
BRANCH   1   4
ATOM      3  C   UNL     1      81.622  48.347  44.121  0.00  0.00    -0.001 C 
ATOM      4  C   UNL     1      82.720  47.914  43.876  0.00  0.00    -0.000 C 
BRANCH   3   6
ATOM      5  C   UNL     1      79.239  49.289  44.651  0.00  0.00    -0.055 C 
ATOM      6  C   UNL     1      80.337  48.855  44.407  0.00  0.00    -0.011 C 
BRANCH   5   7
ATOM      7  C   UNL     1      77.902  49.819  44.949  0.00  0.00    +0.139 C 
BRANCH   7   8
ATOM      8  O   UNL     1      77.760  49.945  46.338  0.00  0.00    -0.377 OA
ATOM      9  H   UNL     1      78.475  49.462  46.781  0.00  0.00    +0.000 HD
ENDBRANCH   7   8
BRANCH   7  10
ATOM     10  C   UNL     1      77.699  51.175  44.265  0.00  0.00    +0.081 C 
BRANCH  10  11
ATOM     11  O   UNL     1      76.717  51.918  44.937  0.00  0.00    -0.391 OA
ATOM     12  H   UNL     1      76.681  52.814  44.568  0.00  0.00    +0.000 HD
ENDBRANCH  10  11
ENDBRANCH   7  10
ENDBRANCH   5   7
ENDBRANCH   3   6
ENDBRANCH   1   4
BRANCH   2  13
ATOM     13  C   UNL     1      86.389  46.465  43.057  0.00  0.00    -0.014 C 
ATOM     14  C   UNL     1      87.487  46.033  42.812  0.00  0.00    -0.088 C 
BRANCH  14  15
ATOM     15  C   UNL     1      88.823  45.506  42.515  0.00  0.00    +0.010 C 
BRANCH  15  16
ATOM     16  C   UNL     1      89.741  46.629  42.019  0.00  0.00    -0.042 C 
BRANCH  16  17
ATOM     17  C   UNL     1      90.579  47.250  43.150  0.00  0.00    -0.052 C 
BRANCH  17  18
ATOM     18  C   UNL     1      90.513  48.794  43.189  0.00  0.00    -0.053 C 
BRANCH  18  19
ATOM     19  C   UNL     1      89.103  49.331  43.507  0.00  0.00    -0.053 C 
BRANCH  19  20
ATOM     20  C   UNL     1      88.619  50.410  42.521  0.00  0.00    -0.043 C 
BRANCH  20  21
ATOM     21  C   UNL     1      89.509  50.511  41.275  0.00  0.00    +0.045 C 
BRANCH  21  22
ATOM     22  C   UNL     1      89.045  51.626  40.392  0.00  0.00    +0.305 C 
ATOM     23  O   UNL     1      88.956  51.451  39.148  0.00  0.00    -0.251 OA
ATOM     24  O   UNL     1      88.754  52.870  40.943  0.00  0.00    -0.481 OA
ENDBRANCH  21  22
ENDBRANCH  20  21
ENDBRANCH  19  20
ENDBRANCH  18  19
ENDBRANCH  17  18
ENDBRANCH  16  17
ENDBRANCH  15  16
ENDBRANCH  14  15
ENDBRANCH   2  13
TORSDOF 15
ENDMDL
MODEL 2
REMARK VINA RESULT:    -6.483      1.157      2.005
REMARK INTER + INTRA:         -12.703
REMARK INTER:                 -12.151
REMARK INTRA:                  -0.551
REMARK UNBOUND:                -0.914
REMARK  Name = 
REMARK  15 active torsions:
REMARK  status: ('A' for Active; 'I' for Inactive)
REMARK    1  A    between atoms: O_1  and  C_2
REMARK    2  A    between atoms: C_2  and  C_3
REMARK    3  A    between atoms: C_3  and  C_4
REMARK    4  A    between atoms: C_3  and  O_22
REMARK    5  A    between atoms: C_5  and  C_6
REMARK    6  A    between atoms: C_7  and  C_8
REMARK    7  A    between atoms: C_9  and  C_10
REMARK    8  A    between atoms: C_11  and  C_12
REMARK    9  A    between atoms: C_12  and  C_13
REMARK   10  A    between atoms: C_13  and  C_14
REMARK   11  A    between atoms: C_14  and  C_15
REMARK   12  A    between atoms: C_15  and  C_16
REMARK   13  A    between atoms: C_16  and  C_17
REMARK   14  A    between atoms: C_17  and  C_18
REMARK   15  A    between atoms: C_18  and  C_19
REMARK                            x       y       z     vdW  Elec       q    Type
REMARK                         _______ _______ _______ _____ _____    ______ ____
ROOT
ATOM      1  C   UNL     1      82.784  47.140  43.488  0.00  0.00    -0.000 C 
ATOM      2  C   UNL     1      83.733  46.429  43.275  0.00  0.00    -0.001 C 
ENDROOT
BRANCH   1   4
ATOM      3  C   UNL     1      80.723  48.685  43.953  0.00  0.00    -0.001 C 
ATOM      4  C   UNL     1      81.672  47.974  43.739  0.00  0.00    -0.000 C 
BRANCH   3   6
ATOM      5  C   UNL     1      78.663  50.230  44.417  0.00  0.00    -0.055 C 
ATOM      6  C   UNL     1      79.612  49.518  44.203  0.00  0.00    -0.011 C 
BRANCH   5   7
ATOM      7  C   UNL     1      77.507  51.098  44.678  0.00  0.00    +0.139 C 
BRANCH   7   8
ATOM      8  O   UNL     1      77.312  51.941  43.574  0.00  0.00    -0.377 OA
ATOM      9  H   UNL     1      78.166  52.133  43.158  0.00  0.00    +0.000 HD
ENDBRANCH   7   8
BRANCH   7  10
ATOM     10  C   UNL     1      76.253  50.256  44.936  0.00  0.00    +0.081 C 
BRANCH  10  11
ATOM     11  O   UNL     1      76.366  49.575  46.158  0.00  0.00    -0.391 OA
ATOM     12  H   UNL     1      77.303  49.421  46.355  0.00  0.00    +0.000 HD
ENDBRANCH  10  11
ENDBRANCH   7  10
ENDBRANCH   5   7
ENDBRANCH   3   6
ENDBRANCH   1   4
BRANCH   2  13
ATOM     13  C   UNL     1      84.844  45.595  43.026  0.00  0.00    -0.014 C 
ATOM     14  C   UNL     1      85.794  44.884  42.813  0.00  0.00    -0.088 C 
BRANCH  14  15
ATOM     15  C   UNL     1      86.949  44.018  42.555  0.00  0.00    +0.010 C 
BRANCH  15  16
ATOM     16  C   UNL     1      88.246  44.722  42.969  0.00  0.00    -0.042 C 
BRANCH  16  17
ATOM     17  C   UNL     1      88.468  46.045  42.216  0.00  0.00    -0.052 C 
BRANCH  17  18
ATOM     18  C   UNL     1      89.809  46.732  42.561  0.00  0.00    -0.053 C 
BRANCH  18  19
ATOM     19  C   UNL     1      90.211  47.818  41.544  0.00  0.00    -0.053 C 
BRANCH  19  20
ATOM     20  C   UNL     1      90.239  49.238  42.139  0.00  0.00    -0.043 C 
BRANCH  20  21
ATOM     21  C   UNL     1      89.009  50.066  41.742  0.00  0.00    +0.045 C 
BRANCH  21  22
ATOM     22  C   UNL     1      89.411  51.207  40.862  0.00  0.00    +0.305 C 
ATOM     23  O   UNL     1      89.932  52.238  41.364  0.00  0.00    -0.251 OA
ATOM     24  O   UNL     1      89.167  51.146  39.494  0.00  0.00    -0.481 OA
ENDBRANCH  21  22
ENDBRANCH  20  21
ENDBRANCH  19  20
ENDBRANCH  18  19
ENDBRANCH  17  18
ENDBRANCH  16  17
ENDBRANCH  15  16
ENDBRANCH  14  15
ENDBRANCH   2  13
TORSDOF 15
ENDMDL
MODEL 3
REMARK VINA RESULT:    -6.415      5.029      6.074
REMARK INTER + INTRA:         -12.578
REMARK INTER:                 -11.039
REMARK INTRA:                  -1.539
REMARK UNBOUND:                -0.914
REMARK  Name = 
REMARK  15 active torsions:
REMARK  status: ('A' for Active; 'I' for Inactive)
REMARK    1  A    between atoms: O_1  and  C_2
REMARK    2  A    between atoms: C_2  and  C_3
REMARK    3  A    between atoms: C_3  and  C_4
REMARK    4  A    between atoms: C_3  and  O_22
REMARK    5  A    between atoms: C_5  and  C_6
REMARK    6  A    between atoms: C_7  and  C_8
REMARK    7  A    between atoms: C_9  and  C_10
REMARK    8  A    between atoms: C_11  and  C_12
REMARK    9  A    between atoms: C_12  and  C_13
REMARK   10  A    between atoms: C_13  and  C_14
REMARK   11  A    between atoms: C_14  and  C_15
REMARK   12  A    between atoms: C_15  and  C_16
REMARK   13  A    between atoms: C_16  and  C_17
REMARK   14  A    between atoms: C_17  and  C_18
REMARK   15  A    between atoms: C_18  and  C_19
REMARK                            x       y       z     vdW  Elec       q    Type
REMARK                         _______ _______ _______ _____ _____    ______ ____
ROOT
ATOM      1  C   UNL     1      86.554  51.151  43.595  0.00  0.00    -0.000 C 
ATOM      2  C   UNL     1      86.649  49.959  43.446  0.00  0.00    -0.001 C 
ENDROOT
BRANCH   1   4
ATOM      3  C   UNL     1      86.349  53.740  43.918  0.00  0.00    -0.001 C 
ATOM      4  C   UNL     1      86.443  52.548  43.769  0.00  0.00    -0.000 C 
BRANCH   3   6
ATOM      5  C   UNL     1      86.141  56.329  44.240  0.00  0.00    -0.055 C 
ATOM      6  C   UNL     1      86.237  55.136  44.091  0.00  0.00    -0.011 C 
BRANCH   5   7
ATOM      7  C   UNL     1      86.026  57.782  44.420  0.00  0.00    +0.139 C 
BRANCH   7   8
ATOM      8  O   UNL     1      85.486  58.345  43.255  0.00  0.00    -0.377 OA
ATOM      9  H   UNL     1      85.186  57.637  42.663  0.00  0.00    +0.000 HD
ENDBRANCH   7   8
BRANCH   7  10
ATOM     10  C   UNL     1      85.140  58.103  45.629  0.00  0.00    +0.081 C 
BRANCH  10  11
ATOM     11  O   UNL     1      84.171  59.056  45.285  0.00  0.00    -0.391 OA
ATOM     12  H   UNL     1      83.324  58.816  45.692  0.00  0.00    +0.000 HD
ENDBRANCH  10  11
ENDBRANCH   7  10
ENDBRANCH   5   7
ENDBRANCH   3   6
ENDBRANCH   1   4
BRANCH   2  13
ATOM     13  C   UNL     1      86.761  48.563  43.271  0.00  0.00    -0.014 C 
ATOM     14  C   UNL     1      86.856  47.371  43.121  0.00  0.00    -0.088 C 
BRANCH  14  15
ATOM     15  C   UNL     1      86.972  45.920  42.939  0.00  0.00    +0.010 C 
BRANCH  15  16
ATOM     16  C   UNL     1      88.250  45.581  42.163  0.00  0.00    -0.042 C 
BRANCH  16  17
ATOM     17  C   UNL     1      89.484  46.328  42.701  0.00  0.00    -0.052 C 
BRANCH  17  18
ATOM     18  C   UNL     1      90.151  47.248  41.654  0.00  0.00    -0.053 C 
BRANCH  18  19
ATOM     19  C   UNL     1      90.241  48.718  42.110  0.00  0.00    -0.053 C 
BRANCH  19  20
ATOM     20  C   UNL     1      89.684  49.717  41.081  0.00  0.00    -0.043 C 
BRANCH  20  21
ATOM     21  C   UNL     1      89.636  51.153  41.620  0.00  0.00    +0.045 C 
BRANCH  21  22
ATOM     22  C   UNL     1      88.902  52.043  40.667  0.00  0.00    +0.305 C 
ATOM     23  O   UNL     1      88.511  53.181  41.041  0.00  0.00    -0.251 OA
ATOM     24  O   UNL     1      88.612  51.594  39.383  0.00  0.00    -0.481 OA
ENDBRANCH  21  22
ENDBRANCH  20  21
ENDBRANCH  19  20
ENDBRANCH  18  19
ENDBRANCH  17  18
ENDBRANCH  16  17
ENDBRANCH  15  16
ENDBRANCH  14  15
ENDBRANCH   2  13
TORSDOF 15
ENDMDL
MODEL 4
REMARK VINA RESULT:    -6.213      5.969      9.780
REMARK INTER + INTRA:         -12.212
REMARK INTER:                 -10.711
REMARK INTRA:                  -1.501
REMARK UNBOUND:                -0.914
REMARK  Name = 
REMARK  15 active torsions:
REMARK  status: ('A' for Active; 'I' for Inactive)
REMARK    1  A    between atoms: O_1  and  C_2
REMARK    2  A    between atoms: C_2  and  C_3
REMARK    3  A    between atoms: C_3  and  C_4
REMARK    4  A    between atoms: C_3  and  O_22
REMARK    5  A    between atoms: C_5  and  C_6
REMARK    6  A    between atoms: C_7  and  C_8
REMARK    7  A    between atoms: C_9  and  C_10
REMARK    8  A    between atoms: C_11  and  C_12
REMARK    9  A    between atoms: C_12  and  C_13
REMARK   10  A    between atoms: C_13  and  C_14
REMARK   11  A    between atoms: C_14  and  C_15
REMARK   12  A    between atoms: C_15  and  C_16
REMARK   13  A    between atoms: C_16  and  C_17
REMARK   14  A    between atoms: C_17  and  C_18
REMARK   15  A    between atoms: C_18  and  C_19
REMARK                            x       y       z     vdW  Elec       q    Type
REMARK                         _______ _______ _______ _____ _____    ______ ____
ROOT
ATOM      1  C   UNL     1      86.561  52.487  45.446  0.00  0.00    -0.000 C 
ATOM      2  C   UNL     1      85.895  53.352  45.956  0.00  0.00    -0.001 C 
ENDROOT
BRANCH   1   4
ATOM      3  C   UNL     1      88.006  50.607  44.338  0.00  0.00    -0.001 C 
ATOM      4  C   UNL     1      87.340  51.472  44.848  0.00  0.00    -0.000 C 
BRANCH   3   6
ATOM      5  C   UNL     1      89.450  48.726  43.231  0.00  0.00    -0.055 C 
ATOM      6  C   UNL     1      88.784  49.592  43.741  0.00  0.00    -0.011 C 
BRANCH   5   7
ATOM      7  C   UNL     1      90.260  47.670  42.609  0.00  0.00    +0.139 C 
BRANCH   7   8
ATOM      8  O   UNL     1      91.006  47.022  43.603  0.00  0.00    -0.377 OA
ATOM      9  H   UNL     1      90.536  47.080  44.449  0.00  0.00    +0.000 HD
ENDBRANCH   7   8
BRANCH   7  10
ATOM     10  C   UNL     1      89.361  46.668  41.876  0.00  0.00    +0.081 C 
BRANCH  10  11
ATOM     11  O   UNL     1      88.358  46.193  42.735  0.00  0.00    -0.391 OA
ATOM     12  H   UNL     1      87.704  45.693  42.222  0.00  0.00    +0.000 HD
ENDBRANCH  10  11
ENDBRANCH   7  10
ENDBRANCH   5   7
ENDBRANCH   3   6
ENDBRANCH   1   4
BRANCH   2  13
ATOM     13  C   UNL     1      85.116  54.366  46.554  0.00  0.00    -0.014 C 
ATOM     14  C   UNL     1      84.452  55.232  47.065  0.00  0.00    -0.088 C 
BRANCH  14  15
ATOM     15  C   UNL     1      83.642  56.286  47.686  0.00  0.00    +0.010 C 
BRANCH  15  16
ATOM     16  C   UNL     1      83.743  57.583  46.876  0.00  0.00    -0.042 C 
BRANCH  16  17
ATOM     17  C   UNL     1      85.171  57.854  46.369  0.00  0.00    -0.052 C 
BRANCH  17  18
ATOM     18  C   UNL     1      85.227  58.266  44.880  0.00  0.00    -0.053 C 
BRANCH  18  19
ATOM     19  C   UNL     1      85.354  57.063  43.925  0.00  0.00    -0.053 C 
BRANCH  19  20
ATOM     20  C   UNL     1      84.000  56.542  43.409  0.00  0.00    -0.043 C 
BRANCH  20  21
ATOM     21  C   UNL     1      84.058  55.067  42.990  0.00  0.00    +0.045 C 
BRANCH  21  22
ATOM     22  C   UNL     1      85.038  54.879  41.875  0.00  0.00    +0.305 C 
ATOM     23  O   UNL     1      84.859  55.460  40.772  0.00  0.00    -0.251 OA
ATOM     24  O   UNL     1      86.125  54.026  42.045  0.00  0.00    -0.481 OA
ENDBRANCH  21  22
ENDBRANCH  20  21
ENDBRANCH  19  20
ENDBRANCH  18  19
ENDBRANCH  17  18
ENDBRANCH  16  17
ENDBRANCH  15  16
ENDBRANCH  14  15
ENDBRANCH   2  13
TORSDOF 15
ENDMDL
MODEL 5
REMARK VINA RESULT:    -5.999      1.848      2.238
REMARK INTER + INTRA:         -11.822
REMARK INTER:                 -10.546
REMARK INTRA:                  -1.276
REMARK UNBOUND:                -0.914
REMARK  Name = 
REMARK  15 active torsions:
REMARK  status: ('A' for Active; 'I' for Inactive)
REMARK    1  A    between atoms: O_1  and  C_2
REMARK    2  A    between atoms: C_2  and  C_3
REMARK    3  A    between atoms: C_3  and  C_4
REMARK    4  A    between atoms: C_3  and  O_22
REMARK    5  A    between atoms: C_5  and  C_6
REMARK    6  A    between atoms: C_7  and  C_8
REMARK    7  A    between atoms: C_9  and  C_10
REMARK    8  A    between atoms: C_11  and  C_12
REMARK    9  A    between atoms: C_12  and  C_13
REMARK   10  A    between atoms: C_13  and  C_14
REMARK   11  A    between atoms: C_14  and  C_15
REMARK   12  A    between atoms: C_15  and  C_16
REMARK   13  A    between atoms: C_16  and  C_17
REMARK   14  A    between atoms: C_17  and  C_18
REMARK   15  A    between atoms: C_18  and  C_19
REMARK                            x       y       z     vdW  Elec       q    Type
REMARK                         _______ _______ _______ _____ _____    ______ ____
ROOT
ATOM      1  C   UNL     1      84.159  47.475  43.584  0.00  0.00    -0.000 C 
ATOM      2  C   UNL     1      85.261  47.056  43.337  0.00  0.00    -0.001 C 
ENDROOT
BRANCH   1   4
ATOM      3  C   UNL     1      81.765  48.385  44.125  0.00  0.00    -0.001 C 
ATOM      4  C   UNL     1      82.867  47.966  43.875  0.00  0.00    -0.000 C 
BRANCH   3   6
ATOM      5  C   UNL     1      79.371  49.295  44.665  0.00  0.00    -0.055 C 
ATOM      6  C   UNL     1      80.474  48.875  44.417  0.00  0.00    -0.011 C 
BRANCH   5   7
ATOM      7  C   UNL     1      78.028  49.805  44.969  0.00  0.00    +0.139 C 
BRANCH   7   8
ATOM      8  O   UNL     1      77.878  49.897  46.360  0.00  0.00    -0.377 OA
ATOM      9  H   UNL     1      77.242  50.597  46.571  0.00  0.00    +0.000 HD
ENDBRANCH   7   8
BRANCH   7  10
ATOM     10  C   UNL     1      77.816  51.175  44.316  0.00  0.00    +0.081 C 
BRANCH  10  11
ATOM     11  O   UNL     1      76.779  51.867  44.959  0.00  0.00    -0.391 OA
ATOM     12  H   UNL     1      76.305  52.412  44.313  0.00  0.00    +0.000 HD
ENDBRANCH  10  11
ENDBRANCH   7  10
ENDBRANCH   5   7
ENDBRANCH   3   6
ENDBRANCH   1   4
BRANCH   2  13
ATOM     13  C   UNL     1      86.552  46.564  43.046  0.00  0.00    -0.014 C 
ATOM     14  C   UNL     1      87.654  46.143  42.799  0.00  0.00    -0.088 C 
BRANCH  14  15
ATOM     15  C   UNL     1      88.995  45.631  42.498  0.00  0.00    +0.010 C 
BRANCH  15  16
ATOM     16  C   UNL     1      89.904  46.769  42.020  0.00  0.00    -0.042 C 
BRANCH  16  17
ATOM     17  C   UNL     1      90.436  47.628  43.181  0.00  0.00    -0.052 C 
BRANCH  17  18
ATOM     18  C   UNL     1      90.449  49.142  42.870  0.00  0.00    -0.053 C 
BRANCH  18  19
ATOM     19  C   UNL     1      89.316  49.573  41.918  0.00  0.00    -0.053 C 
BRANCH  19  20
ATOM     20  C   UNL     1      88.133  50.248  42.635  0.00  0.00    -0.043 C 
BRANCH  20  21
ATOM     21  C   UNL     1      88.032  49.845  44.112  0.00  0.00    +0.045 C 
BRANCH  21  22
ATOM     22  C   UNL     1      87.136  50.788  44.850  0.00  0.00    +0.305 C 
ATOM     23  O   UNL     1      87.587  51.465  45.812  0.00  0.00    -0.251 OA
ATOM     24  O   UNL     1      85.793  50.884  44.501  0.00  0.00    -0.481 OA
ENDBRANCH  21  22
ENDBRANCH  20  21
ENDBRANCH  19  20
ENDBRANCH  18  19
ENDBRANCH  17  18
ENDBRANCH  16  17
ENDBRANCH  15  16
ENDBRANCH  14  15
ENDBRANCH   2  13
TORSDOF 15
ENDMDL
MODEL 6
REMARK VINA RESULT:    -5.921      6.158      8.728
REMARK INTER + INTRA:         -11.682
REMARK INTER:                 -10.653
REMARK INTRA:                  -1.029
REMARK UNBOUND:                -0.914
REMARK  Name = 
REMARK  15 active torsions:
REMARK  status: ('A' for Active; 'I' for Inactive)
REMARK    1  A    between atoms: O_1  and  C_2
REMARK    2  A    between atoms: C_2  and  C_3
REMARK    3  A    between atoms: C_3  and  C_4
REMARK    4  A    between atoms: C_3  and  O_22
REMARK    5  A    between atoms: C_5  and  C_6
REMARK    6  A    between atoms: C_7  and  C_8
REMARK    7  A    between atoms: C_9  and  C_10
REMARK    8  A    between atoms: C_11  and  C_12
REMARK    9  A    between atoms: C_12  and  C_13
REMARK   10  A    between atoms: C_13  and  C_14
REMARK   11  A    between atoms: C_14  and  C_15
REMARK   12  A    between atoms: C_15  and  C_16
REMARK   13  A    between atoms: C_16  and  C_17
REMARK   14  A    between atoms: C_17  and  C_18
REMARK   15  A    between atoms: C_18  and  C_19
REMARK                            x       y       z     vdW  Elec       q    Type
REMARK                         _______ _______ _______ _____ _____    ______ ____
ROOT
ATOM      1  C   UNL     1      85.988  51.051  45.427  0.00  0.00    -0.000 C 
ATOM      2  C   UNL     1      86.055  52.214  45.738  0.00  0.00    -0.001 C 
ENDROOT
BRANCH   1   4
ATOM      3  C   UNL     1      85.839  48.527  44.754  0.00  0.00    -0.001 C 
ATOM      4  C   UNL     1      85.907  49.689  45.065  0.00  0.00    -0.000 C 
BRANCH   3   6
ATOM      5  C   UNL     1      85.688  46.002  44.083  0.00  0.00    -0.055 C 
ATOM      6  C   UNL     1      85.758  47.165  44.392  0.00  0.00    -0.011 C 
BRANCH   5   7
ATOM      7  C   UNL     1      85.605  44.585  43.706  0.00  0.00    +0.139 C 
BRANCH   7   8
ATOM      8  O   UNL     1      84.794  44.462  42.568  0.00  0.00    -0.377 OA
ATOM      9  H   UNL     1      85.202  44.937  41.828  0.00  0.00    +0.000 HD
ENDBRANCH   7   8
BRANCH   7  10
ATOM     10  C   UNL     1      87.003  44.021  43.430  0.00  0.00    +0.081 C 
BRANCH  10  11
ATOM     11  O   UNL     1      87.507  43.385  44.574  0.00  0.00    -0.391 OA
ATOM     12  H   UNL     1      88.218  43.923  44.956  0.00  0.00    +0.000 HD
ENDBRANCH  10  11
ENDBRANCH   7  10
ENDBRANCH   5   7
ENDBRANCH   3   6
ENDBRANCH   1   4
BRANCH   2  13
ATOM     13  C   UNL     1      86.136  53.575  46.101  0.00  0.00    -0.014 C 
ATOM     14  C   UNL     1      86.205  54.738  46.410  0.00  0.00    -0.088 C 
BRANCH  14  15
ATOM     15  C   UNL     1      86.288  56.153  46.788  0.00  0.00    +0.010 C 
BRANCH  15  16
ATOM     16  C   UNL     1      84.915  56.821  46.656  0.00  0.00    -0.042 C 
BRANCH  16  17
ATOM     17  C   UNL     1      84.962  58.108  45.814  0.00  0.00    -0.052 C 
BRANCH  17  18
ATOM     18  C   UNL     1      85.196  57.850  44.308  0.00  0.00    -0.053 C 
BRANCH  18  19
ATOM     19  C   UNL     1      84.229  56.805  43.716  0.00  0.00    -0.053 C 
BRANCH  19  20
ATOM     20  C   UNL     1      84.934  55.710  42.895  0.00  0.00    -0.043 C 
BRANCH  20  21
ATOM     21  C   UNL     1      83.944  54.782  42.179  0.00  0.00    +0.045 C 
BRANCH  21  22
ATOM     22  C   UNL     1      83.800  55.181  40.744  0.00  0.00    +0.305 C 
ATOM     23  O   UNL     1      82.697  55.032  40.155  0.00  0.00    -0.251 OA
ATOM     24  O   UNL     1      84.899  55.676  40.049  0.00  0.00    -0.481 OA
ENDBRANCH  21  22
ENDBRANCH  20  21
ENDBRANCH  19  20
ENDBRANCH  18  19
ENDBRANCH  17  18
ENDBRANCH  16  17
ENDBRANCH  15  16
ENDBRANCH  14  15
ENDBRANCH   2  13
TORSDOF 15
ENDMDL
MODEL 7
REMARK VINA RESULT:    -5.762      6.587      9.084
REMARK INTER + INTRA:         -11.393
REMARK INTER:                 -10.180
REMARK INTRA:                  -1.213
REMARK UNBOUND:                -0.914
REMARK  Name = 
REMARK  15 active torsions:
REMARK  status: ('A' for Active; 'I' for Inactive)
REMARK    1  A    between atoms: O_1  and  C_2
REMARK    2  A    between atoms: C_2  and  C_3
REMARK    3  A    between atoms: C_3  and  C_4
REMARK    4  A    between atoms: C_3  and  O_22
REMARK    5  A    between atoms: C_5  and  C_6
REMARK    6  A    between atoms: C_7  and  C_8
REMARK    7  A    between atoms: C_9  and  C_10
REMARK    8  A    between atoms: C_11  and  C_12
REMARK    9  A    between atoms: C_12  and  C_13
REMARK   10  A    between atoms: C_13  and  C_14
REMARK   11  A    between atoms: C_14  and  C_15
REMARK   12  A    between atoms: C_15  and  C_16
REMARK   13  A    between atoms: C_16  and  C_17
REMARK   14  A    between atoms: C_17  and  C_18
REMARK   15  A    between atoms: C_18  and  C_19
REMARK                            x       y       z     vdW  Elec       q    Type
REMARK                         _______ _______ _______ _____ _____    ______ ____
ROOT
ATOM      1  C   UNL     1      84.815  51.361  43.837  0.00  0.00    -0.000 C 
ATOM      2  C   UNL     1      84.705  52.554  43.714  0.00  0.00    -0.001 C 
ENDROOT
BRANCH   1   4
ATOM      3  C   UNL     1      85.053  48.769  44.109  0.00  0.00    -0.001 C 
ATOM      4  C   UNL     1      84.944  49.962  43.983  0.00  0.00    -0.000 C 
BRANCH   3   6
ATOM      5  C   UNL     1      85.292  46.177  44.381  0.00  0.00    -0.055 C 
ATOM      6  C   UNL     1      85.182  47.371  44.255  0.00  0.00    -0.011 C 
BRANCH   5   7
ATOM      7  C   UNL     1      85.426  44.722  44.532  0.00  0.00    +0.139 C 
BRANCH   7   8
ATOM      8  O   UNL     1      84.346  44.095  43.895  0.00  0.00    -0.377 OA
ATOM      9  H   UNL     1      84.524  43.146  43.815  0.00  0.00    +0.000 HD
ENDBRANCH   7   8
BRANCH   7  10
ATOM     10  C   UNL     1      86.753  44.241  43.934  0.00  0.00    +0.081 C 
BRANCH  10  11
ATOM     11  O   UNL     1      87.543  43.637  44.922  0.00  0.00    -0.391 OA
ATOM     12  H   UNL     1      88.437  43.489  44.575  0.00  0.00    +0.000 HD
ENDBRANCH  10  11
ENDBRANCH   7  10
ENDBRANCH   5   7
ENDBRANCH   3   6
ENDBRANCH   1   4
BRANCH   2  13
ATOM     13  C   UNL     1      84.577  53.952  43.570  0.00  0.00    -0.014 C 
ATOM     14  C   UNL     1      84.466  55.146  43.446  0.00  0.00    -0.088 C 
BRANCH  14  15
ATOM     15  C   UNL     1      84.333  56.599  43.296  0.00  0.00    +0.010 C 
BRANCH  15  16
ATOM     16  C   UNL     1      85.464  57.317  44.039  0.00  0.00    -0.042 C 
BRANCH  16  17
ATOM     17  C   UNL     1      84.943  58.319  45.084  0.00  0.00    -0.052 C 
BRANCH  17  18
ATOM     18  C   UNL     1      84.646  57.676  46.458  0.00  0.00    -0.053 C 
BRANCH  18  19
ATOM     19  C   UNL     1      85.607  56.522  46.806  0.00  0.00    -0.053 C 
BRANCH  19  20
ATOM     20  C   UNL     1      84.890  55.194  47.107  0.00  0.00    -0.043 C 
BRANCH  20  21
ATOM     21  C   UNL     1      85.867  54.063  47.456  0.00  0.00    +0.045 C 
BRANCH  21  22
ATOM     22  C   UNL     1      85.356  53.272  48.619  0.00  0.00    +0.305 C 
ATOM     23  O   UNL     1      85.911  52.187  48.937  0.00  0.00    -0.251 OA
ATOM     24  O   UNL     1      84.240  53.715  49.321  0.00  0.00    -0.481 OA
ENDBRANCH  21  22
ENDBRANCH  20  21
ENDBRANCH  19  20
ENDBRANCH  18  19
ENDBRANCH  17  18
ENDBRANCH  16  17
ENDBRANCH  15  16
ENDBRANCH  14  15
ENDBRANCH   2  13
TORSDOF 15
ENDMDL
MODEL 8
REMARK VINA RESULT:    -5.761      6.048      7.926
REMARK INTER + INTRA:         -11.389
REMARK INTER:                  -9.855
REMARK INTRA:                  -1.534
REMARK UNBOUND:                -0.914
REMARK  Name = 
REMARK  15 active torsions:
REMARK  status: ('A' for Active; 'I' for Inactive)
REMARK    1  A    between atoms: O_1  and  C_2
REMARK    2  A    between atoms: C_2  and  C_3
REMARK    3  A    between atoms: C_3  and  C_4
REMARK    4  A    between atoms: C_3  and  O_22
REMARK    5  A    between atoms: C_5  and  C_6
REMARK    6  A    between atoms: C_7  and  C_8
REMARK    7  A    between atoms: C_9  and  C_10
REMARK    8  A    between atoms: C_11  and  C_12
REMARK    9  A    between atoms: C_12  and  C_13
REMARK   10  A    between atoms: C_13  and  C_14
REMARK   11  A    between atoms: C_14  and  C_15
REMARK   12  A    between atoms: C_15  and  C_16
REMARK   13  A    between atoms: C_16  and  C_17
REMARK   14  A    between atoms: C_17  and  C_18
REMARK   15  A    between atoms: C_18  and  C_19
REMARK                            x       y       z     vdW  Elec       q    Type
REMARK                         _______ _______ _______ _____ _____    ______ ____
ROOT
ATOM      1  C   UNL     1      83.722  52.809  43.746  0.00  0.00    -0.000 C 
ATOM      2  C   UNL     1      84.079  53.959  43.691  0.00  0.00    -0.001 C 
ENDROOT
BRANCH   1   4
ATOM      3  C   UNL     1      82.947  50.312  43.861  0.00  0.00    -0.001 C 
ATOM      4  C   UNL     1      83.304  51.462  43.808  0.00  0.00    -0.000 C 
BRANCH   3   6
ATOM      5  C   UNL     1      82.171  47.815  43.977  0.00  0.00    -0.055 C 
ATOM      6  C   UNL     1      82.529  48.965  43.923  0.00  0.00    -0.011 C 
BRANCH   5   7
ATOM      7  C   UNL     1      81.735  46.414  44.042  0.00  0.00    +0.139 C 
BRANCH   7   8
ATOM      8  O   UNL     1      82.652  45.687  44.815  0.00  0.00    -0.377 OA
ATOM      9  H   UNL     1      83.049  44.988  44.273  0.00  0.00    +0.000 HD
ENDBRANCH   7   8
BRANCH   7  10
ATOM     10  C   UNL     1      80.330  46.317  44.646  0.00  0.00    +0.081 C 
BRANCH  10  11
ATOM     11  O   UNL     1      80.181  47.247  45.685  0.00  0.00    -0.391 OA
ATOM     12  H   UNL     1      80.554  46.881  46.502  0.00  0.00    +0.000 HD
ENDBRANCH  10  11
ENDBRANCH   7  10
ENDBRANCH   5   7
ENDBRANCH   3   6
ENDBRANCH   1   4
BRANCH   2  13
ATOM     13  C   UNL     1      84.496  55.305  43.629  0.00  0.00    -0.014 C 
ATOM     14  C   UNL     1      84.853  56.455  43.576  0.00  0.00    -0.088 C 
BRANCH  14  15
ATOM     15  C   UNL     1      85.287  57.855  43.510  0.00  0.00    +0.010 C 
BRANCH  15  16
ATOM     16  C   UNL     1      85.909  58.283  44.845  0.00  0.00    -0.042 C 
BRANCH  16  17
ATOM     17  C   UNL     1      84.977  58.023  46.041  0.00  0.00    -0.052 C 
BRANCH  17  18
ATOM     18  C   UNL     1      85.460  56.877  46.960  0.00  0.00    -0.053 C 
BRANCH  18  19
ATOM     19  C   UNL     1      84.331  55.910  47.365  0.00  0.00    -0.053 C 
BRANCH  19  20
ATOM     20  C   UNL     1      84.800  54.455  47.540  0.00  0.00    -0.043 C 
BRANCH  20  21
ATOM     21  C   UNL     1      86.122  54.171  46.814  0.00  0.00    +0.045 C 
BRANCH  21  22
ATOM     22  C   UNL     1      86.357  52.697  46.714  0.00  0.00    +0.305 C 
ATOM     23  O   UNL     1      86.219  51.965  47.730  0.00  0.00    -0.251 OA
ATOM     24  O   UNL     1      86.770  52.142  45.507  0.00  0.00    -0.481 OA
ENDBRANCH  21  22
ENDBRANCH  20  21
ENDBRANCH  19  20
ENDBRANCH  18  19
ENDBRANCH  17  18
ENDBRANCH  16  17
ENDBRANCH  15  16
ENDBRANCH  14  15
ENDBRANCH   2  13
TORSDOF 15
ENDMDL
MODEL 9
REMARK VINA RESULT:    -5.622      3.020      4.275
REMARK INTER + INTRA:         -11.137
REMARK INTER:                 -10.223
REMARK INTRA:                  -0.914
REMARK UNBOUND:                -0.914
REMARK  Name = 
REMARK  15 active torsions:
REMARK  status: ('A' for Active; 'I' for Inactive)
REMARK    1  A    between atoms: O_1  and  C_2
REMARK    2  A    between atoms: C_2  and  C_3
REMARK    3  A    between atoms: C_3  and  C_4
REMARK    4  A    between atoms: C_3  and  O_22
REMARK    5  A    between atoms: C_5  and  C_6
REMARK    6  A    between atoms: C_7  and  C_8
REMARK    7  A    between atoms: C_9  and  C_10
REMARK    8  A    between atoms: C_11  and  C_12
REMARK    9  A    between atoms: C_12  and  C_13
REMARK   10  A    between atoms: C_13  and  C_14
REMARK   11  A    between atoms: C_14  and  C_15
REMARK   12  A    between atoms: C_15  and  C_16
REMARK   13  A    between atoms: C_16  and  C_17
REMARK   14  A    between atoms: C_17  and  C_18
REMARK   15  A    between atoms: C_18  and  C_19
REMARK                            x       y       z     vdW  Elec       q    Type
REMARK                         _______ _______ _______ _____ _____    ______ ____
ROOT
ATOM      1  C   UNL     1      84.198  49.302  44.086  0.00  0.00    -0.000 C 
ATOM      2  C   UNL     1      85.396  49.225  43.973  0.00  0.00    -0.001 C 
ENDROOT
BRANCH   1   4
ATOM      3  C   UNL     1      81.598  49.473  44.327  0.00  0.00    -0.001 C 
ATOM      4  C   UNL     1      82.795  49.394  44.217  0.00  0.00    -0.000 C 
BRANCH   3   6
ATOM      5  C   UNL     1      78.998  49.645  44.570  0.00  0.00    -0.055 C 
ATOM      6  C   UNL     1      80.196  49.566  44.458  0.00  0.00    -0.011 C 
BRANCH   5   7
ATOM      7  C   UNL     1      77.538  49.740  44.706  0.00  0.00    +0.139 C 
BRANCH   7   8
ATOM      8  O   UNL     1      77.158  49.187  45.937  0.00  0.00    -0.377 OA
ATOM      9  H   UNL     1      77.501  48.283  46.005  0.00  0.00    +0.000 HD
ENDBRANCH   7   8
BRANCH   7  10
ATOM     10  C   UNL     1      77.087  51.202  44.613  0.00  0.00    +0.081 C 
BRANCH  10  11
ATOM     11  O   UNL     1      76.829  51.549  43.279  0.00  0.00    -0.391 OA
ATOM     12  H   UNL     1      77.170  50.855  42.693  0.00  0.00    +0.000 HD
ENDBRANCH  10  11
ENDBRANCH   7  10
ENDBRANCH   5   7
ENDBRANCH   3   6
ENDBRANCH   1   4
BRANCH   2  13
ATOM     13  C   UNL     1      86.798  49.135  43.842  0.00  0.00    -0.014 C 
ATOM     14  C   UNL     1      87.996  49.057  43.729  0.00  0.00    -0.088 C 
BRANCH  14  15
ATOM     15  C   UNL     1      89.453  48.964  43.593  0.00  0.00    +0.010 C 
BRANCH  15  16
ATOM     16  C   UNL     1      89.823  48.348  42.239  0.00  0.00    -0.042 C 
BRANCH  16  17
ATOM     17  C   UNL     1      89.790  46.809  42.261  0.00  0.00    -0.052 C 
BRANCH  17  18
ATOM     18  C   UNL     1      88.360  46.226  42.317  0.00  0.00    -0.053 C 
BRANCH  18  19
ATOM     19  C   UNL     1      88.330  44.735  42.707  0.00  0.00    -0.053 C 
BRANCH  19  20
ATOM     20  C   UNL     1      87.193  44.377  43.681  0.00  0.00    -0.043 C 
BRANCH  20  21
ATOM     21  C   UNL     1      86.133  45.482  43.781  0.00  0.00    +0.045 C 
BRANCH  21  22
ATOM     22  C   UNL     1      84.872  45.059  43.096  0.00  0.00    +0.305 C 
ATOM     23  O   UNL     1      84.844  43.990  42.430  0.00  0.00    -0.251 OA
ATOM     24  O   UNL     1      83.744  45.870  43.159  0.00  0.00    -0.481 OA
ENDBRANCH  21  22
ENDBRANCH  20  21
ENDBRANCH  19  20
ENDBRANCH  18  19
ENDBRANCH  17  18
ENDBRANCH  16  17
ENDBRANCH  15  16
ENDBRANCH  14  15
ENDBRANCH   2  13
TORSDOF 15
ENDMDL
