MODEL 1
REMARK VINA RESULT:    -6.681      0.000      0.000
REMARK INTER + INTRA:         -12.830
REMARK INTER:                 -12.107
REMARK INTRA:                  -0.723
REMARK UNBOUND:                -0.680
REMARK  Name = 
REMARK  15 active torsions:
REMARK  status: ('A' for Active; 'I' for Inactive)
REMARK    1  A    between atoms: O_1  and  C_2
REMARK    2  A    between atoms: C_2  and  C_3
REMARK    3  A    between atoms: C_3  and  C_4
REMARK    4  A    between atoms: C_3  and  O_22
REMARK    5  A    between atoms: C_5  and  C_6
REMARK    6  A    between atoms: C_7  and  C_8
REMARK    7  A    between atoms: C_9  and  C_10
REMARK    8  A    between atoms: C_11  and  C_12
REMARK    9  A    between atoms: C_12  and  C_13
REMARK   10  A    between atoms: C_13  and  C_14
REMARK   11  A    between atoms: C_14  and  C_15
REMARK   12  A    between atoms: C_15  and  C_16
REMARK   13  A    between atoms: C_16  and  C_17
REMARK   14  A    between atoms: C_17  and  C_18
REMARK   15  A    between atoms: C_18  and  C_19
REMARK                            x       y       z     vdW  Elec       q    Type
REMARK                         _______ _______ _______ _____ _____    ______ ____
ROOT
ATOM      1  C   UNL     1      83.913  47.625  43.294  0.00  0.00    -0.000 C 
ATOM      2  C   UNL     1      85.018  47.209  43.053  0.00  0.00    -0.001 C 
ENDROOT
BRANCH   1   4
ATOM      3  C   UNL     1      81.512  48.524  43.818  0.00  0.00    -0.001 C 
ATOM      4  C   UNL     1      82.618  48.110  43.578  0.00  0.00    -0.000 C 
BRANCH   3   6
ATOM      5  C   UNL     1      79.111  49.424  44.344  0.00  0.00    -0.055 C 
ATOM      6  C   UNL     1      80.218  49.010  44.102  0.00  0.00    -0.011 C 
BRANCH   5   7
ATOM      7  C   UNL     1      77.764  49.930  44.640  0.00  0.00    +0.139 C 
BRANCH   7   8
ATOM      8  O   UNL     1      77.618  50.053  46.029  0.00  0.00    -0.377 OA
ATOM      9  H   UNL     1      76.858  49.527  46.321  0.00  0.00    +0.000 HD
ENDBRANCH   7   8
BRANCH   7  10
ATOM     10  C   UNL     1      77.538  51.283  43.956  0.00  0.00    +0.081 C 
BRANCH  10  11
ATOM     11  O   UNL     1      76.605  52.043  44.676  0.00  0.00    -0.391 OA
ATOM     12  H   UNL     1      75.726  51.642  44.590  0.00  0.00    +0.000 HD
ENDBRANCH  10  11
ENDBRANCH   7  10
ENDBRANCH   5   7
ENDBRANCH   3   6
ENDBRANCH   1   4
BRANCH   2  13
ATOM     13  C   UNL     1      86.312  46.723  42.769  0.00  0.00    -0.014 C 
ATOM     14  C   UNL     1      87.417  46.306  42.526  0.00  0.00    -0.088 C 
BRANCH  14  15
ATOM     15  C   UNL     1      88.762  45.801  42.231  0.00  0.00    +0.010 C 
BRANCH  15  16
ATOM     16  C   UNL     1      89.646  46.927  41.684  0.00  0.00    -0.042 C 
BRANCH  16  17
ATOM     17  C   UNL     1      90.554  47.543  42.764  0.00  0.00    -0.052 C 
BRANCH  17  18
ATOM     18  C   UNL     1      90.428  49.080  42.869  0.00  0.00    -0.053 C 
BRANCH  18  19
ATOM     19  C   UNL     1      89.662  49.707  41.687  0.00  0.00    -0.053 C 
BRANCH  19  20
ATOM     20  C   UNL     1      89.116  51.115  41.984  0.00  0.00    -0.043 C 
BRANCH  20  21
ATOM     21  C   UNL     1      89.611  52.163  40.980  0.00  0.00    +0.045 C 
BRANCH  21  22
ATOM     22  C   UNL     1      88.670  52.261  39.821  0.00  0.00    +0.305 C 
ATOM     23  O   UNL     1      88.971  51.733  38.717  0.00  0.00    -0.251 OA
ATOM     24  O   UNL     1      87.482  52.974  39.951  0.00  0.00    -0.481 OA
ENDBRANCH  21  22
ENDBRANCH  20  21
ENDBRANCH  19  20
ENDBRANCH  18  19
ENDBRANCH  17  18
ENDBRANCH  16  17
ENDBRANCH  15  16
ENDBRANCH  14  15
ENDBRANCH   2  13
TORSDOF 15
ENDMDL
MODEL 2
REMARK VINA RESULT:    -6.660      1.420      2.345
REMARK INTER + INTRA:         -12.791
REMARK INTER:                 -12.141
REMARK INTRA:                  -0.650
REMARK UNBOUND:                -0.680
REMARK  Name = 
REMARK  15 active torsions:
REMARK  status: ('A' for Active; 'I' for Inactive)
REMARK    1  A    between atoms: O_1  and  C_2
REMARK    2  A    between atoms: C_2  and  C_3
REMARK    3  A    between atoms: C_3  and  C_4
REMARK    4  A    between atoms: C_3  and  O_22
REMARK    5  A    between atoms: C_5  and  C_6
REMARK    6  A    between atoms: C_7  and  C_8
REMARK    7  A    between atoms: C_9  and  C_10
REMARK    8  A    between atoms: C_11  and  C_12
REMARK    9  A    between atoms: C_12  and  C_13
REMARK   10  A    between atoms: C_13  and  C_14
REMARK   11  A    between atoms: C_14  and  C_15
REMARK   12  A    between atoms: C_15  and  C_16
REMARK   13  A    between atoms: C_16  and  C_17
REMARK   14  A    between atoms: C_17  and  C_18
REMARK   15  A    between atoms: C_18  and  C_19
REMARK                            x       y       z     vdW  Elec       q    Type
REMARK                         _______ _______ _______ _____ _____    ______ ____
ROOT
ATOM      1  C   UNL     1      82.517  47.265  43.066  0.00  0.00    -0.000 C 
ATOM      2  C   UNL     1      83.447  46.529  42.854  0.00  0.00    -0.001 C 
ENDROOT
BRANCH   1   4
ATOM      3  C   UNL     1      80.496  48.863  43.530  0.00  0.00    -0.001 C 
ATOM      4  C   UNL     1      81.426  48.127  43.316  0.00  0.00    -0.000 C 
BRANCH   3   6
ATOM      5  C   UNL     1      78.475  50.460  43.993  0.00  0.00    -0.055 C 
ATOM      6  C   UNL     1      79.407  49.724  43.780  0.00  0.00    -0.011 C 
BRANCH   5   7
ATOM      7  C   UNL     1      77.341  51.356  44.254  0.00  0.00    +0.139 C 
BRANCH   7   8
ATOM      8  O   UNL     1      77.059  52.085  43.090  0.00  0.00    -0.377 OA
ATOM      9  H   UNL     1      76.840  51.474  42.371  0.00  0.00    +0.000 HD
ENDBRANCH   7   8
BRANCH   7  10
ATOM     10  C   UNL     1      76.113  50.550  44.691  0.00  0.00    +0.081 C 
BRANCH  10  11
ATOM     11  O   UNL     1      76.423  49.751  45.801  0.00  0.00    -0.391 OA
ATOM     12  H   UNL     1      76.015  50.129  46.596  0.00  0.00    +0.000 HD
ENDBRANCH  10  11
ENDBRANCH   7  10
ENDBRANCH   5   7
ENDBRANCH   3   6
ENDBRANCH   1   4
BRANCH   2  13
ATOM     13  C   UNL     1      84.537  45.667  42.605  0.00  0.00    -0.014 C 
ATOM     14  C   UNL     1      85.468  44.932  42.393  0.00  0.00    -0.088 C 
BRANCH  14  15
ATOM     15  C   UNL     1      86.600  44.036  42.134  0.00  0.00    +0.010 C 
BRANCH  15  16
ATOM     16  C   UNL     1      87.895  44.639  42.690  0.00  0.00    -0.042 C 
BRANCH  16  17
ATOM     17  C   UNL     1      88.151  46.066  42.175  0.00  0.00    -0.052 C 
BRANCH  17  18
ATOM     18  C   UNL     1      89.569  46.591  42.496  0.00  0.00    -0.053 C 
BRANCH  18  19
ATOM     19  C   UNL     1      90.204  47.373  41.330  0.00  0.00    -0.053 C 
BRANCH  19  20
ATOM     20  C   UNL     1      90.734  48.760  41.735  0.00  0.00    -0.043 C 
BRANCH  20  21
ATOM     21  C   UNL     1      89.619  49.700  42.214  0.00  0.00    +0.045 C 
BRANCH  21  22
ATOM     22  C   UNL     1      88.940  50.342  41.045  0.00  0.00    +0.305 C 
ATOM     23  O   UNL     1      87.793  49.960  40.694  0.00  0.00    -0.251 OA
ATOM     24  O   UNL     1      89.597  51.331  40.321  0.00  0.00    -0.481 OA
ENDBRANCH  21  22
ENDBRANCH  20  21
ENDBRANCH  19  20
ENDBRANCH  18  19
ENDBRANCH  17  18
ENDBRANCH  16  17
ENDBRANCH  15  16
ENDBRANCH  14  15
ENDBRANCH   2  13
TORSDOF 15
ENDMDL
MODEL 3
REMARK VINA RESULT:    -6.443      5.054      6.126
REMARK INTER + INTRA:         -12.397
REMARK INTER:                 -10.882
REMARK INTRA:                  -1.515
REMARK UNBOUND:                -0.680
REMARK  Name = 
REMARK  15 active torsions:
REMARK  status: ('A' for Active; 'I' for Inactive)
REMARK    1  A    between atoms: O_1  and  C_2
REMARK    2  A    between atoms: C_2  and  C_3
REMARK    3  A    between atoms: C_3  and  C_4
REMARK    4  A    between atoms: C_3  and  O_22
REMARK    5  A    between atoms: C_5  and  C_6
REMARK    6  A    between atoms: C_7  and  C_8
REMARK    7  A    between atoms: C_9  and  C_10
REMARK    8  A    between atoms: C_11  and  C_12
REMARK    9  A    between atoms: C_12  and  C_13
REMARK   10  A    between atoms: C_13  and  C_14
REMARK   11  A    between atoms: C_14  and  C_15
REMARK   12  A    between atoms: C_15  and  C_16
REMARK   13  A    between atoms: C_16  and  C_17
REMARK   14  A    between atoms: C_17  and  C_18
REMARK   15  A    between atoms: C_18  and  C_19
REMARK                            x       y       z     vdW  Elec       q    Type
REMARK                         _______ _______ _______ _____ _____    ______ ____
ROOT
ATOM      1  C   UNL     1      86.530  51.102  43.450  0.00  0.00    -0.000 C 
ATOM      2  C   UNL     1      86.601  49.907  43.305  0.00  0.00    -0.001 C 
ENDROOT
BRANCH   1   4
ATOM      3  C   UNL     1      86.380  53.695  43.770  0.00  0.00    -0.001 C 
ATOM      4  C   UNL     1      86.449  52.501  43.622  0.00  0.00    -0.000 C 
BRANCH   3   6
ATOM      5  C   UNL     1      86.229  56.288  44.088  0.00  0.00    -0.055 C 
ATOM      6  C   UNL     1      86.299  55.093  43.941  0.00  0.00    -0.011 C 
BRANCH   5   7
ATOM      7  C   UNL     1      86.144  57.744  44.267  0.00  0.00    +0.139 C 
BRANCH   7   8
ATOM      8  O   UNL     1      85.587  58.314  43.113  0.00  0.00    -0.377 OA
ATOM      9  H   UNL     1      85.001  57.670  42.686  0.00  0.00    +0.000 HD
ENDBRANCH   7   8
BRANCH   7  10
ATOM     10  C   UNL     1      85.294  58.083  45.496  0.00  0.00    +0.081 C 
BRANCH  10  11
ATOM     11  O   UNL     1      84.288  58.999  45.155  0.00  0.00    -0.391 OA
ATOM     12  H   UNL     1      83.726  59.164  45.928  0.00  0.00    +0.000 HD
ENDBRANCH  10  11
ENDBRANCH   7  10
ENDBRANCH   5   7
ENDBRANCH   3   6
ENDBRANCH   1   4
BRANCH   2  13
ATOM     13  C   UNL     1      86.682  48.509  43.135  0.00  0.00    -0.014 C 
ATOM     14  C   UNL     1      86.751  47.314  42.990  0.00  0.00    -0.088 C 
BRANCH  14  15
ATOM     15  C   UNL     1      86.836  45.860  42.813  0.00  0.00    +0.010 C 
BRANCH  15  16
ATOM     16  C   UNL     1      88.018  45.502  41.906  0.00  0.00    -0.042 C 
BRANCH  16  17
ATOM     17  C   UNL     1      89.376  45.859  42.536  0.00  0.00    -0.052 C 
BRANCH  17  18
ATOM     18  C   UNL     1      90.079  47.052  41.848  0.00  0.00    -0.053 C 
BRANCH  18  19
ATOM     19  C   UNL     1      90.622  48.092  42.847  0.00  0.00    -0.053 C 
BRANCH  19  20
ATOM     20  C   UNL     1      90.313  49.547  42.450  0.00  0.00    -0.043 C 
BRANCH  20  21
ATOM     21  C   UNL     1      89.547  49.645  41.124  0.00  0.00    +0.045 C 
BRANCH  21  22
ATOM     22  C   UNL     1      89.374  51.077  40.727  0.00  0.00    +0.305 C 
ATOM     23  O   UNL     1      90.081  51.971  41.262  0.00  0.00    -0.251 OA
ATOM     24  O   UNL     1      88.398  51.425  39.797  0.00  0.00    -0.481 OA
ENDBRANCH  21  22
ENDBRANCH  20  21
ENDBRANCH  19  20
ENDBRANCH  18  19
ENDBRANCH  17  18
ENDBRANCH  16  17
ENDBRANCH  15  16
ENDBRANCH  14  15
ENDBRANCH   2  13
TORSDOF 15
ENDMDL
MODEL 4
REMARK VINA RESULT:    -6.353      2.487      2.891
REMARK INTER + INTRA:         -12.232
REMARK INTER:                 -10.977
REMARK INTRA:                  -1.255
REMARK UNBOUND:                -0.680
REMARK  Name = 
REMARK  15 active torsions:
REMARK  status: ('A' for Active; 'I' for Inactive)
REMARK    1  A    between atoms: O_1  and  C_2
REMARK    2  A    between atoms: C_2  and  C_3
REMARK    3  A    between atoms: C_3  and  C_4
REMARK    4  A    between atoms: C_3  and  O_22
REMARK    5  A    between atoms: C_5  and  C_6
REMARK    6  A    between atoms: C_7  and  C_8
REMARK    7  A    between atoms: C_9  and  C_10
REMARK    8  A    between atoms: C_11  and  C_12
REMARK    9  A    between atoms: C_12  and  C_13
REMARK   10  A    between atoms: C_13  and  C_14
REMARK   11  A    between atoms: C_14  and  C_15
REMARK   12  A    between atoms: C_15  and  C_16
REMARK   13  A    between atoms: C_16  and  C_17
REMARK   14  A    between atoms: C_17  and  C_18
REMARK   15  A    between atoms: C_18  and  C_19
REMARK                            x       y       z     vdW  Elec       q    Type
REMARK                         _______ _______ _______ _____ _____    ______ ____
ROOT
ATOM      1  C   UNL     1      84.198  47.347  43.254  0.00  0.00    -0.000 C 
ATOM      2  C   UNL     1      85.291  46.909  42.996  0.00  0.00    -0.001 C 
ENDROOT
BRANCH   1   4
ATOM      3  C   UNL     1      81.827  48.298  43.821  0.00  0.00    -0.001 C 
ATOM      4  C   UNL     1      82.919  47.861  43.559  0.00  0.00    -0.000 C 
BRANCH   3   6
ATOM      5  C   UNL     1      79.455  49.249  44.385  0.00  0.00    -0.055 C 
ATOM      6  C   UNL     1      80.548  48.811  44.126  0.00  0.00    -0.011 C 
BRANCH   5   7
ATOM      7  C   UNL     1      78.124  49.783  44.703  0.00  0.00    +0.139 C 
BRANCH   7   8
ATOM      8  O   UNL     1      78.043  50.014  46.084  0.00  0.00    -0.377 OA
ATOM      9  H   UNL     1      77.493  49.330  46.494  0.00  0.00    +0.000 HD
ENDBRANCH   7   8
BRANCH   7  10
ATOM     10  C   UNL     1      77.869  51.080  43.927  0.00  0.00    +0.081 C 
BRANCH  10  11
ATOM     11  O   UNL     1      76.915  51.866  44.591  0.00  0.00    -0.391 OA
ATOM     12  H   UNL     1      76.537  52.508  43.970  0.00  0.00    +0.000 HD
ENDBRANCH  10  11
ENDBRANCH   7  10
ENDBRANCH   5   7
ENDBRANCH   3   6
ENDBRANCH   1   4
BRANCH   2  13
ATOM     13  C   UNL     1      86.570  46.395  42.692  0.00  0.00    -0.014 C 
ATOM     14  C   UNL     1      87.662  45.956  42.432  0.00  0.00    -0.088 C 
BRANCH  14  15
ATOM     15  C   UNL     1      88.991  45.422  42.117  0.00  0.00    +0.010 C 
BRANCH  15  16
ATOM     16  C   UNL     1      90.074  46.446  42.472  0.00  0.00    -0.042 C 
BRANCH  16  17
ATOM     17  C   UNL     1      90.054  47.674  41.545  0.00  0.00    -0.052 C 
BRANCH  17  18
ATOM     18  C   UNL     1      89.891  49.012  42.302  0.00  0.00    -0.053 C 
BRANCH  18  19
ATOM     19  C   UNL     1      88.461  49.583  42.221  0.00  0.00    -0.053 C 
BRANCH  19  20
ATOM     20  C   UNL     1      88.105  50.520  43.389  0.00  0.00    -0.043 C 
BRANCH  20  21
ATOM     21  C   UNL     1      88.247  49.837  44.756  0.00  0.00    +0.045 C 
BRANCH  21  22
ATOM     22  C   UNL     1      87.031  50.083  45.591  0.00  0.00    +0.305 C 
ATOM     23  O   UNL     1      86.927  51.148  46.258  0.00  0.00    -0.251 OA
ATOM     24  O   UNL     1      86.034  49.116  45.666  0.00  0.00    -0.481 OA
ENDBRANCH  21  22
ENDBRANCH  20  21
ENDBRANCH  19  20
ENDBRANCH  18  19
ENDBRANCH  17  18
ENDBRANCH  16  17
ENDBRANCH  15  16
ENDBRANCH  14  15
ENDBRANCH   2  13
TORSDOF 15
ENDMDL
MODEL 5
REMARK VINA RESULT:    -6.277      4.695      9.513
REMARK INTER + INTRA:         -12.094
REMARK INTER:                 -11.068
REMARK INTRA:                  -1.026
REMARK UNBOUND:                -0.680
REMARK  Name = 
REMARK  15 active torsions:
REMARK  status: ('A' for Active; 'I' for Inactive)
REMARK    1  A    between atoms: O_1  and  C_2
REMARK    2  A    between atoms: C_2  and  C_3
REMARK    3  A    between atoms: C_3  and  C_4
REMARK    4  A    between atoms: C_3  and  O_22
REMARK    5  A    between atoms: C_5  and  C_6
REMARK    6  A    between atoms: C_7  and  C_8
REMARK    7  A    between atoms: C_9  and  C_10
REMARK    8  A    between atoms: C_11  and  C_12
REMARK    9  A    between atoms: C_12  and  C_13
REMARK   10  A    between atoms: C_13  and  C_14
REMARK   11  A    between atoms: C_14  and  C_15
REMARK   12  A    between atoms: C_15  and  C_16
REMARK   13  A    between atoms: C_16  and  C_17
REMARK   14  A    between atoms: C_17  and  C_18
REMARK   15  A    between atoms: C_18  and  C_19
REMARK                            x       y       z     vdW  Elec       q    Type
REMARK                         _______ _______ _______ _____ _____    ______ ____
ROOT
ATOM      1  C   UNL     1      84.121  51.243  43.850  0.00  0.00    -0.000 C 
ATOM      2  C   UNL     1      83.790  50.091  43.724  0.00  0.00    -0.001 C 
ENDROOT
BRANCH   1   4
ATOM      3  C   UNL     1      84.843  53.743  44.127  0.00  0.00    -0.001 C 
ATOM      4  C   UNL     1      84.509  52.592  43.999  0.00  0.00    -0.000 C 
BRANCH   3   6
ATOM      5  C   UNL     1      85.563  56.244  44.405  0.00  0.00    -0.055 C 
ATOM      6  C   UNL     1      85.231  55.091  44.277  0.00  0.00    -0.011 C 
BRANCH   5   7
ATOM      7  C   UNL     1      85.967  57.647  44.560  0.00  0.00    +0.139 C 
BRANCH   7   8
ATOM      8  O   UNL     1      85.739  58.324  43.353  0.00  0.00    -0.377 OA
ATOM      9  H   UNL     1      85.659  57.680  42.632  0.00  0.00    +0.000 HD
ENDBRANCH   7   8
BRANCH   7  10
ATOM     10  C   UNL     1      85.184  58.307  45.699  0.00  0.00    +0.081 C 
BRANCH  10  11
ATOM     11  O   UNL     1      84.165  59.122  45.183  0.00  0.00    -0.391 OA
ATOM     12  H   UNL     1      83.855  59.728  45.874  0.00  0.00    +0.000 HD
ENDBRANCH  10  11
ENDBRANCH   7  10
ENDBRANCH   5   7
ENDBRANCH   3   6
ENDBRANCH   1   4
BRANCH   2  13
ATOM     13  C   UNL     1      83.402  48.742  43.576  0.00  0.00    -0.014 C 
ATOM     14  C   UNL     1      83.069  47.590  43.450  0.00  0.00    -0.088 C 
BRANCH  14  15
ATOM     15  C   UNL     1      82.665  46.188  43.296  0.00  0.00    +0.010 C 
BRANCH  15  16
ATOM     16  C   UNL     1      81.316  45.945  43.981  0.00  0.00    -0.042 C 
BRANCH  16  17
ATOM     17  C   UNL     1      80.159  46.688  43.290  0.00  0.00    -0.052 C 
BRANCH  17  18
ATOM     18  C   UNL     1      79.191  47.375  44.281  0.00  0.00    -0.053 C 
BRANCH  18  19
ATOM     19  C   UNL     1      79.917  48.130  45.412  0.00  0.00    -0.053 C 
BRANCH  19  20
ATOM     20  C   UNL     1      79.400  49.564  45.625  0.00  0.00    -0.043 C 
BRANCH  20  21
ATOM     21  C   UNL     1      78.464  50.026  44.500  0.00  0.00    +0.045 C 
BRANCH  21  22
ATOM     22  C   UNL     1      77.141  50.443  45.061  0.00  0.00    +0.305 C 
ATOM     23  O   UNL     1      76.486  49.651  45.788  0.00  0.00    -0.251 OA
ATOM     24  O   UNL     1      76.615  51.691  44.741  0.00  0.00    -0.481 OA
ENDBRANCH  21  22
ENDBRANCH  20  21
ENDBRANCH  19  20
ENDBRANCH  18  19
ENDBRANCH  17  18
ENDBRANCH  16  17
ENDBRANCH  15  16
ENDBRANCH  14  15
ENDBRANCH   2  13
TORSDOF 15
ENDMDL
MODEL 6
REMARK VINA RESULT:    -6.242      5.115      7.219
REMARK INTER + INTRA:         -12.031
REMARK INTER:                 -11.418
REMARK INTRA:                  -0.613
REMARK UNBOUND:                -0.680
REMARK  Name = 
REMARK  15 active torsions:
REMARK  status: ('A' for Active; 'I' for Inactive)
REMARK    1  A    between atoms: O_1  and  C_2
REMARK    2  A    between atoms: C_2  and  C_3
REMARK    3  A    between atoms: C_3  and  C_4
REMARK    4  A    between atoms: C_3  and  O_22
REMARK    5  A    between atoms: C_5  and  C_6
REMARK    6  A    between atoms: C_7  and  C_8
REMARK    7  A    between atoms: C_9  and  C_10
REMARK    8  A    between atoms: C_11  and  C_12
REMARK    9  A    between atoms: C_12  and  C_13
REMARK   10  A    between atoms: C_13  and  C_14
REMARK   11  A    between atoms: C_14  and  C_15
REMARK   12  A    between atoms: C_15  and  C_16
REMARK   13  A    between atoms: C_16  and  C_17
REMARK   14  A    between atoms: C_17  and  C_18
REMARK   15  A    between atoms: C_18  and  C_19
REMARK                            x       y       z     vdW  Elec       q    Type
REMARK                         _______ _______ _______ _____ _____    ______ ____
ROOT
ATOM      1  C   UNL     1      87.623  51.715  43.597  0.00  0.00    -0.000 C 
ATOM      2  C   UNL     1      88.278  50.812  43.141  0.00  0.00    -0.001 C 
ENDROOT
BRANCH   1   4
ATOM      3  C   UNL     1      86.205  53.678  44.590  0.00  0.00    -0.001 C 
ATOM      4  C   UNL     1      86.857  52.774  44.133  0.00  0.00    -0.000 C 
BRANCH   3   6
ATOM      5  C   UNL     1      84.786  55.640  45.583  0.00  0.00    -0.055 C 
ATOM      6  C   UNL     1      85.440  54.736  45.125  0.00  0.00    -0.011 C 
BRANCH   5   7
ATOM      7  C   UNL     1      83.990  56.741  46.140  0.00  0.00    +0.139 C 
BRANCH   7   8
ATOM      8  O   UNL     1      83.762  56.497  47.502  0.00  0.00    -0.377 OA
ATOM      9  H   UNL     1      84.609  56.490  47.974  0.00  0.00    +0.000 HD
ENDBRANCH   7   8
BRANCH   7  10
ATOM     10  C   UNL     1      84.717  58.077  45.950  0.00  0.00    +0.081 C 
BRANCH  10  11
ATOM     11  O   UNL     1      84.620  58.500  44.616  0.00  0.00    -0.391 OA
ATOM     12  H   UNL     1      85.487  58.423  44.189  0.00  0.00    +0.000 HD
ENDBRANCH  10  11
ENDBRANCH   7  10
ENDBRANCH   5   7
ENDBRANCH   3   6
ENDBRANCH   1   4
BRANCH   2  13
ATOM     13  C   UNL     1      89.044  49.753  42.608  0.00  0.00    -0.014 C 
ATOM     14  C   UNL     1      89.697  48.849  42.151  0.00  0.00    -0.088 C 
BRANCH  14  15
ATOM     15  C   UNL     1      90.492  47.748  41.596  0.00  0.00    +0.010 C 
BRANCH  15  16
ATOM     16  C   UNL     1      90.260  46.464  42.400  0.00  0.00    -0.042 C 
BRANCH  16  17
ATOM     17  C   UNL     1      88.836  45.906  42.224  0.00  0.00    -0.052 C 
BRANCH  17  18
ATOM     18  C   UNL     1      88.651  44.495  42.825  0.00  0.00    -0.053 C 
BRANCH  18  19
ATOM     19  C   UNL     1      87.227  43.936  42.629  0.00  0.00    -0.053 C 
BRANCH  19  20
ATOM     20  C   UNL     1      86.338  44.066  43.879  0.00  0.00    -0.043 C 
BRANCH  20  21
ATOM     21  C   UNL     1      84.892  44.448  43.536  0.00  0.00    +0.045 C 
BRANCH  21  22
ATOM     22  C   UNL     1      84.543  45.769  44.145  0.00  0.00    +0.305 C 
ATOM     23  O   UNL     1      83.335  46.085  44.317  0.00  0.00    -0.251 OA
ATOM     24  O   UNL     1      85.552  46.666  44.480  0.00  0.00    -0.481 OA
ENDBRANCH  21  22
ENDBRANCH  20  21
ENDBRANCH  19  20
ENDBRANCH  18  19
ENDBRANCH  17  18
ENDBRANCH  16  17
ENDBRANCH  15  16
ENDBRANCH  14  15
ENDBRANCH   2  13
TORSDOF 15
ENDMDL
MODEL 7
REMARK VINA RESULT:    -6.194      4.453      4.779
REMARK INTER + INTRA:         -11.943
REMARK INTER:                 -10.506
REMARK INTRA:                  -1.437
REMARK UNBOUND:                -0.680
REMARK  Name = 
REMARK  15 active torsions:
REMARK  status: ('A' for Active; 'I' for Inactive)
REMARK    1  A    between atoms: O_1  and  C_2
REMARK    2  A    between atoms: C_2  and  C_3
REMARK    3  A    between atoms: C_3  and  C_4
REMARK    4  A    between atoms: C_3  and  O_22
REMARK    5  A    between atoms: C_5  and  C_6
REMARK    6  A    between atoms: C_7  and  C_8
REMARK    7  A    between atoms: C_9  and  C_10
REMARK    8  A    between atoms: C_11  and  C_12
REMARK    9  A    between atoms: C_12  and  C_13
REMARK   10  A    between atoms: C_13  and  C_14
REMARK   11  A    between atoms: C_14  and  C_15
REMARK   12  A    between atoms: C_15  and  C_16
REMARK   13  A    between atoms: C_16  and  C_17
REMARK   14  A    between atoms: C_17  and  C_18
REMARK   15  A    between atoms: C_18  and  C_19
REMARK                            x       y       z     vdW  Elec       q    Type
REMARK                         _______ _______ _______ _____ _____    ______ ____
ROOT
ATOM      1  C   UNL     1      85.945  49.958  44.344  0.00  0.00    -0.000 C 
ATOM      2  C   UNL     1      86.369  48.968  43.803  0.00  0.00    -0.001 C 
ENDROOT
BRANCH   1   4
ATOM      3  C   UNL     1      85.024  52.110  45.514  0.00  0.00    -0.001 C 
ATOM      4  C   UNL     1      85.448  51.119  44.976  0.00  0.00    -0.000 C 
BRANCH   3   6
ATOM      5  C   UNL     1      84.102  54.261  46.687  0.00  0.00    -0.055 C 
ATOM      6  C   UNL     1      84.526  53.270  46.146  0.00  0.00    -0.011 C 
BRANCH   5   7
ATOM      7  C   UNL     1      83.584  55.468  47.344  0.00  0.00    +0.139 C 
BRANCH   7   8
ATOM      8  O   UNL     1      83.929  55.430  48.703  0.00  0.00    -0.377 OA
ATOM      9  H   UNL     1      83.180  55.094  49.217  0.00  0.00    +0.000 HD
ENDBRANCH   7   8
BRANCH   7  10
ATOM     10  C   UNL     1      84.156  56.725  46.681  0.00  0.00    +0.081 C 
BRANCH  10  11
ATOM     11  O   UNL     1      83.791  56.772  45.327  0.00  0.00    -0.391 OA
ATOM     12  H   UNL     1      83.766  57.695  45.032  0.00  0.00    +0.000 HD
ENDBRANCH  10  11
ENDBRANCH   7  10
ENDBRANCH   5   7
ENDBRANCH   3   6
ENDBRANCH   1   4
BRANCH   2  13
ATOM     13  C   UNL     1      86.865  47.809  43.170  0.00  0.00    -0.014 C 
ATOM     14  C   UNL     1      87.290  46.818  42.630  0.00  0.00    -0.088 C 
BRANCH  14  15
ATOM     15  C   UNL     1      87.806  45.613  41.972  0.00  0.00    +0.010 C 
BRANCH  15  16
ATOM     16  C   UNL     1      89.244  45.334  42.423  0.00  0.00    -0.042 C 
BRANCH  16  17
ATOM     17  C   UNL     1      90.218  46.455  42.018  0.00  0.00    -0.052 C 
BRANCH  17  18
ATOM     18  C   UNL     1      90.865  47.172  43.225  0.00  0.00    -0.053 C 
BRANCH  18  19
ATOM     19  C   UNL     1      91.226  48.642  42.933  0.00  0.00    -0.053 C 
BRANCH  19  20
ATOM     20  C   UNL     1      90.396  49.265  41.795  0.00  0.00    -0.043 C 
BRANCH  20  21
ATOM     21  C   UNL     1      89.418  50.335  42.298  0.00  0.00    +0.045 C 
BRANCH  21  22
ATOM     22  C   UNL     1      88.727  50.992  41.145  0.00  0.00    +0.305 C 
ATOM     23  O   UNL     1      89.192  52.053  40.651  0.00  0.00    -0.251 OA
ATOM     24  O   UNL     1      87.544  50.453  40.649  0.00  0.00    -0.481 OA
ENDBRANCH  21  22
ENDBRANCH  20  21
ENDBRANCH  19  20
ENDBRANCH  18  19
ENDBRANCH  17  18
ENDBRANCH  16  17
ENDBRANCH  15  16
ENDBRANCH  14  15
ENDBRANCH   2  13
TORSDOF 15
ENDMDL
MODEL 8
REMARK VINA RESULT:    -6.031      5.410      8.101
REMARK INTER + INTRA:         -11.647
REMARK INTER:                 -10.409
REMARK INTRA:                  -1.238
REMARK UNBOUND:                -0.680
REMARK  Name = 
REMARK  15 active torsions:
REMARK  status: ('A' for Active; 'I' for Inactive)
REMARK    1  A    between atoms: O_1  and  C_2
REMARK    2  A    between atoms: C_2  and  C_3
REMARK    3  A    between atoms: C_3  and  C_4
REMARK    4  A    between atoms: C_3  and  O_22
REMARK    5  A    between atoms: C_5  and  C_6
REMARK    6  A    between atoms: C_7  and  C_8
REMARK    7  A    between atoms: C_9  and  C_10
REMARK    8  A    between atoms: C_11  and  C_12
REMARK    9  A    between atoms: C_12  and  C_13
REMARK   10  A    between atoms: C_13  and  C_14
REMARK   11  A    between atoms: C_14  and  C_15
REMARK   12  A    between atoms: C_15  and  C_16
REMARK   13  A    between atoms: C_16  and  C_17
REMARK   14  A    between atoms: C_17  and  C_18
REMARK   15  A    between atoms: C_18  and  C_19
REMARK                            x       y       z     vdW  Elec       q    Type
REMARK                         _______ _______ _______ _____ _____    ______ ____
ROOT
ATOM      1  C   UNL     1      85.913  50.812  45.249  0.00  0.00    -0.000 C 
ATOM      2  C   UNL     1      86.011  51.953  45.624  0.00  0.00    -0.001 C 
ENDROOT
BRANCH   1   4
ATOM      3  C   UNL     1      85.700  48.333  44.437  0.00  0.00    -0.001 C 
ATOM      4  C   UNL     1      85.799  49.475  44.811  0.00  0.00    -0.000 C 
BRANCH   3   6
ATOM      5  C   UNL     1      85.488  45.854  43.626  0.00  0.00    -0.055 C 
ATOM      6  C   UNL     1      85.586  46.996  44.000  0.00  0.00    -0.011 C 
BRANCH   5   7
ATOM      7  C   UNL     1      85.370  44.462  43.171  0.00  0.00    +0.139 C 
BRANCH   7   8
ATOM      8  O   UNL     1      84.779  44.447  41.899  0.00  0.00    -0.377 OA
ATOM      9  H   UNL     1      84.414  43.566  41.723  0.00  0.00    +0.000 HD
ENDBRANCH   7   8
BRANCH   7  10
ATOM     10  C   UNL     1      86.748  43.794  43.129  0.00  0.00    +0.081 C 
BRANCH  10  11
ATOM     11  O   UNL     1      87.376  43.892  44.380  0.00  0.00    -0.391 OA
ATOM     12  H   UNL     1      88.322  44.066  44.253  0.00  0.00    +0.000 HD
ENDBRANCH  10  11
ENDBRANCH   7  10
ENDBRANCH   5   7
ENDBRANCH   3   6
ENDBRANCH   1   4
BRANCH   2  13
ATOM     13  C   UNL     1      86.126  53.290  46.063  0.00  0.00    -0.014 C 
ATOM     14  C   UNL     1      86.224  54.430  46.439  0.00  0.00    -0.088 C 
BRANCH  14  15
ATOM     15  C   UNL     1      86.344  55.820  46.895  0.00  0.00    +0.010 C 
BRANCH  15  16
ATOM     16  C   UNL     1      85.575  56.757  45.956  0.00  0.00    -0.042 C 
BRANCH  16  17
ATOM     17  C   UNL     1      85.974  56.574  44.481  0.00  0.00    -0.052 C 
BRANCH  17  18
ATOM     18  C   UNL     1      84.860  56.979  43.489  0.00  0.00    -0.053 C 
BRANCH  18  19
ATOM     19  C   UNL     1      84.554  55.888  42.445  0.00  0.00    -0.053 C 
BRANCH  19  20
ATOM     20  C   UNL     1      84.829  54.459  42.949  0.00  0.00    -0.043 C 
BRANCH  20  21
ATOM     21  C   UNL     1      85.628  53.623  41.941  0.00  0.00    +0.045 C 
BRANCH  21  22
ATOM     22  C   UNL     1      84.929  53.591  40.619  0.00  0.00    +0.305 C 
ATOM     23  O   UNL     1      83.749  53.156  40.539  0.00  0.00    -0.251 OA
ATOM     24  O   UNL     1      85.599  54.001  39.470  0.00  0.00    -0.481 OA
ENDBRANCH  21  22
ENDBRANCH  20  21
ENDBRANCH  19  20
ENDBRANCH  18  19
ENDBRANCH  17  18
ENDBRANCH  16  17
ENDBRANCH  15  16
ENDBRANCH  14  15
ENDBRANCH   2  13
TORSDOF 15
ENDMDL
MODEL 9
REMARK VINA RESULT:    -5.939      4.405      8.478
REMARK INTER + INTRA:         -11.480
REMARK INTER:                 -10.800
REMARK INTRA:                  -0.680
REMARK UNBOUND:                -0.680
REMARK  Name = 
REMARK  15 active torsions:
REMARK  status: ('A' for Active; 'I' for Inactive)
REMARK    1  A    between atoms: O_1  and  C_2
REMARK    2  A    between atoms: C_2  and  C_3
REMARK    3  A    between atoms: C_3  and  C_4
REMARK    4  A    between atoms: C_3  and  O_22
REMARK    5  A    between atoms: C_5  and  C_6
REMARK    6  A    between atoms: C_7  and  C_8
REMARK    7  A    between atoms: C_9  and  C_10
REMARK    8  A    between atoms: C_11  and  C_12
REMARK    9  A    between atoms: C_12  and  C_13
REMARK   10  A    between atoms: C_13  and  C_14
REMARK   11  A    between atoms: C_14  and  C_15
REMARK   12  A    between atoms: C_15  and  C_16
REMARK   13  A    between atoms: C_16  and  C_17
REMARK   14  A    between atoms: C_17  and  C_18
REMARK   15  A    between atoms: C_18  and  C_19
REMARK                            x       y       z     vdW  Elec       q    Type
REMARK                         _______ _______ _______ _____ _____    ______ ____
ROOT
ATOM      1  C   UNL     1      85.857  51.101  44.195  0.00  0.00    -0.000 C 
ATOM      2  C   UNL     1      85.821  49.898  44.147  0.00  0.00    -0.001 C 
ENDROOT
BRANCH   1   4
ATOM      3  C   UNL     1      85.935  53.715  44.306  0.00  0.00    -0.001 C 
ATOM      4  C   UNL     1      85.899  52.511  44.254  0.00  0.00    -0.000 C 
BRANCH   3   6
ATOM      5  C   UNL     1      86.014  56.329  44.415  0.00  0.00    -0.055 C 
ATOM      6  C   UNL     1      85.977  55.124  44.364  0.00  0.00    -0.011 C 
BRANCH   5   7
ATOM      7  C   UNL     1      86.057  57.795  44.476  0.00  0.00    +0.139 C 
BRANCH   7   8
ATOM      8  O   UNL     1      85.608  58.316  43.254  0.00  0.00    -0.377 OA
ATOM      9  H   UNL     1      86.232  58.078  42.552  0.00  0.00    +0.000 HD
ENDBRANCH   7   8
BRANCH   7  10
ATOM     10  C   UNL     1      85.188  58.309  45.629  0.00  0.00    +0.081 C 
BRANCH  10  11
ATOM     11  O   UNL     1      84.177  59.149  45.140  0.00  0.00    -0.391 OA
ATOM     12  H   UNL     1      84.572  59.848  44.596  0.00  0.00    +0.000 HD
ENDBRANCH  10  11
ENDBRANCH   7  10
ENDBRANCH   5   7
ENDBRANCH   3   6
ENDBRANCH   1   4
BRANCH   2  13
ATOM     13  C   UNL     1      85.778  48.488  44.089  0.00  0.00    -0.014 C 
ATOM     14  C   UNL     1      85.743  47.284  44.041  0.00  0.00    -0.088 C 
BRANCH  14  15
ATOM     15  C   UNL     1      85.698  45.819  43.982  0.00  0.00    +0.010 C 
BRANCH  15  16
ATOM     16  C   UNL     1      84.515  45.357  43.124  0.00  0.00    -0.042 C 
BRANCH  16  17
ATOM     17  C   UNL     1      83.156  45.729  43.742  0.00  0.00    -0.052 C 
BRANCH  17  18
ATOM     18  C   UNL     1      82.449  46.895  43.014  0.00  0.00    -0.053 C 
BRANCH  18  19
ATOM     19  C   UNL     1      81.823  47.921  43.979  0.00  0.00    -0.053 C 
BRANCH  19  20
ATOM     20  C   UNL     1      81.317  49.195  43.280  0.00  0.00    -0.043 C 
BRANCH  20  21
ATOM     21  C   UNL     1      79.797  49.370  43.402  0.00  0.00    +0.045 C 
BRANCH  21  22
ATOM     22  C   UNL     1      79.279  48.613  44.584  0.00  0.00    +0.305 C 
ATOM     23  O   UNL     1      78.654  47.532  44.417  0.00  0.00    -0.251 OA
ATOM     24  O   UNL     1      79.449  49.128  45.865  0.00  0.00    -0.481 OA
ENDBRANCH  21  22
ENDBRANCH  20  21
ENDBRANCH  19  20
ENDBRANCH  18  19
ENDBRANCH  17  18
ENDBRANCH  16  17
ENDBRANCH  15  16
ENDBRANCH  14  15
ENDBRANCH   2  13
TORSDOF 15
ENDMDL
