MODEL 1
REMARK VINA RESULT:    -6.301      0.000      0.000
REMARK INTER + INTRA:         -12.574
REMARK INTER:                 -11.943
REMARK INTRA:                  -0.631
REMARK UNBOUND:                -1.300
REMARK  Name = 
REMARK  14 active torsions:
REMARK  status: ('A' for Active; 'I' for Inactive)
REMARK    1  A    between atoms: O_1  and  C_2
REMARK    2  A    between atoms: C_2  and  C_3
REMARK    3  A    between atoms: C_3  and  C_4
REMARK    4  A    between atoms: C_5  and  C_6
REMARK    5  A    between atoms: C_7  and  C_8
REMARK    6  A    between atoms: C_9  and  C_10
REMARK    7  A    between atoms: C_11  and  C_12
REMARK    8  A    between atoms: C_12  and  C_13
REMARK    9  A    between atoms: C_13  and  C_14
REMARK   10  A    between atoms: C_14  and  C_15
REMARK   11  A    between atoms: C_15  and  C_16
REMARK   12  A    between atoms: C_16  and  C_17
REMARK   13  A    between atoms: C_17  and  C_18
REMARK   14  A    between atoms: C_18  and  C_19
REMARK                            x       y       z     vdW  Elec       q    Type
REMARK                         _______ _______ _______ _____ _____    ______ ____
ROOT
ATOM      1  C   UNL     1      85.383  45.359  42.764  0.00  0.00    -0.014 C 
ATOM      2  C   UNL     1      86.381  44.753  42.461  0.00  0.00    -0.088 C 
ENDROOT
BRANCH   1   4
ATOM      3  C   UNL     1      83.218  46.674  43.417  0.00  0.00    -0.000 C 
ATOM      4  C   UNL     1      84.215  46.068  43.116  0.00  0.00    -0.001 C 
BRANCH   3   6
ATOM      5  C   UNL     1      81.051  47.990  44.068  0.00  0.00    -0.001 C 
ATOM      6  C   UNL     1      82.049  47.383  43.769  0.00  0.00    -0.000 C 
BRANCH   5   8
ATOM      7  C   UNL     1      78.885  49.305  44.719  0.00  0.00    -0.086 C 
ATOM      8  C   UNL     1      79.883  48.699  44.420  0.00  0.00    -0.014 C 
BRANCH   7   9
ATOM      9  C   UNL     1      77.671  50.045  45.084  0.00  0.00    +0.033 C 
BRANCH   9  10
ATOM     10  C   UNL     1      77.401  51.180  44.095  0.00  0.00    +0.055 C 
BRANCH  10  11
ATOM     11  O   UNL     1      76.554  52.145  44.660  0.00  0.00    -0.394 OA
ATOM     12  H   UNL     1      76.667  52.148  45.624  0.00  0.00    +0.000 HD
ENDBRANCH  10  11
ENDBRANCH   9  10
ENDBRANCH   7   9
ENDBRANCH   5   8
ENDBRANCH   3   6
ENDBRANCH   1   4
BRANCH   2  13
ATOM     13  C   UNL     1      87.595  44.016  42.094  0.00  0.00    +0.010 C 
BRANCH  13  14
ATOM     14  C   UNL     1      88.813  44.598  42.815  0.00  0.00    -0.042 C 
BRANCH  14  15
ATOM     15  C   UNL     1      89.031  46.067  42.426  0.00  0.00    -0.052 C 
BRANCH  15  16
ATOM     16  C   UNL     1      90.515  46.478  42.435  0.00  0.00    -0.053 C 
BRANCH  16  17
ATOM     17  C   UNL     1      90.799  47.884  42.993  0.00  0.00    -0.053 C 
BRANCH  17  18
ATOM     18  C   UNL     1      90.682  48.987  41.926  0.00  0.00    -0.043 C 
BRANCH  18  19
ATOM     19  C   UNL     1      89.489  49.917  42.185  0.00  0.00    +0.045 C 
BRANCH  19  20
ATOM     20  C   UNL     1      88.498  49.879  41.062  0.00  0.00    +0.305 C 
ATOM     21  O   UNL     1      87.747  48.878  40.915  0.00  0.00    -0.251 OA
ATOM     22  O   UNL     1      88.387  50.965  40.199  0.00  0.00    -0.481 OA
ENDBRANCH  19  20
ENDBRANCH  18  19
ENDBRANCH  17  18
ENDBRANCH  16  17
ENDBRANCH  15  16
ENDBRANCH  14  15
ENDBRANCH  13  14
ENDBRANCH   2  13
TORSDOF 14
ENDMDL
MODEL 2
REMARK VINA RESULT:    -6.138      1.440      1.951
REMARK INTER + INTRA:         -12.282
REMARK INTER:                 -11.549
REMARK INTRA:                  -0.733
REMARK UNBOUND:                -1.300
REMARK  Name = 
REMARK  14 active torsions:
REMARK  status: ('A' for Active; 'I' for Inactive)
REMARK    1  A    between atoms: O_1  and  C_2
REMARK    2  A    between atoms: C_2  and  C_3
REMARK    3  A    between atoms: C_3  and  C_4
REMARK    4  A    between atoms: C_5  and  C_6
REMARK    5  A    between atoms: C_7  and  C_8
REMARK    6  A    between atoms: C_9  and  C_10
REMARK    7  A    between atoms: C_11  and  C_12
REMARK    8  A    between atoms: C_12  and  C_13
REMARK    9  A    between atoms: C_13  and  C_14
REMARK   10  A    between atoms: C_14  and  C_15
REMARK   11  A    between atoms: C_15  and  C_16
REMARK   12  A    between atoms: C_16  and  C_17
REMARK   13  A    between atoms: C_17  and  C_18
REMARK   14  A    between atoms: C_18  and  C_19
REMARK                            x       y       z     vdW  Elec       q    Type
REMARK                         _______ _______ _______ _____ _____    ______ ____
ROOT
ATOM      1  C   UNL     1      85.528  46.888  42.880  0.00  0.00    -0.014 C 
ATOM      2  C   UNL     1      86.626  46.481  42.593  0.00  0.00    -0.088 C 
ENDROOT
BRANCH   1   4
ATOM      3  C   UNL     1      83.146  47.773  43.502  0.00  0.00    -0.000 C 
ATOM      4  C   UNL     1      84.243  47.366  43.215  0.00  0.00    -0.001 C 
BRANCH   3   6
ATOM      5  C   UNL     1      80.763  48.659  44.124  0.00  0.00    -0.001 C 
ATOM      6  C   UNL     1      81.860  48.251  43.838  0.00  0.00    -0.000 C 
BRANCH   5   8
ATOM      7  C   UNL     1      78.381  49.546  44.745  0.00  0.00    -0.086 C 
ATOM      8  C   UNL     1      79.478  49.137  44.460  0.00  0.00    -0.014 C 
BRANCH   7   9
ATOM      9  C   UNL     1      77.045  50.044  45.094  0.00  0.00    +0.033 C 
BRANCH   9  10
ATOM     10  C   UNL     1      76.735  51.347  44.354  0.00  0.00    +0.055 C 
BRANCH  10  11
ATOM     11  O   UNL     1      75.446  51.314  43.801  0.00  0.00    -0.394 OA
ATOM     12  H   UNL     1      74.795  51.188  44.509  0.00  0.00    +0.000 HD
ENDBRANCH  10  11
ENDBRANCH   9  10
ENDBRANCH   7   9
ENDBRANCH   5   8
ENDBRANCH   3   6
ENDBRANCH   1   4
BRANCH   2  13
ATOM     13  C   UNL     1      87.962  45.986  42.245  0.00  0.00    +0.010 C 
BRANCH  13  14
ATOM     14  C   UNL     1      88.704  47.011  41.383  0.00  0.00    -0.042 C 
BRANCH  14  15
ATOM     15  C   UNL     1      90.120  47.258  41.922  0.00  0.00    -0.052 C 
BRANCH  15  16
ATOM     16  C   UNL     1      90.410  48.747  42.193  0.00  0.00    -0.053 C 
BRANCH  16  17
ATOM     17  C   UNL     1      89.308  49.495  42.964  0.00  0.00    -0.053 C 
BRANCH  17  18
ATOM     18  C   UNL     1      88.908  50.825  42.300  0.00  0.00    -0.043 C 
BRANCH  18  19
ATOM     19  C   UNL     1      89.920  51.266  41.235  0.00  0.00    +0.045 C 
BRANCH  19  20
ATOM     20  C   UNL     1      89.303  52.181  40.223  0.00  0.00    +0.305 C 
ATOM     21  O   UNL     1      89.162  53.407  40.482  0.00  0.00    -0.251 OA
ATOM     22  O   UNL     1      88.912  51.682  38.984  0.00  0.00    -0.481 OA
ENDBRANCH  19  20
ENDBRANCH  18  19
ENDBRANCH  17  18
ENDBRANCH  16  17
ENDBRANCH  15  16
ENDBRANCH  14  15
ENDBRANCH  13  14
ENDBRANCH   2  13
TORSDOF 14
ENDMDL
MODEL 3
REMARK VINA RESULT:    -6.030      4.935      5.696
REMARK INTER + INTRA:         -12.089
REMARK INTER:                 -10.580
REMARK INTRA:                  -1.509
REMARK UNBOUND:                -1.300
REMARK  Name = 
REMARK  14 active torsions:
REMARK  status: ('A' for Active; 'I' for Inactive)
REMARK    1  A    between atoms: O_1  and  C_2
REMARK    2  A    between atoms: C_2  and  C_3
REMARK    3  A    between atoms: C_3  and  C_4
REMARK    4  A    between atoms: C_5  and  C_6
REMARK    5  A    between atoms: C_7  and  C_8
REMARK    6  A    between atoms: C_9  and  C_10
REMARK    7  A    between atoms: C_11  and  C_12
REMARK    8  A    between atoms: C_12  and  C_13
REMARK    9  A    between atoms: C_13  and  C_14
REMARK   10  A    between atoms: C_14  and  C_15
REMARK   11  A    between atoms: C_15  and  C_16
REMARK   12  A    between atoms: C_16  and  C_17
REMARK   13  A    between atoms: C_17  and  C_18
REMARK   14  A    between atoms: C_18  and  C_19
REMARK                            x       y       z     vdW  Elec       q    Type
REMARK                         _______ _______ _______ _____ _____    ______ ____
ROOT
ATOM      1  C   UNL     1      87.170  48.472  42.949  0.00  0.00    -0.014 C 
ATOM      2  C   UNL     1      87.392  47.353  42.559  0.00  0.00    -0.088 C 
ENDROOT
BRANCH   1   4
ATOM      3  C   UNL     1      86.691  50.900  43.798  0.00  0.00    -0.000 C 
ATOM      4  C   UNL     1      86.911  49.782  43.407  0.00  0.00    -0.001 C 
BRANCH   3   6
ATOM      5  C   UNL     1      86.211  53.329  44.648  0.00  0.00    -0.001 C 
ATOM      6  C   UNL     1      86.432  52.211  44.256  0.00  0.00    -0.000 C 
BRANCH   5   8
ATOM      7  C   UNL     1      85.732  55.757  45.496  0.00  0.00    -0.086 C 
ATOM      8  C   UNL     1      85.953  54.638  45.106  0.00  0.00    -0.014 C 
BRANCH   7   9
ATOM      9  C   UNL     1      85.464  57.120  45.972  0.00  0.00    +0.033 C 
BRANCH   9  10
ATOM     10  C   UNL     1      85.114  58.049  44.807  0.00  0.00    +0.055 C 
BRANCH  10  11
ATOM     11  O   UNL     1      84.311  59.114  45.242  0.00  0.00    -0.394 OA
ATOM     12  H   UNL     1      84.410  59.221  46.201  0.00  0.00    +0.000 HD
ENDBRANCH  10  11
ENDBRANCH   9  10
ENDBRANCH   7   9
ENDBRANCH   5   8
ENDBRANCH   3   6
ENDBRANCH   1   4
BRANCH   2  13
ATOM     13  C   UNL     1      87.662  45.992  42.083  0.00  0.00    +0.010 C 
BRANCH  13  14
ATOM     14  C   UNL     1      89.081  45.563  42.468  0.00  0.00    -0.042 C 
BRANCH  14  15
ATOM     15  C   UNL     1      90.121  46.544  41.908  0.00  0.00    -0.052 C 
BRANCH  15  16
ATOM     16  C   UNL     1      90.887  47.302  43.009  0.00  0.00    -0.053 C 
BRANCH  16  17
ATOM     17  C   UNL     1      90.849  48.836  42.890  0.00  0.00    -0.053 C 
BRANCH  17  18
ATOM     18  C   UNL     1      90.397  49.319  41.500  0.00  0.00    -0.043 C 
BRANCH  18  19
ATOM     19  C   UNL     1      90.007  50.803  41.502  0.00  0.00    +0.045 C 
BRANCH  19  20
ATOM     20  C   UNL     1      89.170  51.162  40.314  0.00  0.00    +0.305 C 
ATOM     21  O   UNL     1      87.920  51.005  40.350  0.00  0.00    -0.251 OA
ATOM     22  O   UNL     1      89.771  51.698  39.179  0.00  0.00    -0.481 OA
ENDBRANCH  19  20
ENDBRANCH  18  19
ENDBRANCH  17  18
ENDBRANCH  16  17
ENDBRANCH  15  16
ENDBRANCH  14  15
ENDBRANCH  13  14
ENDBRANCH   2  13
TORSDOF 14
ENDMDL
MODEL 4
REMARK VINA RESULT:    -5.956      3.983      9.252
REMARK INTER + INTRA:         -11.956
REMARK INTER:                 -10.613
REMARK INTRA:                  -1.343
REMARK UNBOUND:                -1.300
REMARK  Name = 
REMARK  14 active torsions:
REMARK  status: ('A' for Active; 'I' for Inactive)
REMARK    1  A    between atoms: O_1  and  C_2
REMARK    2  A    between atoms: C_2  and  C_3
REMARK    3  A    between atoms: C_3  and  C_4
REMARK    4  A    between atoms: C_5  and  C_6
REMARK    5  A    between atoms: C_7  and  C_8
REMARK    6  A    between atoms: C_9  and  C_10
REMARK    7  A    between atoms: C_11  and  C_12
REMARK    8  A    between atoms: C_12  and  C_13
REMARK    9  A    between atoms: C_13  and  C_14
REMARK   10  A    between atoms: C_14  and  C_15
REMARK   11  A    between atoms: C_15  and  C_16
REMARK   12  A    between atoms: C_16  and  C_17
REMARK   13  A    between atoms: C_17  and  C_18
REMARK   14  A    between atoms: C_18  and  C_19
REMARK                            x       y       z     vdW  Elec       q    Type
REMARK                         _______ _______ _______ _____ _____    ______ ____
ROOT
ATOM      1  C   UNL     1      81.644  50.530  42.972  0.00  0.00    -0.014 C 
ATOM      2  C   UNL     1      80.510  50.230  43.252  0.00  0.00    -0.088 C 
ENDROOT
BRANCH   1   4
ATOM      3  C   UNL     1      84.104  51.183  42.366  0.00  0.00    -0.000 C 
ATOM      4  C   UNL     1      82.971  50.882  42.645  0.00  0.00    -0.001 C 
BRANCH   3   6
ATOM      5  C   UNL     1      86.565  51.837  41.761  0.00  0.00    -0.001 C 
ATOM      6  C   UNL     1      85.432  51.536  42.039  0.00  0.00    -0.000 C 
BRANCH   5   8
ATOM      7  C   UNL     1      89.025  52.490  41.156  0.00  0.00    -0.086 C 
ATOM      8  C   UNL     1      87.892  52.190  41.434  0.00  0.00    -0.014 C 
BRANCH   7   9
ATOM      9  C   UNL     1      90.406  52.858  40.817  0.00  0.00    +0.033 C 
BRANCH   9  10
ATOM     10  C   UNL     1      90.439  53.841  39.644  0.00  0.00    +0.055 C 
BRANCH  10  11
ATOM     11  O   UNL     1      90.773  55.131  40.083  0.00  0.00    -0.394 OA
ATOM     12  H   UNL     1      90.091  55.757  39.793  0.00  0.00    +0.000 HD
ENDBRANCH  10  11
ENDBRANCH   9  10
ENDBRANCH   7   9
ENDBRANCH   5   8
ENDBRANCH   3   6
ENDBRANCH   1   4
BRANCH   2  13
ATOM     13  C   UNL     1      79.131  49.864  43.594  0.00  0.00    +0.010 C 
BRANCH  13  14
ATOM     14  C   UNL     1      79.113  48.616  44.480  0.00  0.00    -0.042 C 
BRANCH  14  15
ATOM     15  C   UNL     1      79.641  47.393  43.716  0.00  0.00    -0.052 C 
BRANCH  15  16
ATOM     16  C   UNL     1      80.299  46.348  44.636  0.00  0.00    -0.053 C 
BRANCH  16  17
ATOM     17  C   UNL     1      81.813  46.159  44.430  0.00  0.00    -0.053 C 
BRANCH  17  18
ATOM     18  C   UNL     1      82.349  46.909  43.198  0.00  0.00    -0.043 C 
BRANCH  18  19
ATOM     19  C   UNL     1      83.812  47.338  43.373  0.00  0.00    +0.045 C 
BRANCH  19  20
ATOM     20  C   UNL     1      84.736  46.161  43.426  0.00  0.00    +0.305 C 
ATOM     21  O   UNL     1      85.569  46.054  44.366  0.00  0.00    -0.251 OA
ATOM     22  O   UNL     1      84.653  45.169  42.454  0.00  0.00    -0.481 OA
ENDBRANCH  19  20
ENDBRANCH  18  19
ENDBRANCH  17  18
ENDBRANCH  16  17
ENDBRANCH  15  16
ENDBRANCH  14  15
ENDBRANCH  13  14
ENDBRANCH   2  13
TORSDOF 14
ENDMDL
MODEL 5
REMARK VINA RESULT:    -5.691      6.095     10.292
REMARK INTER + INTRA:         -11.482
REMARK INTER:                 -10.162
REMARK INTRA:                  -1.320
REMARK UNBOUND:                -1.300
REMARK  Name = 
REMARK  14 active torsions:
REMARK  status: ('A' for Active; 'I' for Inactive)
REMARK    1  A    between atoms: O_1  and  C_2
REMARK    2  A    between atoms: C_2  and  C_3
REMARK    3  A    between atoms: C_3  and  C_4
REMARK    4  A    between atoms: C_5  and  C_6
REMARK    5  A    between atoms: C_7  and  C_8
REMARK    6  A    between atoms: C_9  and  C_10
REMARK    7  A    between atoms: C_11  and  C_12
REMARK    8  A    between atoms: C_12  and  C_13
REMARK    9  A    between atoms: C_13  and  C_14
REMARK   10  A    between atoms: C_14  and  C_15
REMARK   11  A    between atoms: C_15  and  C_16
REMARK   12  A    between atoms: C_16  and  C_17
REMARK   13  A    between atoms: C_17  and  C_18
REMARK   14  A    between atoms: C_18  and  C_19
REMARK                            x       y       z     vdW  Elec       q    Type
REMARK                         _______ _______ _______ _____ _____    ______ ____
ROOT
ATOM      1  C   UNL     1      86.176  54.126  46.121  0.00  0.00    -0.014 C 
ATOM      2  C   UNL     1      85.652  55.075  46.649  0.00  0.00    -0.088 C 
ENDROOT
BRANCH   1   4
ATOM      3  C   UNL     1      87.316  52.069  44.974  0.00  0.00    -0.000 C 
ATOM      4  C   UNL     1      86.791  53.016  45.502  0.00  0.00    -0.001 C 
BRANCH   3   6
ATOM      5  C   UNL     1      88.456  50.010  43.827  0.00  0.00    -0.001 C 
ATOM      6  C   UNL     1      87.931  50.959  44.355  0.00  0.00    -0.000 C 
BRANCH   5   8
ATOM      7  C   UNL     1      89.594  47.952  42.681  0.00  0.00    -0.086 C 
ATOM      8  C   UNL     1      89.070  48.901  43.209  0.00  0.00    -0.014 C 
BRANCH   7   9
ATOM      9  C   UNL     1      90.234  46.797  42.039  0.00  0.00    +0.033 C 
BRANCH   9  10
ATOM     10  C   UNL     1      89.523  45.496  42.418  0.00  0.00    +0.055 C 
BRANCH  10  11
ATOM     11  O   UNL     1      88.164  45.550  42.076  0.00  0.00    -0.394 OA
ATOM     12  H   UNL     1      87.987  44.920  41.359  0.00  0.00    +0.000 HD
ENDBRANCH  10  11
ENDBRANCH   9  10
ENDBRANCH   7   9
ENDBRANCH   5   8
ENDBRANCH   3   6
ENDBRANCH   1   4
BRANCH   2  13
ATOM     13  C   UNL     1      85.015  56.229  47.291  0.00  0.00    +0.010 C 
BRANCH  13  14
ATOM     14  C   UNL     1      84.268  57.072  46.254  0.00  0.00    -0.042 C 
BRANCH  14  15
ATOM     15  C   UNL     1      85.202  58.110  45.615  0.00  0.00    -0.052 C 
BRANCH  15  16
ATOM     16  C   UNL     1      85.406  57.886  44.105  0.00  0.00    -0.053 C 
BRANCH  16  17
ATOM     17  C   UNL     1      84.549  56.765  43.490  0.00  0.00    -0.053 C 
BRANCH  17  18
ATOM     18  C   UNL     1      85.388  55.583  42.974  0.00  0.00    -0.043 C 
BRANCH  18  19
ATOM     19  C   UNL     1      84.517  54.481  42.357  0.00  0.00    +0.045 C 
BRANCH  19  20
ATOM     20  C   UNL     1      84.576  54.496  40.860  0.00  0.00    +0.305 C 
ATOM     21  O   UNL     1      85.490  53.872  40.257  0.00  0.00    -0.251 OA
ATOM     22  O   UNL     1      83.601  55.175  40.135  0.00  0.00    -0.481 OA
ENDBRANCH  19  20
ENDBRANCH  18  19
ENDBRANCH  17  18
ENDBRANCH  16  17
ENDBRANCH  15  16
ENDBRANCH  14  15
ENDBRANCH  13  14
ENDBRANCH   2  13
TORSDOF 14
ENDMDL
MODEL 6
REMARK VINA RESULT:    -5.612      6.126      9.249
REMARK INTER + INTRA:         -11.340
REMARK INTER:                 -10.242
REMARK INTRA:                  -1.098
REMARK UNBOUND:                -1.300
REMARK  Name = 
REMARK  14 active torsions:
REMARK  status: ('A' for Active; 'I' for Inactive)
REMARK    1  A    between atoms: O_1  and  C_2
REMARK    2  A    between atoms: C_2  and  C_3
REMARK    3  A    between atoms: C_3  and  C_4
REMARK    4  A    between atoms: C_5  and  C_6
REMARK    5  A    between atoms: C_7  and  C_8
REMARK    6  A    between atoms: C_9  and  C_10
REMARK    7  A    between atoms: C_11  and  C_12
REMARK    8  A    between atoms: C_12  and  C_13
REMARK    9  A    between atoms: C_13  and  C_14
REMARK   10  A    between atoms: C_14  and  C_15
REMARK   11  A    between atoms: C_15  and  C_16
REMARK   12  A    between atoms: C_16  and  C_17
REMARK   13  A    between atoms: C_17  and  C_18
REMARK   14  A    between atoms: C_18  and  C_19
REMARK                            x       y       z     vdW  Elec       q    Type
REMARK                         _______ _______ _______ _____ _____    ______ ____
ROOT
ATOM      1  C   UNL     1      84.737  53.630  45.873  0.00  0.00    -0.014 C 
ATOM      2  C   UNL     1      84.595  54.748  46.299  0.00  0.00    -0.088 C 
ENDROOT
BRANCH   1   4
ATOM      3  C   UNL     1      85.043  51.202  44.946  0.00  0.00    -0.000 C 
ATOM      4  C   UNL     1      84.902  52.321  45.373  0.00  0.00    -0.001 C 
BRANCH   3   6
ATOM      5  C   UNL     1      85.349  48.775  44.017  0.00  0.00    -0.001 C 
ATOM      6  C   UNL     1      85.209  49.892  44.445  0.00  0.00    -0.000 C 
BRANCH   5   8
ATOM      7  C   UNL     1      85.656  46.348  43.088  0.00  0.00    -0.086 C 
ATOM      8  C   UNL     1      85.514  47.466  43.516  0.00  0.00    -0.014 C 
BRANCH   7   9
ATOM      9  C   UNL     1      85.828  44.987  42.566  0.00  0.00    +0.033 C 
BRANCH   9  10
ATOM     10  C   UNL     1      87.168  44.394  43.009  0.00  0.00    +0.055 C 
BRANCH  10  11
ATOM     11  O   UNL     1      87.124  44.019  44.360  0.00  0.00    -0.394 OA
ATOM     12  H   UNL     1      86.731  44.737  44.882  0.00  0.00    +0.000 HD
ENDBRANCH  10  11
ENDBRANCH   9  10
ENDBRANCH   7   9
ENDBRANCH   5   8
ENDBRANCH   3   6
ENDBRANCH   1   4
BRANCH   2  13
ATOM     13  C   UNL     1      84.422  56.110  46.818  0.00  0.00    +0.010 C 
BRANCH  13  14
ATOM     14  C   UNL     1      85.605  56.992  46.409  0.00  0.00    -0.042 C 
BRANCH  14  15
ATOM     15  C   UNL     1      85.212  57.943  45.269  0.00  0.00    -0.052 C 
BRANCH  15  16
ATOM     16  C   UNL     1      85.645  57.431  43.882  0.00  0.00    -0.053 C 
BRANCH  16  17
ATOM     17  C   UNL     1      84.535  56.750  43.062  0.00  0.00    -0.053 C 
BRANCH  17  18
ATOM     18  C   UNL     1      84.929  55.347  42.568  0.00  0.00    -0.043 C 
BRANCH  18  19
ATOM     19  C   UNL     1      84.188  54.957  41.283  0.00  0.00    +0.045 C 
BRANCH  19  20
ATOM     20  C   UNL     1      84.939  53.929  40.495  0.00  0.00    +0.305 C 
ATOM     21  O   UNL     1      85.211  52.812  41.011  0.00  0.00    -0.251 OA
ATOM     22  O   UNL     1      85.311  54.198  39.181  0.00  0.00    -0.481 OA
ENDBRANCH  19  20
ENDBRANCH  18  19
ENDBRANCH  17  18
ENDBRANCH  16  17
ENDBRANCH  15  16
ENDBRANCH  14  15
ENDBRANCH  13  14
ENDBRANCH   2  13
TORSDOF 14
ENDMDL
MODEL 7
REMARK VINA RESULT:    -5.595      1.813      2.194
REMARK INTER + INTRA:         -11.310
REMARK INTER:                 -10.042
REMARK INTRA:                  -1.268
REMARK UNBOUND:                -1.300
REMARK  Name = 
REMARK  14 active torsions:
REMARK  status: ('A' for Active; 'I' for Inactive)
REMARK    1  A    between atoms: O_1  and  C_2
REMARK    2  A    between atoms: C_2  and  C_3
REMARK    3  A    between atoms: C_3  and  C_4
REMARK    4  A    between atoms: C_5  and  C_6
REMARK    5  A    between atoms: C_7  and  C_8
REMARK    6  A    between atoms: C_9  and  C_10
REMARK    7  A    between atoms: C_11  and  C_12
REMARK    8  A    between atoms: C_12  and  C_13
REMARK    9  A    between atoms: C_13  and  C_14
REMARK   10  A    between atoms: C_14  and  C_15
REMARK   11  A    between atoms: C_15  and  C_16
REMARK   12  A    between atoms: C_16  and  C_17
REMARK   13  A    between atoms: C_17  and  C_18
REMARK   14  A    between atoms: C_18  and  C_19
REMARK                            x       y       z     vdW  Elec       q    Type
REMARK                         _______ _______ _______ _____ _____    ______ ____
ROOT
ATOM      1  C   UNL     1      86.519  46.496  42.721  0.00  0.00    -0.014 C 
ATOM      2  C   UNL     1      87.615  46.082  42.436  0.00  0.00    -0.088 C 
ENDROOT
BRANCH   1   4
ATOM      3  C   UNL     1      84.141  47.394  43.343  0.00  0.00    -0.000 C 
ATOM      4  C   UNL     1      85.237  46.980  43.057  0.00  0.00    -0.001 C 
BRANCH   3   6
ATOM      5  C   UNL     1      81.762  48.290  43.965  0.00  0.00    -0.001 C 
ATOM      6  C   UNL     1      82.858  47.878  43.679  0.00  0.00    -0.000 C 
BRANCH   5   8
ATOM      7  C   UNL     1      79.384  49.187  44.587  0.00  0.00    -0.086 C 
ATOM      8  C   UNL     1      80.480  48.774  44.301  0.00  0.00    -0.014 C 
BRANCH   7   9
ATOM      9  C   UNL     1      78.050  49.692  44.935  0.00  0.00    +0.033 C 
BRANCH   9  10
ATOM     10  C   UNL     1      77.744  50.992  44.189  0.00  0.00    +0.055 C 
BRANCH  10  11
ATOM     11  O   UNL     1      76.624  51.632  44.740  0.00  0.00    -0.394 OA
ATOM     12  H   UNL     1      75.817  51.179  44.448  0.00  0.00    +0.000 HD
ENDBRANCH  10  11
ENDBRANCH   9  10
ENDBRANCH   7   9
ENDBRANCH   5   8
ENDBRANCH   3   6
ENDBRANCH   1   4
BRANCH   2  13
ATOM     13  C   UNL     1      88.948  45.578  42.089  0.00  0.00    +0.010 C 
BRANCH  13  14
ATOM     14  C   UNL     1      90.021  46.606  42.458  0.00  0.00    -0.042 C 
BRANCH  14  15
ATOM     15  C   UNL     1      90.113  47.709  41.393  0.00  0.00    -0.052 C 
BRANCH  15  16
ATOM     16  C   UNL     1      90.023  49.127  41.987  0.00  0.00    -0.053 C 
BRANCH  16  17
ATOM     17  C   UNL     1      89.235  49.233  43.305  0.00  0.00    -0.053 C 
BRANCH  17  18
ATOM     18  C   UNL     1      88.307  50.460  43.352  0.00  0.00    -0.043 C 
BRANCH  18  19
ATOM     19  C   UNL     1      87.070  50.285  42.461  0.00  0.00    +0.045 C 
BRANCH  19  20
ATOM     20  C   UNL     1      85.998  51.275  42.794  0.00  0.00    +0.305 C 
ATOM     21  O   UNL     1      85.988  51.842  43.919  0.00  0.00    -0.251 OA
ATOM     22  O   UNL     1      85.028  51.591  41.847  0.00  0.00    -0.481 OA
ENDBRANCH  19  20
ENDBRANCH  18  19
ENDBRANCH  17  18
ENDBRANCH  16  17
ENDBRANCH  15  16
ENDBRANCH  14  15
ENDBRANCH  13  14
ENDBRANCH   2  13
TORSDOF 14
ENDMDL
MODEL 8
REMARK VINA RESULT:    -5.460      4.612      5.380
REMARK INTER + INTRA:         -11.069
REMARK INTER:                  -9.918
REMARK INTRA:                  -1.152
REMARK UNBOUND:                -1.300
REMARK  Name = 
REMARK  14 active torsions:
REMARK  status: ('A' for Active; 'I' for Inactive)
REMARK    1  A    between atoms: O_1  and  C_2
REMARK    2  A    between atoms: C_2  and  C_3
REMARK    3  A    between atoms: C_3  and  C_4
REMARK    4  A    between atoms: C_5  and  C_6
REMARK    5  A    between atoms: C_7  and  C_8
REMARK    6  A    between atoms: C_9  and  C_10
REMARK    7  A    between atoms: C_11  and  C_12
REMARK    8  A    between atoms: C_12  and  C_13
REMARK    9  A    between atoms: C_13  and  C_14
REMARK   10  A    between atoms: C_14  and  C_15
REMARK   11  A    between atoms: C_15  and  C_16
REMARK   12  A    between atoms: C_16  and  C_17
REMARK   13  A    between atoms: C_17  and  C_18
REMARK   14  A    between atoms: C_18  and  C_19
REMARK                            x       y       z     vdW  Elec       q    Type
REMARK                         _______ _______ _______ _____ _____    ______ ____
ROOT
ATOM      1  C   UNL     1      85.950  47.379  44.192  0.00  0.00    -0.014 C 
ATOM      2  C   UNL     1      85.949  46.227  43.836  0.00  0.00    -0.088 C 
ENDROOT
BRANCH   1   4
ATOM      3  C   UNL     1      85.955  49.879  44.964  0.00  0.00    -0.000 C 
ATOM      4  C   UNL     1      85.953  48.727  44.609  0.00  0.00    -0.001 C 
BRANCH   3   6
ATOM      5  C   UNL     1      85.962  52.379  45.738  0.00  0.00    -0.001 C 
ATOM      6  C   UNL     1      85.959  51.228  45.382  0.00  0.00    -0.000 C 
BRANCH   5   8
ATOM      7  C   UNL     1      85.969  54.879  46.512  0.00  0.00    -0.086 C 
ATOM      8  C   UNL     1      85.965  53.727  46.156  0.00  0.00    -0.014 C 
BRANCH   7   9
ATOM      9  C   UNL     1      85.974  56.281  46.947  0.00  0.00    +0.033 C 
BRANCH   9  10
ATOM     10  C   UNL     1      85.443  57.199  45.844  0.00  0.00    +0.055 C 
BRANCH  10  11
ATOM     11  O   UNL     1      84.079  56.965  45.613  0.00  0.00    -0.394 OA
ATOM     12  H   UNL     1      83.589  57.068  46.444  0.00  0.00    +0.000 HD
ENDBRANCH  10  11
ENDBRANCH   9  10
ENDBRANCH   7   9
ENDBRANCH   5   8
ENDBRANCH   3   6
ENDBRANCH   1   4
BRANCH   2  13
ATOM     13  C   UNL     1      85.948  44.826  43.404  0.00  0.00    +0.010 C 
BRANCH  13  14
ATOM     14  C   UNL     1      86.984  44.606  42.299  0.00  0.00    -0.042 C 
BRANCH  14  15
ATOM     15  C   UNL     1      88.398  44.496  42.887  0.00  0.00    -0.052 C 
BRANCH  15  16
ATOM     16  C   UNL     1      89.378  45.528  42.297  0.00  0.00    -0.053 C 
BRANCH  16  17
ATOM     17  C   UNL     1      88.718  46.782  41.695  0.00  0.00    -0.053 C 
BRANCH  17  18
ATOM     18  C   UNL     1      89.115  48.077  42.424  0.00  0.00    -0.043 C 
BRANCH  18  19
ATOM     19  C   UNL     1      90.090  48.930  41.600  0.00  0.00    +0.045 C 
BRANCH  19  20
ATOM     20  C   UNL     1      89.484  50.238  41.197  0.00  0.00    +0.305 C 
ATOM     21  O   UNL     1      90.110  51.313  41.398  0.00  0.00    -0.251 OA
ATOM     22  O   UNL     1      88.240  50.264  40.574  0.00  0.00    -0.481 OA
ENDBRANCH  19  20
ENDBRANCH  18  19
ENDBRANCH  17  18
ENDBRANCH  16  17
ENDBRANCH  15  16
ENDBRANCH  14  15
ENDBRANCH  13  14
ENDBRANCH   2  13
TORSDOF 14
ENDMDL
MODEL 9
REMARK VINA RESULT:    -5.366      6.561      9.214
REMARK INTER + INTRA:         -10.900
REMARK INTER:                  -9.600
REMARK INTRA:                  -1.300
REMARK UNBOUND:                -1.300
REMARK  Name = 
REMARK  14 active torsions:
REMARK  status: ('A' for Active; 'I' for Inactive)
REMARK    1  A    between atoms: O_1  and  C_2
REMARK    2  A    between atoms: C_2  and  C_3
REMARK    3  A    between atoms: C_3  and  C_4
REMARK    4  A    between atoms: C_5  and  C_6
REMARK    5  A    between atoms: C_7  and  C_8
REMARK    6  A    between atoms: C_9  and  C_10
REMARK    7  A    between atoms: C_11  and  C_12
REMARK    8  A    between atoms: C_12  and  C_13
REMARK    9  A    between atoms: C_13  and  C_14
REMARK   10  A    between atoms: C_14  and  C_15
REMARK   11  A    between atoms: C_15  and  C_16
REMARK   12  A    between atoms: C_16  and  C_17
REMARK   13  A    between atoms: C_17  and  C_18
REMARK   14  A    between atoms: C_18  and  C_19
REMARK                            x       y       z     vdW  Elec       q    Type
REMARK                         _______ _______ _______ _____ _____    ______ ____
ROOT
ATOM      1  C   UNL     1      84.536  54.683  43.431  0.00  0.00    -0.014 C 
ATOM      2  C   UNL     1      84.673  55.881  43.421  0.00  0.00    -0.088 C 
ENDROOT
BRANCH   1   4
ATOM      3  C   UNL     1      84.242  52.083  43.453  0.00  0.00    -0.000 C 
ATOM      4  C   UNL     1      84.377  53.281  43.443  0.00  0.00    -0.001 C 
BRANCH   3   6
ATOM      5  C   UNL     1      83.947  49.483  43.476  0.00  0.00    -0.001 C 
ATOM      6  C   UNL     1      84.083  50.680  43.465  0.00  0.00    -0.000 C 
BRANCH   5   8
ATOM      7  C   UNL     1      83.652  46.883  43.498  0.00  0.00    -0.086 C 
ATOM      8  C   UNL     1      83.787  48.080  43.488  0.00  0.00    -0.014 C 
BRANCH   7   9
ATOM      9  C   UNL     1      83.485  45.424  43.509  0.00  0.00    +0.033 C 
BRANCH   9  10
ATOM     10  C   UNL     1      84.835  44.719  43.662  0.00  0.00    +0.055 C 
BRANCH  10  11
ATOM     11  O   UNL     1      85.639  45.379  44.603  0.00  0.00    -0.394 OA
ATOM     12  H   UNL     1      85.631  46.333  44.422  0.00  0.00    +0.000 HD
ENDBRANCH  10  11
ENDBRANCH   9  10
ENDBRANCH   7   9
ENDBRANCH   5   8
ENDBRANCH   3   6
ENDBRANCH   1   4
BRANCH   2  13
ATOM     13  C   UNL     1      84.840  57.338  43.410  0.00  0.00    +0.010 C 
BRANCH  13  14
ATOM     14  C   UNL     1      85.929  57.759  44.401  0.00  0.00    -0.042 C 
BRANCH  14  15
ATOM     15  C   UNL     1      85.371  57.835  45.830  0.00  0.00    -0.052 C 
BRANCH  15  16
ATOM     16  C   UNL     1      85.610  56.546  46.638  0.00  0.00    -0.053 C 
BRANCH  16  17
ATOM     17  C   UNL     1      84.335  55.846  47.142  0.00  0.00    -0.053 C 
BRANCH  17  18
ATOM     18  C   UNL     1      84.437  54.311  47.102  0.00  0.00    -0.043 C 
BRANCH  18  19
ATOM     19  C   UNL     1      85.835  53.815  47.494  0.00  0.00    +0.045 C 
BRANCH  19  20
ATOM     20  C   UNL     1      85.894  52.321  47.577  0.00  0.00    +0.305 C 
ATOM     21  O   UNL     1      85.862  51.628  46.525  0.00  0.00    -0.251 OA
ATOM     22  O   UNL     1      86.014  51.700  48.816  0.00  0.00    -0.481 OA
ENDBRANCH  19  20
ENDBRANCH  18  19
ENDBRANCH  17  18
ENDBRANCH  16  17
ENDBRANCH  15  16
ENDBRANCH  14  15
ENDBRANCH  13  14
ENDBRANCH   2  13
TORSDOF 14
ENDMDL
