MODEL 1
REMARK VINA RESULT:    -9.061      0.000      0.000
REMARK INTER + INTRA:         -11.911
REMARK INTER:                 -11.085
REMARK INTRA:                  -0.826
REMARK UNBOUND:                -0.731
REMARK  Name = 
REMARK  10 active torsions:
REMARK  status: ('A' for Active; 'I' for Inactive)
REMARK    1  A    between atoms: C_1  and  O_2
REMARK    2  A    between atoms: O_2  and  C_3
REMARK    3  A    between atoms: C_4  and  C_16
REMARK    4  A    between atoms: C_10  and  C_11
REMARK    5  A    between atoms: C_13  and  C_15
REMARK    6  A    between atoms: C_17  and  C_18
REMARK    7  A    between atoms: C_20  and  O_29
REMARK    8  A    between atoms: C_26  and  O_27
REMARK    9  A    between atoms: O_27  and  C_28
REMARK   10  A    between atoms: O_29  and  C_30
REMARK                            x       y       z     vdW  Elec       q    Type
REMARK                         _______ _______ _______ _____ _____    ______ ____
ROOT
ATOM      1  C   UNL     1      85.281  52.981  44.508  0.00  0.00    +0.140 C 
ATOM      2  C   UNL     1      85.214  52.291  43.350  0.00  0.00    +0.072 C 
ATOM      3  C   UNL     1      84.799  52.971  42.106  0.00  0.00    +0.190 C 
ATOM      4  O   UNL     1      84.660  52.320  41.036  0.00  0.00    -0.287 OA
ATOM      5  C   UNL     1      84.546  54.414  42.111  0.00  0.00    -0.010 C 
ATOM      6  C   UNL     1      84.604  55.119  43.248  0.00  0.00    -0.030 C 
ATOM      7  C   UNL     1      84.877  54.429  44.551  0.00  0.00    +0.037 C 
ATOM      8  C   UNL     1      84.720  55.136  45.704  0.00  0.00    +0.012 C 
ATOM      9  C   UNL     1      84.748  54.500  47.069  0.00  0.00    -0.026 C 
ATOM     10  N   UNL     1      84.499  56.556  45.643  0.00  0.00    -0.344 N 
ATOM     11  C   UNL     1      84.781  57.325  44.433  0.00  0.00    +0.022 C 
ATOM     12  C   UNL     1      84.227  56.580  43.216  0.00  0.00    -0.009 C 
ATOM     13  C   UNL     1      86.288  57.576  44.312  0.00  0.00    -0.046 C 
ATOM     14  H   UNL     1      84.148  57.022  46.437  0.00  0.00    +0.000 HD
ENDROOT
BRANCH   2  15
ATOM     15  C   UNL     1      85.565  50.844  43.302  0.00  0.00    +0.000 A 
ATOM     16  C   UNL     1      84.588  49.884  43.640  0.00  0.00    -0.038 A 
ATOM     17  C   UNL     1      83.198  50.287  44.072  0.00  0.00    -0.039 C 
ATOM     18  C   UNL     1      84.911  48.525  43.606  0.00  0.00    -0.016 A 
ATOM     19  C   UNL     1      86.183  48.082  43.212  0.00  0.00    +0.132 A 
ATOM     20  C   UNL     1      87.177  49.030  42.859  0.00  0.00    +0.066 A 
ATOM     21  C   UNL     1      86.865  50.421  42.918  0.00  0.00    -0.003 A 
ATOM     22  C   UNL     1      87.868  51.363  42.603  0.00  0.00    -0.053 A 
ATOM     23  C   UNL     1      89.137  50.953  42.216  0.00  0.00    -0.058 A 
ATOM     24  C   UNL     1      89.443  49.602  42.137  0.00  0.00    -0.019 A 
ATOM     25  C   UNL     1      88.482  48.625  42.456  0.00  0.00    +0.131 A 
BRANCH  25  26
ATOM     26  O   UNL     1      88.802  47.258  42.378  0.00  0.00    -0.494 OA
ATOM     27  C   UNL     1      90.122  46.724  42.381  0.00  0.00    +0.079 C 
ENDBRANCH  25  26
BRANCH  19  28
ATOM     28  O   UNL     1      86.479  46.707  43.170  0.00  0.00    -0.494 OA
ATOM     29  C   UNL     1      85.848  45.706  43.962  0.00  0.00    +0.079 C 
ENDBRANCH  19  28
ENDBRANCH   2  15
BRANCH   1  31
ATOM     30  C   UNL     1      87.123  52.329  46.013  0.00  0.00    +0.079 C 
ATOM     31  O   UNL     1      85.744  52.338  45.661  0.00  0.00    -0.494 OA
ENDBRANCH   1  31
TORSDOF 4
ENDMDL
MODEL 2
REMARK VINA RESULT:    -9.002      1.149      3.140
REMARK INTER + INTRA:         -11.838
REMARK INTER:                 -11.025
REMARK INTRA:                  -0.812
REMARK UNBOUND:                -0.731
REMARK  Name = 
REMARK  10 active torsions:
REMARK  status: ('A' for Active; 'I' for Inactive)
REMARK    1  A    between atoms: C_1  and  O_2
REMARK    2  A    between atoms: O_2  and  C_3
REMARK    3  A    between atoms: C_4  and  C_16
REMARK    4  A    between atoms: C_10  and  C_11
REMARK    5  A    between atoms: C_13  and  C_15
REMARK    6  A    between atoms: C_17  and  C_18
REMARK    7  A    between atoms: C_20  and  O_29
REMARK    8  A    between atoms: C_26  and  O_27
REMARK    9  A    between atoms: O_27  and  C_28
REMARK   10  A    between atoms: O_29  and  C_30
REMARK                            x       y       z     vdW  Elec       q    Type
REMARK                         _______ _______ _______ _____ _____    ______ ____
ROOT
ATOM      1  C   UNL     1      85.115  53.384  44.487  0.00  0.00    +0.140 C 
ATOM      2  C   UNL     1      85.202  52.669  43.347  0.00  0.00    +0.072 C 
ATOM      3  C   UNL     1      85.018  53.333  42.040  0.00  0.00    +0.190 C 
ATOM      4  O   UNL     1      85.022  52.661  40.973  0.00  0.00    -0.287 OA
ATOM      5  C   UNL     1      84.830  54.784  41.978  0.00  0.00    -0.010 C 
ATOM      6  C   UNL     1      84.737  55.514  43.097  0.00  0.00    -0.030 C 
ATOM      7  C   UNL     1      84.772  54.847  44.439  0.00  0.00    +0.037 C 
ATOM      8  C   UNL     1      84.465  55.588  45.539  0.00  0.00    +0.012 C 
ATOM      9  C   UNL     1      84.250  54.987  46.903  0.00  0.00    -0.026 C 
ATOM     10  N   UNL     1      84.317  57.015  45.416  0.00  0.00    -0.344 N 
ATOM     11  C   UNL     1      84.819  57.741  44.253  0.00  0.00    +0.022 C 
ATOM     12  C   UNL     1      84.433  56.988  42.977  0.00  0.00    -0.009 C 
ATOM     13  C   UNL     1      86.337  57.929  44.367  0.00  0.00    -0.046 C 
ATOM     14  H   UNL     1      83.866  57.514  46.136  0.00  0.00    +0.000 HD
ENDROOT
BRANCH   2  15
ATOM     15  C   UNL     1      85.494  51.208  43.381  0.00  0.00    +0.000 A 
ATOM     16  C   UNL     1      86.831  50.767  43.292  0.00  0.00    -0.038 A 
ATOM     17  C   UNL     1      87.977  51.739  43.141  0.00  0.00    -0.039 C 
ATOM     18  C   UNL     1      87.112  49.399  43.315  0.00  0.00    -0.016 A 
ATOM     19  C   UNL     1      86.095  48.442  43.456  0.00  0.00    +0.132 A 
ATOM     20  C   UNL     1      84.745  48.863  43.556  0.00  0.00    +0.066 A 
ATOM     21  C   UNL     1      84.445  50.258  43.505  0.00  0.00    -0.003 A 
ATOM     22  C   UNL     1      83.098  50.672  43.567  0.00  0.00    -0.053 A 
ATOM     23  C   UNL     1      82.071  49.747  43.701  0.00  0.00    -0.058 A 
ATOM     24  C   UNL     1      82.355  48.390  43.770  0.00  0.00    -0.019 A 
ATOM     25  C   UNL     1      83.682  47.927  43.697  0.00  0.00    +0.131 A 
BRANCH  25  26
ATOM     26  O   UNL     1      83.960  46.550  43.764  0.00  0.00    -0.494 OA
ATOM     27  C   UNL     1      82.992  45.512  43.654  0.00  0.00    +0.079 C 
ENDBRANCH  25  26
BRANCH  19  28
ATOM     28  O   UNL     1      86.406  47.070  43.493  0.00  0.00    -0.494 OA
ATOM     29  C   UNL     1      87.127  46.363  42.489  0.00  0.00    +0.079 C 
ENDBRANCH  19  28
ENDBRANCH   2  15
BRANCH   1  31
ATOM     30  C   UNL     1      86.648  52.776  46.321  0.00  0.00    +0.079 C 
ATOM     31  O   UNL     1      85.362  52.752  45.711  0.00  0.00    -0.494 OA
ENDBRANCH   1  31
TORSDOF 4
ENDMDL
MODEL 3
REMARK VINA RESULT:    -8.951      1.621      3.419
REMARK INTER + INTRA:         -11.774
REMARK INTER:                 -11.079
REMARK INTRA:                  -0.696
REMARK UNBOUND:                -0.731
REMARK  Name = 
REMARK  10 active torsions:
REMARK  status: ('A' for Active; 'I' for Inactive)
REMARK    1  A    between atoms: C_1  and  O_2
REMARK    2  A    between atoms: O_2  and  C_3
REMARK    3  A    between atoms: C_4  and  C_16
REMARK    4  A    between atoms: C_10  and  C_11
REMARK    5  A    between atoms: C_13  and  C_15
REMARK    6  A    between atoms: C_17  and  C_18
REMARK    7  A    between atoms: C_20  and  O_29
REMARK    8  A    between atoms: C_26  and  O_27
REMARK    9  A    between atoms: O_27  and  C_28
REMARK   10  A    between atoms: O_29  and  C_30
REMARK                            x       y       z     vdW  Elec       q    Type
REMARK                         _______ _______ _______ _____ _____    ______ ____
ROOT
ATOM      1  C   UNL     1      85.543  51.764  45.731  0.00  0.00    +0.140 C 
ATOM      2  C   UNL     1      85.478  51.508  44.408  0.00  0.00    +0.072 C 
ATOM      3  C   UNL     1      85.042  52.563  43.470  0.00  0.00    +0.190 C 
ATOM      4  O   UNL     1      84.905  52.313  42.242  0.00  0.00    -0.287 OA
ATOM      5  C   UNL     1      84.764  53.913  43.967  0.00  0.00    -0.010 C 
ATOM      6  C   UNL     1      84.819  54.189  45.275  0.00  0.00    -0.030 C 
ATOM      7  C   UNL     1      85.115  53.103  46.265  0.00  0.00    +0.037 C 
ATOM      8  C   UNL     1      84.955  53.372  47.590  0.00  0.00    +0.012 C 
ATOM      9  C   UNL     1      85.005  52.310  48.657  0.00  0.00    -0.026 C 
ATOM     10  N   UNL     1      84.709  54.724  48.016  0.00  0.00    -0.344 N 
ATOM     11  C   UNL     1      84.968  55.863  47.140  0.00  0.00    +0.022 C 
ATOM     12  C   UNL     1      84.417  55.567  45.743  0.00  0.00    -0.009 C 
ATOM     13  C   UNL     1      86.470  56.169  47.108  0.00  0.00    -0.046 C 
ATOM     14  H   UNL     1      84.357  54.885  48.922  0.00  0.00    +0.000 HD
ENDROOT
BRANCH   2  15
ATOM     15  C   UNL     1      85.853  50.171  43.869  0.00  0.00    +0.000 A 
ATOM     16  C   UNL     1      87.198  49.914  43.528  0.00  0.00    -0.038 A 
ATOM     17  C   UNL     1      88.268  50.971  43.675  0.00  0.00    -0.039 C 
ATOM     18  C   UNL     1      87.557  48.666  43.014  0.00  0.00    -0.016 A 
ATOM     19  C   UNL     1      86.613  47.639  42.853  0.00  0.00    +0.132 A 
ATOM     20  C   UNL     1      85.258  47.872  43.198  0.00  0.00    +0.066 A 
ATOM     21  C   UNL     1      84.877  49.154  43.697  0.00  0.00    -0.003 A 
ATOM     22  C   UNL     1      83.521  49.395  44.004  0.00  0.00    -0.053 A 
ATOM     23  C   UNL     1      82.565  48.399  43.850  0.00  0.00    -0.058 A 
ATOM     24  C   UNL     1      82.930  47.144  43.382  0.00  0.00    -0.019 A 
ATOM     25  C   UNL     1      84.267  46.860  43.049  0.00  0.00    +0.131 A 
BRANCH  25  26
ATOM     26  O   UNL     1      84.627  45.587  42.571  0.00  0.00    -0.494 OA
ATOM     27  C   UNL     1      84.395  44.360  43.255  0.00  0.00    +0.079 C 
ENDBRANCH  25  26
BRANCH  19  28
ATOM     28  O   UNL     1      87.002  46.384  42.348  0.00  0.00    -0.494 OA
ATOM     29  C   UNL     1      88.341  45.995  42.056  0.00  0.00    +0.079 C 
ENDBRANCH  19  28
ENDBRANCH   2  15
BRANCH   1  31
ATOM     30  C   UNL     1      87.385  50.748  47.018  0.00  0.00    +0.079 C 
ATOM     31  O   UNL     1      86.026  50.775  46.595  0.00  0.00    -0.494 OA
ENDBRANCH   1  31
TORSDOF 4
ENDMDL
MODEL 4
REMARK VINA RESULT:    -8.843      2.836      7.569
REMARK INTER + INTRA:         -11.642
REMARK INTER:                 -11.332
REMARK INTRA:                  -0.310
REMARK UNBOUND:                -0.731
REMARK  Name = 
REMARK  10 active torsions:
REMARK  status: ('A' for Active; 'I' for Inactive)
REMARK    1  A    between atoms: C_1  and  O_2
REMARK    2  A    between atoms: O_2  and  C_3
REMARK    3  A    between atoms: C_4  and  C_16
REMARK    4  A    between atoms: C_10  and  C_11
REMARK    5  A    between atoms: C_13  and  C_15
REMARK    6  A    between atoms: C_17  and  C_18
REMARK    7  A    between atoms: C_20  and  O_29
REMARK    8  A    between atoms: C_26  and  O_27
REMARK    9  A    between atoms: O_27  and  C_28
REMARK   10  A    between atoms: O_29  and  C_30
REMARK                            x       y       z     vdW  Elec       q    Type
REMARK                         _______ _______ _______ _____ _____    ______ ____
ROOT
ATOM      1  C   UNL     1      86.955  48.704  43.385  0.00  0.00    +0.140 C 
ATOM      2  C   UNL     1      85.893  49.400  43.843  0.00  0.00    +0.072 C 
ATOM      3  C   UNL     1      84.554  48.776  43.866  0.00  0.00    +0.190 C 
ATOM      4  O   UNL     1      83.543  49.441  44.219  0.00  0.00    -0.287 OA
ATOM      5  C   UNL     1      84.394  47.373  43.475  0.00  0.00    -0.010 C 
ATOM      6  C   UNL     1      85.433  46.665  43.016  0.00  0.00    -0.030 C 
ATOM      7  C   UNL     1      86.772  47.315  42.841  0.00  0.00    +0.037 C 
ATOM      8  C   UNL     1      87.744  46.629  42.178  0.00  0.00    +0.012 C 
ATOM      9  C   UNL     1      89.045  47.254  41.749  0.00  0.00    -0.026 C 
ATOM     10  N   UNL     1      87.536  45.245  41.845  0.00  0.00    -0.344 N 
ATOM     11  C   UNL     1      86.490  44.451  42.484  0.00  0.00    +0.022 C 
ATOM     12  C   UNL     1      85.190  45.258  42.524  0.00  0.00    -0.009 C 
ATOM     13  C   UNL     1      86.939  44.023  43.886  0.00  0.00    -0.046 C 
ATOM     14  H   UNL     1      88.114  44.822  41.168  0.00  0.00    +0.000 HD
ENDROOT
BRANCH   2  15
ATOM     15  C   UNL     1      86.050  50.795  44.340  0.00  0.00    +0.000 A 
ATOM     16  C   UNL     1      86.465  51.014  45.671  0.00  0.00    -0.038 A 
ATOM     17  C   UNL     1      86.735  49.865  46.614  0.00  0.00    -0.039 C 
ATOM     18  C   UNL     1      86.606  52.319  46.147  0.00  0.00    -0.016 A 
ATOM     19  C   UNL     1      86.374  53.431  45.324  0.00  0.00    +0.132 A 
ATOM     20  C   UNL     1      85.964  53.235  43.981  0.00  0.00    +0.066 A 
ATOM     21  C   UNL     1      85.790  51.905  43.493  0.00  0.00    -0.003 A 
ATOM     22  C   UNL     1      85.346  51.713  42.167  0.00  0.00    -0.053 A 
ATOM     23  C   UNL     1      85.103  52.796  41.331  0.00  0.00    -0.058 A 
ATOM     24  C   UNL     1      85.288  54.092  41.792  0.00  0.00    -0.019 A 
ATOM     25  C   UNL     1      85.715  54.334  43.111  0.00  0.00    +0.131 A 
BRANCH  25  26
ATOM     26  O   UNL     1      85.895  55.651  43.570  0.00  0.00    -0.494 OA
ATOM     27  C   UNL     1      84.978  56.722  43.371  0.00  0.00    +0.079 C 
ENDBRANCH  25  26
BRANCH  19  28
ATOM     28  O   UNL     1      86.539  54.736  45.823  0.00  0.00    -0.494 OA
ATOM     29  C   UNL     1      86.017  55.216  47.058  0.00  0.00    +0.079 C 
ENDBRANCH  19  28
ENDBRANCH   2  15
BRANCH   1  31
ATOM     30  C   UNL     1      88.664  50.221  42.457  0.00  0.00    +0.079 C 
ATOM     31  O   UNL     1      88.226  49.286  43.438  0.00  0.00    -0.494 OA
ENDBRANCH   1  31
TORSDOF 4
ENDMDL
MODEL 5
REMARK VINA RESULT:    -8.417      2.934      7.681
REMARK INTER + INTRA:         -11.117
REMARK INTER:                 -11.065
REMARK INTRA:                  -0.052
REMARK UNBOUND:                -0.731
REMARK  Name = 
REMARK  10 active torsions:
REMARK  status: ('A' for Active; 'I' for Inactive)
REMARK    1  A    between atoms: C_1  and  O_2
REMARK    2  A    between atoms: O_2  and  C_3
REMARK    3  A    between atoms: C_4  and  C_16
REMARK    4  A    between atoms: C_10  and  C_11
REMARK    5  A    between atoms: C_13  and  C_15
REMARK    6  A    between atoms: C_17  and  C_18
REMARK    7  A    between atoms: C_20  and  O_29
REMARK    8  A    between atoms: C_26  and  O_27
REMARK    9  A    between atoms: O_27  and  C_28
REMARK   10  A    between atoms: O_29  and  C_30
REMARK                            x       y       z     vdW  Elec       q    Type
REMARK                         _______ _______ _______ _____ _____    ______ ____
ROOT
ATOM      1  C   UNL     1      86.704  48.651  43.340  0.00  0.00    +0.140 C 
ATOM      2  C   UNL     1      85.509  49.099  43.778  0.00  0.00    +0.072 C 
ATOM      3  C   UNL     1      84.329  48.210  43.746  0.00  0.00    +0.190 C 
ATOM      4  O   UNL     1      83.193  48.641  44.081  0.00  0.00    -0.287 OA
ATOM      5  C   UNL     1      84.475  46.815  43.322  0.00  0.00    -0.010 C 
ATOM      6  C   UNL     1      85.651  46.351  42.881  0.00  0.00    -0.030 C 
ATOM      7  C   UNL     1      86.830  47.269  42.762  0.00  0.00    +0.037 C 
ATOM      8  C   UNL     1      87.940  46.818  42.116  0.00  0.00    +0.012 C 
ATOM      9  C   UNL     1      89.094  47.711  41.742  0.00  0.00    -0.026 C 
ATOM     10  N   UNL     1      88.034  45.430  41.748  0.00  0.00    -0.344 N 
ATOM     11  C   UNL     1      87.160  44.419  42.338  0.00  0.00    +0.022 C 
ATOM     12  C   UNL     1      85.720  44.938  42.353  0.00  0.00    -0.009 C 
ATOM     13  C   UNL     1      87.651  44.057  43.744  0.00  0.00    -0.046 C 
ATOM     14  H   UNL     1      88.705  45.154  41.081  0.00  0.00    +0.000 HD
ENDROOT
BRANCH   2  15
ATOM     15  C   UNL     1      85.358  50.483  44.308  0.00  0.00    +0.000 A 
ATOM     16  C   UNL     1      84.811  51.486  43.480  0.00  0.00    -0.038 A 
ATOM     17  C   UNL     1      84.392  51.196  42.057  0.00  0.00    -0.039 C 
ATOM     18  C   UNL     1      84.675  52.788  43.966  0.00  0.00    -0.016 A 
ATOM     19  C   UNL     1      85.043  53.125  45.278  0.00  0.00    +0.132 A 
ATOM     20  C   UNL     1      85.586  52.130  46.131  0.00  0.00    +0.066 A 
ATOM     21  C   UNL     1      85.756  50.803  45.633  0.00  0.00    -0.003 A 
ATOM     22  C   UNL     1      86.331  49.825  46.472  0.00  0.00    -0.053 A 
ATOM     23  C   UNL     1      86.710  50.131  47.772  0.00  0.00    -0.058 A 
ATOM     24  C   UNL     1      86.531  51.415  48.270  0.00  0.00    -0.019 A 
ATOM     25  C   UNL     1      85.975  52.428  47.468  0.00  0.00    +0.131 A 
BRANCH  25  26
ATOM     26  O   UNL     1      85.802  53.727  47.979  0.00  0.00    -0.494 OA
ATOM     27  C   UNL     1      84.815  54.108  48.932  0.00  0.00    +0.079 C 
ENDBRANCH  25  26
BRANCH  19  28
ATOM     28  O   UNL     1      84.880  54.440  45.750  0.00  0.00    -0.494 OA
ATOM     29  C   UNL     1      85.260  55.618  45.046  0.00  0.00    +0.079 C 
ENDBRANCH  19  28
ENDBRANCH   2  15
BRANCH   1  31
ATOM     30  C   UNL     1      88.062  50.541  42.522  0.00  0.00    +0.079 C 
ATOM     31  O   UNL     1      87.825  49.483  43.444  0.00  0.00    -0.494 OA
ENDBRANCH   1  31
TORSDOF 4
ENDMDL
MODEL 6
REMARK VINA RESULT:    -8.394      1.610      2.878
REMARK INTER + INTRA:         -11.088
REMARK INTER:                 -10.408
REMARK INTRA:                  -0.680
REMARK UNBOUND:                -0.731
REMARK  Name = 
REMARK  10 active torsions:
REMARK  status: ('A' for Active; 'I' for Inactive)
REMARK    1  A    between atoms: C_1  and  O_2
REMARK    2  A    between atoms: O_2  and  C_3
REMARK    3  A    between atoms: C_4  and  C_16
REMARK    4  A    between atoms: C_10  and  C_11
REMARK    5  A    between atoms: C_13  and  C_15
REMARK    6  A    between atoms: C_17  and  C_18
REMARK    7  A    between atoms: C_20  and  O_29
REMARK    8  A    between atoms: C_26  and  O_27
REMARK    9  A    between atoms: O_27  and  C_28
REMARK   10  A    between atoms: O_29  and  C_30
REMARK                            x       y       z     vdW  Elec       q    Type
REMARK                         _______ _______ _______ _____ _____    ______ ____
ROOT
ATOM      1  C   UNL     1      85.823  52.543  44.446  0.00  0.00    +0.140 C 
ATOM      2  C   UNL     1      85.934  51.355  45.075  0.00  0.00    +0.072 C 
ATOM      3  C   UNL     1      86.106  51.307  46.542  0.00  0.00    +0.190 C 
ATOM      4  O   UNL     1      86.287  50.207  47.130  0.00  0.00    -0.287 OA
ATOM      5  C   UNL     1      86.069  52.546  47.323  0.00  0.00    -0.010 C 
ATOM      6  C   UNL     1      85.963  53.737  46.719  0.00  0.00    -0.030 C 
ATOM      7  C   UNL     1      85.935  53.825  45.223  0.00  0.00    +0.037 C 
ATOM      8  C   UNL     1      86.040  55.053  44.645  0.00  0.00    +0.012 C 
ATOM      9  C   UNL     1      86.245  55.251  43.166  0.00  0.00    -0.026 C 
ATOM     10  N   UNL     1      85.970  56.234  45.465  0.00  0.00    -0.344 N 
ATOM     11  C   UNL     1      85.447  56.191  46.827  0.00  0.00    +0.022 C 
ATOM     12  C   UNL     1      86.040  54.986  47.563  0.00  0.00    -0.009 C 
ATOM     13  C   UNL     1      83.915  56.146  46.800  0.00  0.00    -0.046 C 
ATOM     14  H   UNL     1      86.283  57.092  45.097  0.00  0.00    +0.000 HD
ENDROOT
BRANCH   2  15
ATOM     15  C   UNL     1      85.873  50.077  44.312  0.00  0.00    +0.000 A 
ATOM     16  C   UNL     1      84.622  49.467  44.080  0.00  0.00    -0.038 A 
ATOM     17  C   UNL     1      83.339  50.068  44.606  0.00  0.00    -0.039 C 
ATOM     18  C   UNL     1      84.558  48.265  43.373  0.00  0.00    -0.016 A 
ATOM     19  C   UNL     1      85.710  47.654  42.854  0.00  0.00    +0.132 A 
ATOM     20  C   UNL     1      86.977  48.254  43.068  0.00  0.00    +0.066 A 
ATOM     21  C   UNL     1      87.056  49.468  43.814  0.00  0.00    -0.003 A 
ATOM     22  C   UNL     1      88.322  50.043  44.056  0.00  0.00    -0.053 A 
ATOM     23  C   UNL     1      89.479  49.458  43.561  0.00  0.00    -0.058 A 
ATOM     24  C   UNL     1      89.410  48.287  42.818  0.00  0.00    -0.019 A 
ATOM     25  C   UNL     1      88.172  47.668  42.562  0.00  0.00    +0.131 A 
BRANCH  25  26
ATOM     26  O   UNL     1      88.112  46.480  41.813  0.00  0.00    -0.494 OA
ATOM     27  C   UNL     1      88.671  45.232  42.210  0.00  0.00    +0.079 C 
ENDBRANCH  25  26
BRANCH  19  28
ATOM     28  O   UNL     1      85.617  46.451  42.131  0.00  0.00    -0.494 OA
ATOM     29  C   UNL     1      84.837  45.322  42.510  0.00  0.00    +0.079 C 
ENDBRANCH  19  28
ENDBRANCH   2  15
BRANCH   1  31
ATOM     30  C   UNL     1      84.275  52.680  42.530  0.00  0.00    +0.079 C 
ATOM     31  O   UNL     1      85.589  52.566  43.066  0.00  0.00    -0.494 OA
ENDBRANCH   1  31
TORSDOF 4
ENDMDL
MODEL 7
REMARK VINA RESULT:    -8.276      1.832      4.103
REMARK INTER + INTRA:         -10.942
REMARK INTER:                 -10.271
REMARK INTRA:                  -0.671
REMARK UNBOUND:                -0.731
REMARK  Name = 
REMARK  10 active torsions:
REMARK  status: ('A' for Active; 'I' for Inactive)
REMARK    1  A    between atoms: C_1  and  O_2
REMARK    2  A    between atoms: O_2  and  C_3
REMARK    3  A    between atoms: C_4  and  C_16
REMARK    4  A    between atoms: C_10  and  C_11
REMARK    5  A    between atoms: C_13  and  C_15
REMARK    6  A    between atoms: C_17  and  C_18
REMARK    7  A    between atoms: C_20  and  O_29
REMARK    8  A    between atoms: C_26  and  O_27
REMARK    9  A    between atoms: O_27  and  C_28
REMARK   10  A    between atoms: O_29  and  C_30
REMARK                            x       y       z     vdW  Elec       q    Type
REMARK                         _______ _______ _______ _____ _____    ______ ____
ROOT
ATOM      1  C   UNL     1      86.172  52.283  44.454  0.00  0.00    +0.140 C 
ATOM      2  C   UNL     1      86.308  51.075  45.039  0.00  0.00    +0.072 C 
ATOM      3  C   UNL     1      86.332  50.965  46.512  0.00  0.00    +0.190 C 
ATOM      4  O   UNL     1      86.535  49.853  47.069  0.00  0.00    -0.287 OA
ATOM      5  C   UNL     1      86.120  52.157  47.338  0.00  0.00    -0.010 C 
ATOM      6  C   UNL     1      85.985  53.366  46.779  0.00  0.00    -0.030 C 
ATOM      7  C   UNL     1      86.105  53.528  45.293  0.00  0.00    +0.037 C 
ATOM      8  C   UNL     1      86.174  54.789  44.783  0.00  0.00    +0.012 C 
ATOM      9  C   UNL     1      86.514  55.076  43.344  0.00  0.00    -0.026 C 
ATOM     10  N   UNL     1      85.930  55.918  45.641  0.00  0.00    -0.344 N 
ATOM     11  C   UNL     1      85.275  55.768  46.937  0.00  0.00    +0.022 C 
ATOM     12  C   UNL     1      85.880  54.573  47.679  0.00  0.00    -0.009 C 
ATOM     13  C   UNL     1      83.762  55.615  46.746  0.00  0.00    -0.046 C 
ATOM     14  H   UNL     1      86.213  56.814  45.346  0.00  0.00    +0.000 HD
ENDROOT
BRANCH   2  15
ATOM     15  C   UNL     1      86.424  49.837  44.219  0.00  0.00    +0.000 A 
ATOM     16  C   UNL     1      87.697  49.415  43.780  0.00  0.00    -0.038 A 
ATOM     17  C   UNL     1      88.946  50.200  44.102  0.00  0.00    -0.039 C 
ATOM     18  C   UNL     1      87.814  48.260  43.003  0.00  0.00    -0.016 A 
ATOM     19  C   UNL     1      86.694  47.482  42.669  0.00  0.00    +0.132 A 
ATOM     20  C   UNL     1      85.407  47.883  43.107  0.00  0.00    +0.066 A 
ATOM     21  C   UNL     1      85.274  49.077  43.877  0.00  0.00    -0.003 A 
ATOM     22  C   UNL     1      83.987  49.494  44.281  0.00  0.00    -0.053 A 
ATOM     23  C   UNL     1      82.861  48.747  43.960  0.00  0.00    -0.058 A 
ATOM     24  C   UNL     1      82.983  47.575  43.227  0.00  0.00    -0.019 A 
ATOM     25  C   UNL     1      84.243  47.126  42.789  0.00  0.00    +0.131 A 
BRANCH  25  26
ATOM     26  O   UNL     1      84.357  45.939  42.043  0.00  0.00    -0.494 OA
ATOM     27  C   UNL     1      84.267  44.623  42.578  0.00  0.00    +0.079 C 
ENDBRANCH  25  26
BRANCH  19  28
ATOM     28  O   UNL     1      86.840  46.314  41.898  0.00  0.00    -0.494 OA
ATOM     29  C   UNL     1      87.890  45.362  42.040  0.00  0.00    +0.079 C 
ENDBRANCH  19  28
ENDBRANCH   2  15
BRANCH   1  31
ATOM     30  C   UNL     1      84.822  52.392  42.392  0.00  0.00    +0.079 C 
ATOM     31  O   UNL     1      86.079  52.359  43.059  0.00  0.00    -0.494 OA
ENDBRANCH   1  31
TORSDOF 4
ENDMDL
MODEL 8
REMARK VINA RESULT:    -8.207      2.878      7.679
REMARK INTER + INTRA:         -10.857
REMARK INTER:                 -10.156
REMARK INTRA:                  -0.702
REMARK UNBOUND:                -0.731
REMARK  Name = 
REMARK  10 active torsions:
REMARK  status: ('A' for Active; 'I' for Inactive)
REMARK    1  A    between atoms: C_1  and  O_2
REMARK    2  A    between atoms: O_2  and  C_3
REMARK    3  A    between atoms: C_4  and  C_16
REMARK    4  A    between atoms: C_10  and  C_11
REMARK    5  A    between atoms: C_13  and  C_15
REMARK    6  A    between atoms: C_17  and  C_18
REMARK    7  A    between atoms: C_20  and  O_29
REMARK    8  A    between atoms: C_26  and  O_27
REMARK    9  A    between atoms: O_27  and  C_28
REMARK   10  A    between atoms: O_29  and  C_30
REMARK                            x       y       z     vdW  Elec       q    Type
REMARK                         _______ _______ _______ _____ _____    ______ ____
ROOT
ATOM      1  C   UNL     1      84.109  50.186  43.845  0.00  0.00    +0.140 C 
ATOM      2  C   UNL     1      85.285  50.794  44.105  0.00  0.00    +0.072 C 
ATOM      3  C   UNL     1      86.477  49.988  44.438  0.00  0.00    +0.190 C 
ATOM      4  O   UNL     1      87.561  50.548  44.757  0.00  0.00    -0.287 OA
ATOM      5  C   UNL     1      86.405  48.525  44.400  0.00  0.00    -0.010 C 
ATOM      6  C   UNL     1      85.248  47.901  44.147  0.00  0.00    -0.030 C 
ATOM      7  C   UNL     1      83.990  48.691  43.952  0.00  0.00    +0.037 C 
ATOM      8  C   UNL     1      82.805  48.022  43.908  0.00  0.00    +0.012 C 
ATOM      9  C   UNL     1      81.468  48.715  43.938  0.00  0.00    -0.026 C 
ATOM     10  N   UNL     1      82.802  46.584  43.846  0.00  0.00    -0.344 N 
ATOM     11  C   UNL     1      83.997  45.830  43.478  0.00  0.00    +0.022 C 
ATOM     12  C   UNL     1      85.206  46.394  44.229  0.00  0.00    -0.009 C 
ATOM     13  C   UNL     1      84.197  45.874  41.959  0.00  0.00    -0.046 C 
ATOM     14  H   UNL     1      81.972  46.097  44.058  0.00  0.00    +0.000 HD
ENDROOT
BRANCH   2  15
ATOM     15  C   UNL     1      85.406  52.278  44.051  0.00  0.00    +0.000 A 
ATOM     16  C   UNL     1      85.835  52.894  42.856  0.00  0.00    -0.038 A 
ATOM     17  C   UNL     1      86.197  52.085  41.633  0.00  0.00    -0.039 C 
ATOM     18  C   UNL     1      85.960  54.284  42.800  0.00  0.00    -0.016 A 
ATOM     19  C   UNL     1      85.639  55.096  43.899  0.00  0.00    +0.132 A 
ATOM     20  C   UNL     1      85.198  54.499  45.106  0.00  0.00    +0.066 A 
ATOM     21  C   UNL     1      85.094  53.077  45.183  0.00  0.00    -0.003 A 
ATOM     22  C   UNL     1      84.690  52.483  46.397  0.00  0.00    -0.053 A 
ATOM     23  C   UNL     1      84.372  53.261  47.502  0.00  0.00    -0.058 A 
ATOM     24  C   UNL     1      84.452  54.645  47.431  0.00  0.00    -0.019 A 
ATOM     25  C   UNL     1      84.864  55.284  46.247  0.00  0.00    +0.131 A 
BRANCH  25  26
ATOM     26  O   UNL     1      84.946  56.686  46.185  0.00  0.00    -0.494 OA
ATOM     27  C   UNL     1      83.922  57.586  46.594  0.00  0.00    +0.079 C 
ENDBRANCH  25  26
BRANCH  19  28
ATOM     28  O   UNL     1      85.758  56.496  43.812  0.00  0.00    -0.494 OA
ATOM     29  C   UNL     1      84.884  57.351  43.081  0.00  0.00    +0.079 C 
ENDBRANCH  19  28
ENDBRANCH   2  15
BRANCH   1  31
ATOM     30  C   UNL     1      82.701  51.202  42.093  0.00  0.00    +0.079 C 
ATOM     31  O   UNL     1      83.009  50.961  43.462  0.00  0.00    -0.494 OA
ENDBRANCH   1  31
TORSDOF 4
ENDMDL
MODEL 9
REMARK VINA RESULT:    -7.971      1.332      3.679
REMARK INTER + INTRA:         -10.565
REMARK INTER:                  -9.835
REMARK INTRA:                  -0.731
REMARK UNBOUND:                -0.731
REMARK  Name = 
REMARK  10 active torsions:
REMARK  status: ('A' for Active; 'I' for Inactive)
REMARK    1  A    between atoms: C_1  and  O_2
REMARK    2  A    between atoms: O_2  and  C_3
REMARK    3  A    between atoms: C_4  and  C_16
REMARK    4  A    between atoms: C_10  and  C_11
REMARK    5  A    between atoms: C_13  and  C_15
REMARK    6  A    between atoms: C_17  and  C_18
REMARK    7  A    between atoms: C_20  and  O_29
REMARK    8  A    between atoms: C_26  and  O_27
REMARK    9  A    between atoms: O_27  and  C_28
REMARK   10  A    between atoms: O_29  and  C_30
REMARK                            x       y       z     vdW  Elec       q    Type
REMARK                         _______ _______ _______ _____ _____    ______ ____
ROOT
ATOM      1  C   UNL     1      85.779  53.636  43.590  0.00  0.00    +0.140 C 
ATOM      2  C   UNL     1      86.598  52.690  44.094  0.00  0.00    +0.072 C 
ATOM      3  C   UNL     1      87.129  52.825  45.466  0.00  0.00    +0.190 C 
ATOM      4  O   UNL     1      87.955  51.988  45.919  0.00  0.00    -0.287 OA
ATOM      5  C   UNL     1      86.694  53.941  46.311  0.00  0.00    -0.010 C 
ATOM      6  C   UNL     1      85.884  54.892  45.831  0.00  0.00    -0.030 C 
ATOM      7  C   UNL     1      85.448  54.860  44.397  0.00  0.00    +0.037 C 
ATOM      8  C   UNL     1      84.803  55.948  43.892  0.00  0.00    +0.012 C 
ATOM      9  C   UNL     1      84.516  56.125  42.424  0.00  0.00    -0.026 C 
ATOM     10  N   UNL     1      84.379  56.999  44.779  0.00  0.00    -0.344 N 
ATOM     11  C   UNL     1      84.297  56.797  46.223  0.00  0.00    +0.022 C 
ATOM     12  C   UNL     1      85.556  56.075  46.709  0.00  0.00    -0.009 C 
ATOM     13  C   UNL     1      83.022  56.019  46.571  0.00  0.00    -0.046 C 
ATOM     14  H   UNL     1      84.139  57.877  44.402  0.00  0.00    +0.000 HD
ENDROOT
BRANCH   2  15
ATOM     15  C   UNL     1      86.973  51.495  43.288  0.00  0.00    +0.000 A 
ATOM     16  C   UNL     1      88.022  51.595  42.348  0.00  0.00    -0.038 A 
ATOM     17  C   UNL     1      88.762  52.893  42.123  0.00  0.00    -0.039 C 
ATOM     18  C   UNL     1      88.374  50.482  41.582  0.00  0.00    -0.016 A 
ATOM     19  C   UNL     1      87.729  49.246  41.742  0.00  0.00    +0.132 A 
ATOM     20  C   UNL     1      86.679  49.120  42.686  0.00  0.00    +0.066 A 
ATOM     21  C   UNL     1      86.292  50.260  43.454  0.00  0.00    -0.003 A 
ATOM     22  C   UNL     1      85.222  50.142  44.366  0.00  0.00    -0.053 A 
ATOM     23  C   UNL     1      84.562  48.933  44.541  0.00  0.00    -0.058 A 
ATOM     24  C   UNL     1      84.943  47.815  43.812  0.00  0.00    -0.019 A 
ATOM     25  C   UNL     1      85.995  47.886  42.879  0.00  0.00    +0.131 A 
BRANCH  25  26
ATOM     26  O   UNL     1      86.371  46.749  42.142  0.00  0.00    -0.494 OA
ATOM     27  C   UNL     1      86.603  45.456  42.690  0.00  0.00    +0.079 C 
ENDBRANCH  25  26
BRANCH  19  28
ATOM     28  O   UNL     1      88.113  48.134  40.969  0.00  0.00    -0.494 OA
ATOM     29  C   UNL     1      89.353  47.444  41.082  0.00  0.00    +0.079 C 
ENDBRANCH  19  28
ENDBRANCH   2  15
BRANCH   1  31
ATOM     30  C   UNL     1      83.981  52.800  42.123  0.00  0.00    +0.079 C 
ATOM     31  O   UNL     1      85.230  53.455  42.315  0.00  0.00    -0.494 OA
ENDBRANCH   1  31
TORSDOF 4
ENDMDL
