MODEL 1
REMARK VINA RESULT:    -8.852      0.000      0.000
REMARK INTER + INTRA:         -14.412
REMARK INTER:                 -13.419
REMARK INTRA:                  -0.993
REMARK UNBOUND:                -1.161
REMARK  Name = 
REMARK  10 active torsions:
REMARK  status: ('A' for Active; 'I' for Inactive)
REMARK    1  A    between atoms: C_2  and  C_3
REMARK    2  A    between atoms: C_2  and  O_9
REMARK    3  A    between atoms: O_9  and  C_10
REMARK    4  A    between atoms: C_10  and  C_11
REMARK    5  A    between atoms: C_11  and  O_12
REMARK    6  A    between atoms: C_15  and  O_28
REMARK    7  A    between atoms: C_16  and  O_19
REMARK    8  A    between atoms: C_17  and  O_18
REMARK    9  A    between atoms: O_19  and  C_20
REMARK   10  A    between atoms: C_20  and  C_22
REMARK                            x       y       z     vdW  Elec       q    Type
REMARK                         _______ _______ _______ _____ _____    ______ ____
ROOT
ATOM      1  C   UNL     1      85.287  53.790  42.506  0.00  0.00    +0.147 C 
ATOM      2  C   UNL     1      84.308  54.760  41.859  0.00  0.00    -0.048 C 
ATOM      3  C   UNL     1      84.197  56.047  42.225  0.00  0.00    -0.053 C 
ATOM      4  C   UNL     1      84.891  56.611  43.443  0.00  0.00    +0.113 C 
ATOM      5  C   UNL     1      86.116  55.776  43.862  0.00  0.00    +0.161 C 
ATOM      6  C   UNL     1      85.723  54.285  43.915  0.00  0.00    +0.130 C 
ENDROOT
BRANCH   1   7
ATOM      7  O   UNL     1      86.436  53.706  41.693  0.00  0.00    -0.378 OA
ATOM      8  H   UNL     1      87.212  53.990  42.200  0.00  0.00    +0.000 HD
ENDBRANCH   1   7
BRANCH   6   9
ATOM      9  O   UNL     1      86.807  53.511  44.365  0.00  0.00    -0.385 OA
ATOM     10  H   UNL     1      87.079  53.815  45.244  0.00  0.00    +0.000 HD
ENDBRANCH   6   9
BRANCH   4  11
ATOM     11  O   UNL     1      85.257  57.950  43.224  0.00  0.00    -0.384 OA
ATOM     12  H   UNL     1      86.170  58.089  43.523  0.00  0.00    +0.000 HD
ENDBRANCH   4  11
BRANCH   1  13
ATOM     13  C   UNL     1      84.644  52.382  42.616  0.00  0.00    +0.128 C 
BRANCH  13  14
ATOM     14  O   UNL     1      83.359  52.436  43.239  0.00  0.00    -0.458 OA
BRANCH  14  16
ATOM     15  O   UNL     1      81.598  52.517  41.747  0.00  0.00    -0.245 OA
ATOM     16  C   UNL     1      82.191  51.906  42.678  0.00  0.00    +0.339 C 
BRANCH  16  17
ATOM     17  C   UNL     1      81.660  50.619  43.176  0.00  0.00    +0.059 A 
ATOM     18  C   UNL     1      82.530  49.609  43.631  0.00  0.00    -0.048 A 
ATOM     19  C   UNL     1      82.020  48.391  44.092  0.00  0.00    -0.061 A 
ATOM     20  C   UNL     1      80.642  48.168  44.104  0.00  0.00    -0.062 A 
ATOM     21  C   UNL     1      79.770  49.162  43.653  0.00  0.00    -0.061 A 
ATOM     22  C   UNL     1      80.274  50.381  43.191  0.00  0.00    -0.048 A 
ENDBRANCH  16  17
ENDBRANCH  14  16
ENDBRANCH  13  14
ENDBRANCH   1  13
BRANCH   5  23
ATOM     23  O   UNL     1      86.553  56.224  45.147  0.00  0.00    -0.452 OA
BRANCH  23  24
ATOM     24  C   UNL     1      85.693  56.696  46.147  0.00  0.00    +0.340 C 
ATOM     25  O   UNL     1      85.357  57.912  46.173  0.00  0.00    -0.245 OA
BRANCH  24  26
ATOM     26  C   UNL     1      85.174  55.760  47.169  0.00  0.00    +0.059 A 
ATOM     27  C   UNL     1      83.878  55.917  47.695  0.00  0.00    -0.048 A 
ATOM     28  C   UNL     1      83.396  55.029  48.663  0.00  0.00    -0.061 A 
ATOM     29  C   UNL     1      84.199  53.979  49.113  0.00  0.00    -0.062 A 
ATOM     30  C   UNL     1      85.487  53.815  48.598  0.00  0.00    -0.061 A 
ATOM     31  C   UNL     1      85.975  54.700  47.630  0.00  0.00    -0.048 A 
ENDBRANCH  24  26
ENDBRANCH  23  24
ENDBRANCH   5  23
TORSDOF 10
ENDMDL
MODEL 2
REMARK VINA RESULT:    -8.693      4.316      6.211
REMARK INTER + INTRA:         -14.174
REMARK INTER:                 -12.709
REMARK INTRA:                  -1.465
REMARK UNBOUND:                -1.161
REMARK  Name = 
REMARK  10 active torsions:
REMARK  status: ('A' for Active; 'I' for Inactive)
REMARK    1  A    between atoms: C_2  and  C_3
REMARK    2  A    between atoms: C_2  and  O_9
REMARK    3  A    between atoms: O_9  and  C_10
REMARK    4  A    between atoms: C_10  and  C_11
REMARK    5  A    between atoms: C_11  and  O_12
REMARK    6  A    between atoms: C_15  and  O_28
REMARK    7  A    between atoms: C_16  and  O_19
REMARK    8  A    between atoms: C_17  and  O_18
REMARK    9  A    between atoms: O_19  and  C_20
REMARK   10  A    between atoms: C_20  and  C_22
REMARK                            x       y       z     vdW  Elec       q    Type
REMARK                         _______ _______ _______ _____ _____    ______ ____
ROOT
ATOM      1  C   UNL     1      86.221  50.919  43.044  0.00  0.00    +0.147 C 
ATOM      2  C   UNL     1      86.434  49.438  43.326  0.00  0.00    -0.048 C 
ATOM      3  C   UNL     1      86.680  48.951  44.553  0.00  0.00    -0.053 C 
ATOM      4  C   UNL     1      86.962  49.839  45.741  0.00  0.00    +0.113 C 
ATOM      5  C   UNL     1      86.404  51.264  45.557  0.00  0.00    +0.161 C 
ATOM      6  C   UNL     1      86.826  51.801  44.173  0.00  0.00    +0.130 C 
ENDROOT
BRANCH   1   7
ATOM      7  O   UNL     1      84.834  51.167  42.986  0.00  0.00    -0.378 OA
ATOM      8  H   UNL     1      84.681  52.106  42.797  0.00  0.00    +0.000 HD
ENDBRANCH   1   7
BRANCH   6   9
ATOM      9  O   UNL     1      86.388  53.128  44.013  0.00  0.00    -0.385 OA
ATOM     10  H   UNL     1      85.981  53.436  44.837  0.00  0.00    +0.000 HD
ENDBRANCH   6   9
BRANCH   4  11
ATOM     11  O   UNL     1      86.458  49.259  46.918  0.00  0.00    -0.384 OA
ATOM     12  H   UNL     1      87.003  48.493  47.160  0.00  0.00    +0.000 HD
ENDBRANCH   4  11
BRANCH   1  13
ATOM     13  C   UNL     1      86.858  51.297  41.681  0.00  0.00    +0.128 C 
BRANCH  13  14
ATOM     14  O   UNL     1      87.517  50.181  41.078  0.00  0.00    -0.458 OA
BRANCH  14  16
ATOM     15  O   UNL     1      89.595  50.782  40.270  0.00  0.00    -0.245 OA
ATOM     16  C   UNL     1      88.908  50.030  41.014  0.00  0.00    +0.339 C 
BRANCH  16  17
ATOM     17  C   UNL     1      89.568  48.991  41.832  0.00  0.00    +0.059 A 
ATOM     18  C   UNL     1      90.510  49.342  42.818  0.00  0.00    -0.048 A 
ATOM     19  C   UNL     1      91.137  48.352  43.581  0.00  0.00    -0.061 A 
ATOM     20  C   UNL     1      90.832  47.006  43.370  0.00  0.00    -0.062 A 
ATOM     21  C   UNL     1      89.901  46.646  42.392  0.00  0.00    -0.061 A 
ATOM     22  C   UNL     1      89.272  47.631  41.627  0.00  0.00    -0.048 A 
ENDBRANCH  16  17
ENDBRANCH  14  16
ENDBRANCH  13  14
ENDBRANCH   1  13
BRANCH   5  23
ATOM     23  O   UNL     1      86.927  52.094  46.597  0.00  0.00    -0.452 OA
BRANCH  23  24
ATOM     24  C   UNL     1      86.195  52.496  47.721  0.00  0.00    +0.340 C 
ATOM     25  O   UNL     1      86.129  51.749  48.736  0.00  0.00    -0.245 OA
BRANCH  24  26
ATOM     26  C   UNL     1      85.502  53.804  47.716  0.00  0.00    +0.059 A 
ATOM     27  C   UNL     1      84.263  53.964  48.365  0.00  0.00    -0.048 A 
ATOM     28  C   UNL     1      83.615  55.203  48.353  0.00  0.00    -0.061 A 
ATOM     29  C   UNL     1      84.193  56.291  47.695  0.00  0.00    -0.062 A 
ATOM     30  C   UNL     1      85.421  56.142  47.047  0.00  0.00    -0.061 A 
ATOM     31  C   UNL     1      86.075  54.906  47.055  0.00  0.00    -0.048 A 
ENDBRANCH  24  26
ENDBRANCH  23  24
ENDBRANCH   5  23
TORSDOF 10
ENDMDL
MODEL 3
REMARK VINA RESULT:    -8.686      2.650      4.234
REMARK INTER + INTRA:         -14.162
REMARK INTER:                 -13.001
REMARK INTRA:                  -1.162
REMARK UNBOUND:                -1.161
REMARK  Name = 
REMARK  10 active torsions:
REMARK  status: ('A' for Active; 'I' for Inactive)
REMARK    1  A    between atoms: C_2  and  C_3
REMARK    2  A    between atoms: C_2  and  O_9
REMARK    3  A    between atoms: O_9  and  C_10
REMARK    4  A    between atoms: C_10  and  C_11
REMARK    5  A    between atoms: C_11  and  O_12
REMARK    6  A    between atoms: C_15  and  O_28
REMARK    7  A    between atoms: C_16  and  O_19
REMARK    8  A    between atoms: C_17  and  O_18
REMARK    9  A    between atoms: O_19  and  C_20
REMARK   10  A    between atoms: C_20  and  C_22
REMARK                            x       y       z     vdW  Elec       q    Type
REMARK                         _______ _______ _______ _____ _____    ______ ____
ROOT
ATOM      1  C   UNL     1      85.369  53.823  42.528  0.00  0.00    +0.147 C 
ATOM      2  C   UNL     1      84.364  54.763  41.875  0.00  0.00    -0.048 C 
ATOM      3  C   UNL     1      84.215  56.047  42.238  0.00  0.00    -0.053 C 
ATOM      4  C   UNL     1      84.889  56.635  43.455  0.00  0.00    +0.113 C 
ATOM      5  C   UNL     1      86.137  55.837  43.879  0.00  0.00    +0.161 C 
ATOM      6  C   UNL     1      85.787  54.335  43.936  0.00  0.00    +0.130 C 
ENDROOT
BRANCH   1   7
ATOM      7  O   UNL     1      86.522  53.770  41.718  0.00  0.00    -0.378 OA
ATOM      8  H   UNL     1      86.657  52.862  41.408  0.00  0.00    +0.000 HD
ENDBRANCH   1   7
BRANCH   6   9
ATOM      9  O   UNL     1      86.892  53.594  44.391  0.00  0.00    -0.385 OA
ATOM     10  H   UNL     1      86.872  52.709  43.997  0.00  0.00    +0.000 HD
ENDBRANCH   6   9
BRANCH   4  11
ATOM     11  O   UNL     1      85.217  57.983  43.232  0.00  0.00    -0.384 OA
ATOM     12  H   UNL     1      84.509  58.407  42.721  0.00  0.00    +0.000 HD
ENDBRANCH   4  11
BRANCH   1  13
ATOM     13  C   UNL     1      84.766  52.398  42.642  0.00  0.00    +0.128 C 
BRANCH  13  14
ATOM     14  O   UNL     1      85.738  51.390  42.356  0.00  0.00    -0.458 OA
BRANCH  14  16
ATOM     15  O   UNL     1      86.022  50.538  44.484  0.00  0.00    -0.245 OA
ATOM     16  C   UNL     1      86.497  50.731  43.331  0.00  0.00    +0.339 C 
BRANCH  16  17
ATOM     17  C   UNL     1      87.856  50.253  43.000  0.00  0.00    +0.059 A 
ATOM     18  C   UNL     1      88.477  50.628  41.793  0.00  0.00    -0.048 A 
ATOM     19  C   UNL     1      89.759  50.164  41.483  0.00  0.00    -0.061 A 
ATOM     20  C   UNL     1      90.434  49.324  42.371  0.00  0.00    -0.062 A 
ATOM     21  C   UNL     1      89.827  48.944  43.571  0.00  0.00    -0.061 A 
ATOM     22  C   UNL     1      88.546  49.404  43.885  0.00  0.00    -0.048 A 
ENDBRANCH  16  17
ENDBRANCH  14  16
ENDBRANCH  13  14
ENDBRANCH   1  13
BRANCH   5  23
ATOM     23  O   UNL     1      86.558  56.302  45.164  0.00  0.00    -0.452 OA
BRANCH  23  24
ATOM     24  C   UNL     1      85.683  56.760  46.157  0.00  0.00    +0.340 C 
ATOM     25  O   UNL     1      85.328  57.971  46.180  0.00  0.00    -0.245 OA
BRANCH  24  26
ATOM     26  C   UNL     1      85.171  55.817  47.175  0.00  0.00    +0.059 A 
ATOM     27  C   UNL     1      85.983  54.777  47.666  0.00  0.00    -0.048 A 
ATOM     28  C   UNL     1      85.490  53.889  48.627  0.00  0.00    -0.061 A 
ATOM     29  C   UNL     1      84.186  54.028  49.107  0.00  0.00    -0.062 A 
ATOM     30  C   UNL     1      83.371  55.055  48.626  0.00  0.00    -0.061 A 
ATOM     31  C   UNL     1      83.858  55.946  47.664  0.00  0.00    -0.048 A 
ENDBRANCH  24  26
ENDBRANCH  23  24
ENDBRANCH   5  23
TORSDOF 10
ENDMDL
MODEL 4
REMARK VINA RESULT:    -8.574      3.553      7.480
REMARK INTER + INTRA:         -13.995
REMARK INTER:                 -12.131
REMARK INTRA:                  -1.865
REMARK UNBOUND:                -1.161
REMARK  Name = 
REMARK  10 active torsions:
REMARK  status: ('A' for Active; 'I' for Inactive)
REMARK    1  A    between atoms: C_2  and  C_3
REMARK    2  A    between atoms: C_2  and  O_9
REMARK    3  A    between atoms: O_9  and  C_10
REMARK    4  A    between atoms: C_10  and  C_11
REMARK    5  A    between atoms: C_11  and  O_12
REMARK    6  A    between atoms: C_15  and  O_28
REMARK    7  A    between atoms: C_16  and  O_19
REMARK    8  A    between atoms: C_17  and  O_18
REMARK    9  A    between atoms: O_19  and  C_20
REMARK   10  A    between atoms: C_20  and  C_22
REMARK                            x       y       z     vdW  Elec       q    Type
REMARK                         _______ _______ _______ _____ _____    ______ ____
ROOT
ATOM      1  C   UNL     1      85.051  52.179  44.479  0.00  0.00    +0.147 C 
ATOM      2  C   UNL     1      84.336  53.280  43.707  0.00  0.00    -0.048 C 
ATOM      3  C   UNL     1      84.783  53.769  42.539  0.00  0.00    -0.053 C 
ATOM      4  C   UNL     1      86.137  53.415  41.971  0.00  0.00    +0.113 C 
ATOM      5  C   UNL     1      86.678  52.083  42.526  0.00  0.00    +0.161 C 
ATOM      6  C   UNL     1      86.547  52.080  44.063  0.00  0.00    +0.130 C 
ENDROOT
BRANCH   1   7
ATOM      7  O   UNL     1      84.429  50.949  44.182  0.00  0.00    -0.378 OA
ATOM      8  H   UNL     1      84.140  50.526  45.006  0.00  0.00    +0.000 HD
ENDBRANCH   1   7
BRANCH   6   9
ATOM      9  O   UNL     1      87.101  50.903  44.597  0.00  0.00    -0.385 OA
ATOM     10  H   UNL     1      87.012  50.913  45.563  0.00  0.00    +0.000 HD
ENDBRANCH   6   9
BRANCH   4  11
ATOM     11  O   UNL     1      86.088  53.382  40.567  0.00  0.00    -0.384 OA
ATOM     12  H   UNL     1      85.798  52.504  40.274  0.00  0.00    +0.000 HD
ENDBRANCH   4  11
BRANCH   1  13
ATOM     13  C   UNL     1      84.943  52.444  46.003  0.00  0.00    +0.128 C 
BRANCH  13  14
ATOM     14  O   UNL     1      86.056  53.199  46.489  0.00  0.00    -0.458 OA
BRANCH  14  16
ATOM     15  O   UNL     1      85.929  54.517  48.381  0.00  0.00    -0.245 OA
ATOM     16  C   UNL     1      85.946  54.443  47.121  0.00  0.00    +0.339 C 
BRANCH  16  17
ATOM     17  C   UNL     1      85.858  55.673  46.305  0.00  0.00    +0.059 A 
ATOM     18  C   UNL     1      85.026  56.739  46.698  0.00  0.00    -0.048 A 
ATOM     19  C   UNL     1      84.942  57.896  45.916  0.00  0.00    -0.061 A 
ATOM     20  C   UNL     1      85.685  58.001  44.738  0.00  0.00    -0.062 A 
ATOM     21  C   UNL     1      86.512  56.948  44.338  0.00  0.00    -0.061 A 
ATOM     22  C   UNL     1      86.599  55.790  45.116  0.00  0.00    -0.048 A 
ENDBRANCH  16  17
ENDBRANCH  14  16
ENDBRANCH  13  14
ENDBRANCH   1  13
BRANCH   5  23
ATOM     23  O   UNL     1      88.049  51.954  42.140  0.00  0.00    -0.452 OA
BRANCH  23  24
ATOM     24  C   UNL     1      88.515  51.018  41.208  0.00  0.00    +0.340 C 
ATOM     25  O   UNL     1      88.508  51.292  39.976  0.00  0.00    -0.245 OA
BRANCH  24  26
ATOM     26  C   UNL     1      89.021  49.708  41.674  0.00  0.00    +0.059 A 
ATOM     27  C   UNL     1      88.270  48.534  41.475  0.00  0.00    -0.048 A 
ATOM     28  C   UNL     1      88.755  47.301  41.921  0.00  0.00    -0.061 A 
ATOM     29  C   UNL     1      89.991  47.226  42.567  0.00  0.00    -0.062 A 
ATOM     30  C   UNL     1      90.744  48.384  42.771  0.00  0.00    -0.061 A 
ATOM     31  C   UNL     1      90.264  49.621  42.328  0.00  0.00    -0.048 A 
ENDBRANCH  24  26
ENDBRANCH  23  24
ENDBRANCH   5  23
TORSDOF 10
ENDMDL
MODEL 5
REMARK VINA RESULT:    -8.482      4.139      7.585
REMARK INTER + INTRA:         -13.858
REMARK INTER:                 -12.828
REMARK INTRA:                  -1.030
REMARK UNBOUND:                -1.161
REMARK  Name = 
REMARK  10 active torsions:
REMARK  status: ('A' for Active; 'I' for Inactive)
REMARK    1  A    between atoms: C_2  and  C_3
REMARK    2  A    between atoms: C_2  and  O_9
REMARK    3  A    between atoms: O_9  and  C_10
REMARK    4  A    between atoms: C_10  and  C_11
REMARK    5  A    between atoms: C_11  and  O_12
REMARK    6  A    between atoms: C_15  and  O_28
REMARK    7  A    between atoms: C_16  and  O_19
REMARK    8  A    between atoms: C_17  and  O_18
REMARK    9  A    between atoms: O_19  and  C_20
REMARK   10  A    between atoms: C_20  and  C_22
REMARK                            x       y       z     vdW  Elec       q    Type
REMARK                         _______ _______ _______ _____ _____    ______ ____
ROOT
ATOM      1  C   UNL     1      86.514  51.870  44.531  0.00  0.00    +0.147 C 
ATOM      2  C   UNL     1      86.786  53.290  44.053  0.00  0.00    -0.048 C 
ATOM      3  C   UNL     1      87.107  53.590  42.784  0.00  0.00    -0.053 C 
ATOM      4  C   UNL     1      87.420  52.533  41.751  0.00  0.00    +0.113 C 
ATOM      5  C   UNL     1      86.811  51.163  42.106  0.00  0.00    +0.161 C 
ATOM      6  C   UNL     1      87.147  50.821  43.573  0.00  0.00    +0.130 C 
ENDROOT
BRANCH   1   7
ATOM      7  O   UNL     1      85.119  51.664  44.550  0.00  0.00    -0.378 OA
ATOM      8  H   UNL     1      84.931  50.748  44.803  0.00  0.00    +0.000 HD
ENDBRANCH   1   7
BRANCH   6   9
ATOM      9  O   UNL     1      86.663  49.542  43.897  0.00  0.00    -0.385 OA
ATOM     10  H   UNL     1      86.414  49.074  43.085  0.00  0.00    +0.000 HD
ENDBRANCH   6   9
BRANCH   4  11
ATOM     11  O   UNL     1      86.992  52.950  40.478  0.00  0.00    -0.384 OA
ATOM     12  H   UNL     1      86.027  53.055  40.480  0.00  0.00    +0.000 HD
ENDBRANCH   4  11
BRANCH   1  13
ATOM     13  C   UNL     1      87.072  51.677  45.966  0.00  0.00    +0.128 C 
BRANCH  13  14
ATOM     14  O   UNL     1      86.023  51.498  46.921  0.00  0.00    -0.458 OA
BRANCH  14  16
ATOM     15  O   UNL     1      86.270  51.853  49.189  0.00  0.00    -0.245 OA
ATOM     16  C   UNL     1      85.866  52.279  48.072  0.00  0.00    +0.339 C 
BRANCH  16  17
ATOM     17  C   UNL     1      85.233  53.610  47.971  0.00  0.00    +0.059 A 
ATOM     18  C   UNL     1      85.928  54.697  47.407  0.00  0.00    -0.048 A 
ATOM     19  C   UNL     1      85.325  55.956  47.323  0.00  0.00    -0.061 A 
ATOM     20  C   UNL     1      84.025  56.144  47.798  0.00  0.00    -0.062 A 
ATOM     21  C   UNL     1      83.326  55.073  48.361  0.00  0.00    -0.061 A 
ATOM     22  C   UNL     1      83.925  53.813  48.448  0.00  0.00    -0.048 A 
ENDBRANCH  16  17
ENDBRANCH  14  16
ENDBRANCH  13  14
ENDBRANCH   1  13
BRANCH   5  23
ATOM     23  O   UNL     1      87.360  50.181  41.224  0.00  0.00    -0.452 OA
BRANCH  23  24
ATOM     24  C   UNL     1      88.732  49.998  41.011  0.00  0.00    +0.340 C 
ATOM     25  O   UNL     1      89.335  50.682  40.139  0.00  0.00    -0.245 OA
BRANCH  24  26
ATOM     26  C   UNL     1      89.473  49.003  41.817  0.00  0.00    +0.059 A 
ATOM     27  C   UNL     1      89.193  47.628  41.697  0.00  0.00    -0.048 A 
ATOM     28  C   UNL     1      89.897  46.695  42.465  0.00  0.00    -0.061 A 
ATOM     29  C   UNL     1      90.884  47.121  43.356  0.00  0.00    -0.062 A 
ATOM     30  C   UNL     1      91.169  48.482  43.484  0.00  0.00    -0.061 A 
ATOM     31  C   UNL     1      90.468  49.421  42.719  0.00  0.00    -0.048 A 
ENDBRANCH  24  26
ENDBRANCH  23  24
ENDBRANCH   5  23
TORSDOF 10
ENDMDL
MODEL 6
REMARK VINA RESULT:    -8.439      2.340      7.362
REMARK INTER + INTRA:         -13.793
REMARK INTER:                 -12.270
REMARK INTRA:                  -1.522
REMARK UNBOUND:                -1.161
REMARK  Name = 
REMARK  10 active torsions:
REMARK  status: ('A' for Active; 'I' for Inactive)
REMARK    1  A    between atoms: C_2  and  C_3
REMARK    2  A    between atoms: C_2  and  O_9
REMARK    3  A    between atoms: O_9  and  C_10
REMARK    4  A    between atoms: C_10  and  C_11
REMARK    5  A    between atoms: C_11  and  O_12
REMARK    6  A    between atoms: C_15  and  O_28
REMARK    7  A    between atoms: C_16  and  O_19
REMARK    8  A    between atoms: C_17  and  O_18
REMARK    9  A    between atoms: O_19  and  C_20
REMARK   10  A    between atoms: C_20  and  C_22
REMARK                            x       y       z     vdW  Elec       q    Type
REMARK                         _______ _______ _______ _____ _____    ______ ____
ROOT
ATOM      1  C   UNL     1      86.631  52.018  43.493  0.00  0.00    +0.147 C 
ATOM      2  C   UNL     1      87.534  51.611  44.649  0.00  0.00    -0.048 C 
ATOM      3  C   UNL     1      87.245  50.604  45.489  0.00  0.00    -0.053 C 
ATOM      4  C   UNL     1      85.907  49.904  45.492  0.00  0.00    +0.113 C 
ATOM      5  C   UNL     1      85.164  50.046  44.149  0.00  0.00    +0.161 C 
ATOM      6  C   UNL     1      85.172  51.527  43.718  0.00  0.00    +0.130 C 
ENDROOT
BRANCH   1   7
ATOM      7  O   UNL     1      87.120  51.421  42.312  0.00  0.00    -0.378 OA
ATOM      8  H   UNL     1      86.399  50.953  41.865  0.00  0.00    +0.000 HD
ENDBRANCH   1   7
BRANCH   6   9
ATOM      9  O   UNL     1      84.437  51.692  42.530  0.00  0.00    -0.385 OA
ATOM     10  H   UNL     1      84.453  52.625  42.266  0.00  0.00    +0.000 HD
ENDBRANCH   6   9
BRANCH   4  11
ATOM     11  O   UNL     1      86.063  48.548  45.830  0.00  0.00    -0.384 OA
ATOM     12  H   UNL     1      86.585  48.477  46.645  0.00  0.00    +0.000 HD
ENDBRANCH   4  11
BRANCH   1  13
ATOM     13  C   UNL     1      86.649  53.560  43.323  0.00  0.00    +0.128 C 
BRANCH  13  14
ATOM     14  O   UNL     1      85.662  54.193  44.141  0.00  0.00    -0.458 OA
BRANCH  14  16
ATOM     15  O   UNL     1      86.715  56.009  45.101  0.00  0.00    -0.245 OA
ATOM     16  C   UNL     1      85.957  55.010  45.238  0.00  0.00    +0.339 C 
BRANCH  16  17
ATOM     17  C   UNL     1      85.368  54.702  46.559  0.00  0.00    +0.059 A 
ATOM     18  C   UNL     1      84.388  55.541  47.123  0.00  0.00    -0.048 A 
ATOM     19  C   UNL     1      83.842  55.246  48.377  0.00  0.00    -0.061 A 
ATOM     20  C   UNL     1      84.266  54.115  49.078  0.00  0.00    -0.062 A 
ATOM     21  C   UNL     1      85.240  53.277  48.528  0.00  0.00    -0.061 A 
ATOM     22  C   UNL     1      85.789  53.567  47.276  0.00  0.00    -0.048 A 
ENDBRANCH  16  17
ENDBRANCH  14  16
ENDBRANCH  13  14
ENDBRANCH   1  13
BRANCH   5  23
ATOM     23  O   UNL     1      83.823  49.581  44.320  0.00  0.00    -0.452 OA
BRANCH  23  24
ATOM     24  C   UNL     1      83.392  48.292  43.981  0.00  0.00    +0.340 C 
ATOM     25  O   UNL     1      84.224  47.426  43.593  0.00  0.00    -0.245 OA
BRANCH  24  26
ATOM     26  C   UNL     1      81.956  47.949  44.083  0.00  0.00    +0.059 A 
ATOM     27  C   UNL     1      80.978  48.959  44.142  0.00  0.00    -0.048 A 
ATOM     28  C   UNL     1      79.623  48.626  44.240  0.00  0.00    -0.061 A 
ATOM     29  C   UNL     1      79.232  47.285  44.281  0.00  0.00    -0.062 A 
ATOM     30  C   UNL     1      80.195  46.275  44.224  0.00  0.00    -0.061 A 
ATOM     31  C   UNL     1      81.551  46.602  44.126  0.00  0.00    -0.048 A 
ENDBRANCH  24  26
ENDBRANCH  23  24
ENDBRANCH   5  23
TORSDOF 10
ENDMDL
MODEL 7
REMARK VINA RESULT:    -8.430      3.622      7.525
REMARK INTER + INTRA:         -13.780
REMARK INTER:                 -12.530
REMARK INTRA:                  -1.250
REMARK UNBOUND:                -1.161
REMARK  Name = 
REMARK  10 active torsions:
REMARK  status: ('A' for Active; 'I' for Inactive)
REMARK    1  A    between atoms: C_2  and  C_3
REMARK    2  A    between atoms: C_2  and  O_9
REMARK    3  A    between atoms: O_9  and  C_10
REMARK    4  A    between atoms: C_10  and  C_11
REMARK    5  A    between atoms: C_11  and  O_12
REMARK    6  A    between atoms: C_15  and  O_28
REMARK    7  A    between atoms: C_16  and  O_19
REMARK    8  A    between atoms: C_17  and  O_18
REMARK    9  A    between atoms: O_19  and  C_20
REMARK   10  A    between atoms: C_20  and  C_22
REMARK                            x       y       z     vdW  Elec       q    Type
REMARK                         _______ _______ _______ _____ _____    ______ ____
ROOT
ATOM      1  C   UNL     1      85.871  53.677  43.267  0.00  0.00    +0.147 C 
ATOM      2  C   UNL     1      84.922  52.970  44.225  0.00  0.00    -0.048 C 
ATOM      3  C   UNL     1      84.774  51.636  44.264  0.00  0.00    -0.053 C 
ATOM      4  C   UNL     1      85.387  50.718  43.233  0.00  0.00    +0.113 C 
ATOM      5  C   UNL     1      86.594  51.356  42.519  0.00  0.00    +0.161 C 
ATOM      6  C   UNL     1      86.215  52.775  42.047  0.00  0.00    +0.130 C 
ENDROOT
BRANCH   1   7
ATOM      7  O   UNL     1      87.068  53.964  43.955  0.00  0.00    -0.378 OA
ATOM      8  H   UNL     1      87.760  53.350  43.668  0.00  0.00    +0.000 HD
ENDBRANCH   1   7
BRANCH   6   9
ATOM      9  O   UNL     1      87.279  53.349  41.330  0.00  0.00    -0.385 OA
ATOM     10  H   UNL     1      86.997  54.199  40.957  0.00  0.00    +0.000 HD
ENDBRANCH   6   9
BRANCH   4  11
ATOM     11  O   UNL     1      85.750  49.494  43.821  0.00  0.00    -0.384 OA
ATOM     12  H   UNL     1      86.668  49.544  44.132  0.00  0.00    +0.000 HD
ENDBRANCH   4  11
BRANCH   1  13
ATOM     13  C   UNL     1      85.239  55.007  42.778  0.00  0.00    +0.128 C 
BRANCH  13  14
ATOM     14  O   UNL     1      86.049  56.134  43.120  0.00  0.00    -0.458 OA
BRANCH  14  16
ATOM     15  O   UNL     1      85.711  58.317  43.791  0.00  0.00    -0.245 OA
ATOM     16  C   UNL     1      85.701  57.090  44.082  0.00  0.00    +0.339 C 
BRANCH  16  17
ATOM     17  C   UNL     1      85.313  56.652  45.439  0.00  0.00    +0.059 A 
ATOM     18  C   UNL     1      86.221  55.952  46.257  0.00  0.00    -0.048 A 
ATOM     19  C   UNL     1      85.842  55.534  47.537  0.00  0.00    -0.061 A 
ATOM     20  C   UNL     1      84.559  55.810  48.014  0.00  0.00    -0.062 A 
ATOM     21  C   UNL     1      83.649  56.502  47.210  0.00  0.00    -0.061 A 
ATOM     22  C   UNL     1      84.022  56.922  45.930  0.00  0.00    -0.048 A 
ENDBRANCH  16  17
ENDBRANCH  14  16
ENDBRANCH  13  14
ENDBRANCH   1  13
BRANCH   5  23
ATOM     23  O   UNL     1      86.948  50.535  41.404  0.00  0.00    -0.452 OA
BRANCH  23  24
ATOM     24  C   UNL     1      88.266  50.287  41.000  0.00  0.00    +0.340 C 
ATOM     25  O   UNL     1      88.766  50.931  40.037  0.00  0.00    -0.245 OA
BRANCH  24  26
ATOM     26  C   UNL     1      89.072  49.271  41.712  0.00  0.00    +0.059 A 
ATOM     27  C   UNL     1      88.679  47.919  41.721  0.00  0.00    -0.048 A 
ATOM     28  C   UNL     1      89.445  46.965  42.398  0.00  0.00    -0.061 A 
ATOM     29  C   UNL     1      90.608  47.348  43.069  0.00  0.00    -0.062 A 
ATOM     30  C   UNL     1      91.007  48.687  43.067  0.00  0.00    -0.061 A 
ATOM     31  C   UNL     1      90.244  49.646  42.393  0.00  0.00    -0.048 A 
ENDBRANCH  24  26
ENDBRANCH  23  24
ENDBRANCH   5  23
TORSDOF 10
ENDMDL
MODEL 8
REMARK VINA RESULT:    -8.350      1.145      6.776
REMARK INTER + INTRA:         -13.660
REMARK INTER:                 -12.081
REMARK INTRA:                  -1.580
REMARK UNBOUND:                -1.161
REMARK  Name = 
REMARK  10 active torsions:
REMARK  status: ('A' for Active; 'I' for Inactive)
REMARK    1  A    between atoms: C_2  and  C_3
REMARK    2  A    between atoms: C_2  and  O_9
REMARK    3  A    between atoms: O_9  and  C_10
REMARK    4  A    between atoms: C_10  and  C_11
REMARK    5  A    between atoms: C_11  and  O_12
REMARK    6  A    between atoms: C_15  and  O_28
REMARK    7  A    between atoms: C_16  and  O_19
REMARK    8  A    between atoms: C_17  and  O_18
REMARK    9  A    between atoms: O_19  and  C_20
REMARK   10  A    between atoms: C_20  and  C_22
REMARK                            x       y       z     vdW  Elec       q    Type
REMARK                         _______ _______ _______ _____ _____    ______ ____
ROOT
ATOM      1  C   UNL     1      85.985  54.383  43.488  0.00  0.00    +0.147 C 
ATOM      2  C   UNL     1      86.953  53.615  44.378  0.00  0.00    -0.048 C 
ATOM      3  C   UNL     1      86.655  52.432  44.939  0.00  0.00    -0.053 C 
ATOM      4  C   UNL     1      85.266  51.839  44.903  0.00  0.00    +0.113 C 
ATOM      5  C   UNL     1      84.417  52.397  43.744  0.00  0.00    +0.161 C 
ATOM      6  C   UNL     1      84.516  53.937  43.735  0.00  0.00    +0.130 C 
ENDROOT
BRANCH   1   7
ATOM      7  O   UNL     1      86.307  54.114  42.142  0.00  0.00    -0.378 OA
ATOM      8  H   UNL     1      86.698  54.904  41.738  0.00  0.00    +0.000 HD
ENDBRANCH   1   7
BRANCH   6   9
ATOM      9  O   UNL     1      83.691  54.471  42.729  0.00  0.00    -0.385 OA
ATOM     10  H   UNL     1      83.288  55.295  43.045  0.00  0.00    +0.000 HD
ENDBRANCH   6   9
BRANCH   4  11
ATOM     11  O   UNL     1      85.332  50.437  44.838  0.00  0.00    -0.384 OA
ATOM     12  H   UNL     1      84.671  50.111  44.206  0.00  0.00    +0.000 HD
ENDBRANCH   4  11
BRANCH   1  13
ATOM     13  C   UNL     1      86.124  55.907  43.744  0.00  0.00    +0.128 C 
BRANCH  13  14
ATOM     14  O   UNL     1      86.557  56.181  45.078  0.00  0.00    -0.458 OA
BRANCH  14  16
ATOM     15  O   UNL     1      85.445  57.930  46.096  0.00  0.00    -0.245 OA
ATOM     16  C   UNL     1      85.731  56.701  46.082  0.00  0.00    +0.339 C 
BRANCH  16  17
ATOM     17  C   UNL     1      85.188  55.801  47.121  0.00  0.00    +0.059 A 
ATOM     18  C   UNL     1      83.870  55.958  47.592  0.00  0.00    -0.048 A 
ATOM     19  C   UNL     1      83.367  55.108  48.581  0.00  0.00    -0.061 A 
ATOM     20  C   UNL     1      84.169  54.094  49.109  0.00  0.00    -0.062 A 
ATOM     21  C   UNL     1      85.479  53.930  48.651  0.00  0.00    -0.061 A 
ATOM     22  C   UNL     1      85.987  54.778  47.662  0.00  0.00    -0.048 A 
ENDBRANCH  16  17
ENDBRANCH  14  16
ENDBRANCH  13  14
ENDBRANCH   1  13
BRANCH   5  23
ATOM     23  O   UNL     1      83.062  51.983  43.934  0.00  0.00    -0.452 OA
BRANCH  23  24
ATOM     24  C   UNL     1      82.309  51.302  42.969  0.00  0.00    +0.340 C 
ATOM     25  O   UNL     1      82.232  51.750  41.792  0.00  0.00    -0.245 OA
BRANCH  24  26
ATOM     26  C   UNL     1      81.608  50.051  43.334  0.00  0.00    +0.059 A 
ATOM     27  C   UNL     1      80.207  50.026  43.474  0.00  0.00    -0.048 A 
ATOM     28  C   UNL     1      79.553  48.841  43.822  0.00  0.00    -0.061 A 
ATOM     29  C   UNL     1      80.286  47.671  44.032  0.00  0.00    -0.062 A 
ATOM     30  C   UNL     1      81.676  47.684  43.897  0.00  0.00    -0.061 A 
ATOM     31  C   UNL     1      82.336  48.868  43.550  0.00  0.00    -0.048 A 
ENDBRANCH  24  26
ENDBRANCH  23  24
ENDBRANCH   5  23
TORSDOF 10
ENDMDL
MODEL 9
REMARK VINA RESULT:    -8.239      4.138      8.406
REMARK INTER + INTRA:         -13.493
REMARK INTER:                 -12.332
REMARK INTRA:                  -1.161
REMARK UNBOUND:                -1.161
REMARK  Name = 
REMARK  10 active torsions:
REMARK  status: ('A' for Active; 'I' for Inactive)
REMARK    1  A    between atoms: C_2  and  C_3
REMARK    2  A    between atoms: C_2  and  O_9
REMARK    3  A    between atoms: O_9  and  C_10
REMARK    4  A    between atoms: C_10  and  C_11
REMARK    5  A    between atoms: C_11  and  O_12
REMARK    6  A    between atoms: C_15  and  O_28
REMARK    7  A    between atoms: C_16  and  O_19
REMARK    8  A    between atoms: C_17  and  O_18
REMARK    9  A    between atoms: O_19  and  C_20
REMARK   10  A    between atoms: C_20  and  C_22
REMARK                            x       y       z     vdW  Elec       q    Type
REMARK                         _______ _______ _______ _____ _____    ______ ____
ROOT
ATOM      1  C   UNL     1      86.777  51.885  43.218  0.00  0.00    +0.147 C 
ATOM      2  C   UNL     1      86.218  51.996  44.630  0.00  0.00    -0.048 C 
ATOM      3  C   UNL     1      85.815  50.936  45.348  0.00  0.00    -0.053 C 
ATOM      4  C   UNL     1      85.696  49.550  44.758  0.00  0.00    +0.113 C 
ATOM      5  C   UNL     1      86.572  49.365  43.504  0.00  0.00    +0.161 C 
ATOM      6  C   UNL     1      86.344  50.551  42.544  0.00  0.00    +0.130 C 
ENDROOT
BRANCH   1   7
ATOM      7  O   UNL     1      88.185  51.904  43.293  0.00  0.00    -0.378 OA
ATOM      8  H   UNL     1      88.557  51.547  42.472  0.00  0.00    +0.000 HD
ENDBRANCH   1   7
BRANCH   6   9
ATOM      9  O   UNL     1      87.081  50.367  41.360  0.00  0.00    -0.385 OA
ATOM     10  H   UNL     1      87.091  49.426  41.129  0.00  0.00    +0.000 HD
ENDBRANCH   6   9
BRANCH   4  11
ATOM     11  O   UNL     1      86.003  48.577  45.725  0.00  0.00    -0.384 OA
ATOM     12  H   UNL     1      86.942  48.643  45.962  0.00  0.00    +0.000 HD
ENDBRANCH   4  11
BRANCH   1  13
ATOM     13  C   UNL     1      86.302  53.088  42.362  0.00  0.00    +0.128 C 
BRANCH  13  14
ATOM     14  O   UNL     1      85.330  53.876  43.052  0.00  0.00    -0.458 OA
BRANCH  14  16
ATOM     15  O   UNL     1      84.990  55.717  41.700  0.00  0.00    -0.245 OA
ATOM     16  C   UNL     1      85.155  55.252  42.862  0.00  0.00    +0.339 C 
BRANCH  16  17
ATOM     17  C   UNL     1      85.154  56.157  44.030  0.00  0.00    +0.059 A 
ATOM     18  C   UNL     1      85.205  57.554  43.858  0.00  0.00    -0.048 A 
ATOM     19  C   UNL     1      85.213  58.404  44.969  0.00  0.00    -0.061 A 
ATOM     20  C   UNL     1      85.170  57.871  46.259  0.00  0.00    -0.062 A 
ATOM     21  C   UNL     1      85.122  56.486  46.442  0.00  0.00    -0.061 A 
ATOM     22  C   UNL     1      85.114  55.633  45.335  0.00  0.00    -0.048 A 
ENDBRANCH  16  17
ENDBRANCH  14  16
ENDBRANCH  13  14
ENDBRANCH   1  13
BRANCH   5  23
ATOM     23  O   UNL     1      86.211  48.134  42.875  0.00  0.00    -0.452 OA
BRANCH  23  24
ATOM     24  C   UNL     1      87.136  47.193  42.405  0.00  0.00    +0.340 C 
ATOM     25  O   UNL     1      87.944  47.502  41.485  0.00  0.00    -0.245 OA
BRANCH  24  26
ATOM     26  C   UNL     1      87.167  45.837  42.995  0.00  0.00    +0.059 A 
ATOM     27  C   UNL     1      88.246  44.968  42.745  0.00  0.00    -0.048 A 
ATOM     28  C   UNL     1      88.266  43.687  43.305  0.00  0.00    -0.061 A 
ATOM     29  C   UNL     1      87.213  43.260  44.118  0.00  0.00    -0.062 A 
ATOM     30  C   UNL     1      86.137  44.114  44.372  0.00  0.00    -0.061 A 
ATOM     31  C   UNL     1      86.111  45.396  43.814  0.00  0.00    -0.048 A 
ENDBRANCH  24  26
ENDBRANCH  23  24
ENDBRANCH   5  23
TORSDOF 10
ENDMDL
