MODEL 1
REMARK VINA RESULT:    -8.964      0.000      0.000
REMARK INTER + INTRA:         -14.618
REMARK INTER:                 -13.325
REMARK INTRA:                  -1.292
REMARK UNBOUND:                -1.200
REMARK  Name = 
REMARK  10 active torsions:
REMARK  status: ('A' for Active; 'I' for Inactive)
REMARK    1  A    between atoms: C_2  and  C_3
REMARK    2  A    between atoms: C_2  and  O_9
REMARK    3  A    between atoms: O_9  and  C_10
REMARK    4  A    between atoms: C_10  and  C_11
REMARK    5  A    between atoms: C_11  and  O_12
REMARK    6  A    between atoms: C_15  and  O_28
REMARK    7  A    between atoms: C_16  and  O_19
REMARK    8  A    between atoms: C_17  and  O_18
REMARK    9  A    between atoms: O_19  and  C_20
REMARK   10  A    between atoms: C_20  and  C_22
REMARK                            x       y       z     vdW  Elec       q    Type
REMARK                         _______ _______ _______ _____ _____    ______ ____
ROOT
ATOM      1  C   UNL     1      85.110  45.369  43.823  0.00  0.00    +0.147 C 
ATOM      2  C   UNL     1      85.641  43.945  43.907  0.00  0.00    -0.048 C 
ATOM      3  C   UNL     1      86.831  43.573  43.407  0.00  0.00    -0.053 C 
ATOM      4  C   UNL     1      87.672  44.483  42.543  0.00  0.00    +0.113 C 
ATOM      5  C   UNL     1      87.338  45.972  42.756  0.00  0.00    +0.161 C 
ATOM      6  C   UNL     1      85.809  46.167  42.685  0.00  0.00    +0.130 C 
ENDROOT
BRANCH   1   7
ATOM      7  O   UNL     1      85.378  46.019  45.045  0.00  0.00    -0.378 OA
ATOM      8  H   UNL     1      85.447  46.974  44.896  0.00  0.00    +0.000 HD
ENDBRANCH   1   7
BRANCH   6   9
ATOM      9  O   UNL     1      85.486  47.530  42.805  0.00  0.00    -0.385 OA
ATOM     10  H   UNL     1      84.573  47.619  43.120  0.00  0.00    +0.000 HD
ENDBRANCH   6   9
BRANCH   4  11
ATOM     11  O   UNL     1      89.040  44.246  42.767  0.00  0.00    -0.384 OA
ATOM     12  H   UNL     1      89.405  44.957  43.317  0.00  0.00    +0.000 HD
ENDBRANCH   4  11
BRANCH   1  13
ATOM     13  C   UNL     1      83.576  45.351  43.588  0.00  0.00    +0.128 C 
BRANCH  13  14
ATOM     14  O   UNL     1      82.915  46.376  44.333  0.00  0.00    -0.458 OA
BRANCH  14  16
ATOM     15  O   UNL     1      80.644  45.970  44.422  0.00  0.00    -0.245 OA
ATOM     16  C   UNL     1      81.584  46.760  44.131  0.00  0.00    +0.339 C 
BRANCH  16  17
ATOM     17  C   UNL     1      81.284  48.100  43.585  0.00  0.00    +0.059 A 
ATOM     18  C   UNL     1      82.280  48.849  42.928  0.00  0.00    -0.048 A 
ATOM     19  C   UNL     1      81.990  50.120  42.421  0.00  0.00    -0.061 A 
ATOM     20  C   UNL     1      80.708  50.655  42.563  0.00  0.00    -0.062 A 
ATOM     21  C   UNL     1      79.713  49.922  43.215  0.00  0.00    -0.061 A 
ATOM     22  C   UNL     1      79.997  48.652  43.724  0.00  0.00    -0.048 A 
ENDBRANCH  16  17
ENDBRANCH  14  16
ENDBRANCH  13  14
ENDBRANCH   1  13
BRANCH   5  23
ATOM     23  O   UNL     1      87.988  46.733  41.734  0.00  0.00    -0.452 OA
BRANCH  23  24
ATOM     24  C   UNL     1      89.153  47.484  41.938  0.00  0.00    +0.340 C 
ATOM     25  O   UNL     1      90.274  46.909  42.011  0.00  0.00    -0.245 OA
BRANCH  24  26
ATOM     26  C   UNL     1      89.064  48.956  42.063  0.00  0.00    +0.059 A 
ATOM     27  C   UNL     1      88.292  49.546  43.081  0.00  0.00    -0.048 A 
ATOM     28  C   UNL     1      88.212  50.938  43.190  0.00  0.00    -0.061 A 
ATOM     29  C   UNL     1      88.899  51.753  42.287  0.00  0.00    -0.062 A 
ATOM     30  C   UNL     1      89.667  51.178  41.273  0.00  0.00    -0.061 A 
ATOM     31  C   UNL     1      89.751  49.786  41.158  0.00  0.00    -0.048 A 
ENDBRANCH  24  26
ENDBRANCH  23  24
ENDBRANCH   5  23
TORSDOF 10
ENDMDL
MODEL 2
REMARK VINA RESULT:    -8.710      4.300      7.989
REMARK INTER + INTRA:         -14.238
REMARK INTER:                 -12.764
REMARK INTRA:                  -1.474
REMARK UNBOUND:                -1.200
REMARK  Name = 
REMARK  10 active torsions:
REMARK  status: ('A' for Active; 'I' for Inactive)
REMARK    1  A    between atoms: C_2  and  C_3
REMARK    2  A    between atoms: C_2  and  O_9
REMARK    3  A    between atoms: O_9  and  C_10
REMARK    4  A    between atoms: C_10  and  C_11
REMARK    5  A    between atoms: C_11  and  O_12
REMARK    6  A    between atoms: C_15  and  O_28
REMARK    7  A    between atoms: C_16  and  O_19
REMARK    8  A    between atoms: C_17  and  O_18
REMARK    9  A    between atoms: O_19  and  C_20
REMARK   10  A    between atoms: C_20  and  C_22
REMARK                            x       y       z     vdW  Elec       q    Type
REMARK                         _______ _______ _______ _____ _____    ______ ____
ROOT
ATOM      1  C   UNL     1      86.235  50.889  42.665  0.00  0.00    +0.147 C 
ATOM      2  C   UNL     1      86.302  49.395  42.950  0.00  0.00    -0.048 C 
ATOM      3  C   UNL     1      86.463  48.888  44.184  0.00  0.00    -0.053 C 
ATOM      4  C   UNL     1      86.787  49.748  45.383  0.00  0.00    +0.113 C 
ATOM      5  C   UNL     1      86.369  51.217  45.184  0.00  0.00    +0.161 C 
ATOM      6  C   UNL     1      86.882  51.712  43.815  0.00  0.00    +0.130 C 
ENDROOT
BRANCH   1   7
ATOM      7  O   UNL     1      84.880  51.263  42.563  0.00  0.00    -0.378 OA
ATOM      8  H   UNL     1      84.818  52.222  42.431  0.00  0.00    +0.000 HD
ENDBRANCH   1   7
BRANCH   6   9
ATOM      9  O   UNL     1      86.574  53.073  43.643  0.00  0.00    -0.385 OA
ATOM     10  H   UNL     1      86.167  53.418  44.453  0.00  0.00    +0.000 HD
ENDBRANCH   6   9
BRANCH   4  11
ATOM     11  O   UNL     1      86.194  49.217  46.541  0.00  0.00    -0.384 OA
ATOM     12  H   UNL     1      85.383  48.741  46.300  0.00  0.00    +0.000 HD
ENDBRANCH   4  11
BRANCH   1  13
ATOM     13  C   UNL     1      86.948  51.205  41.324  0.00  0.00    +0.128 C 
BRANCH  13  14
ATOM     14  O   UNL     1      87.753  50.110  40.882  0.00  0.00    -0.458 OA
BRANCH  14  16
ATOM     15  O   UNL     1      89.852  50.954  40.420  0.00  0.00    -0.245 OA
ATOM     16  C   UNL     1      89.149  50.070  40.981  0.00  0.00    +0.339 C 
BRANCH  16  17
ATOM     17  C   UNL     1      89.796  48.990  41.757  0.00  0.00    +0.059 A 
ATOM     18  C   UNL     1      90.694  49.292  42.798  0.00  0.00    -0.048 A 
ATOM     19  C   UNL     1      91.308  48.264  43.522  0.00  0.00    -0.061 A 
ATOM     20  C   UNL     1      91.033  46.930  43.215  0.00  0.00    -0.062 A 
ATOM     21  C   UNL     1      90.145  46.619  42.182  0.00  0.00    -0.061 A 
ATOM     22  C   UNL     1      89.528  47.642  41.456  0.00  0.00    -0.048 A 
ENDBRANCH  16  17
ENDBRANCH  14  16
ENDBRANCH  13  14
ENDBRANCH   1  13
BRANCH   5  23
ATOM     23  O   UNL     1      86.932  51.997  46.242  0.00  0.00    -0.452 OA
BRANCH  23  24
ATOM     24  C   UNL     1      86.192  52.515  47.312  0.00  0.00    +0.340 C 
ATOM     25  O   UNL     1      86.049  51.841  48.370  0.00  0.00    -0.245 OA
BRANCH  24  26
ATOM     26  C   UNL     1      85.584  53.859  47.200  0.00  0.00    +0.059 A 
ATOM     27  C   UNL     1      86.321  54.942  46.685  0.00  0.00    -0.048 A 
ATOM     28  C   UNL     1      85.739  56.209  46.585  0.00  0.00    -0.061 A 
ATOM     29  C   UNL     1      84.419  56.409  46.995  0.00  0.00    -0.062 A 
ATOM     30  C   UNL     1      83.678  55.342  47.509  0.00  0.00    -0.061 A 
ATOM     31  C   UNL     1      84.255  54.072  47.612  0.00  0.00    -0.048 A 
ENDBRANCH  24  26
ENDBRANCH  23  24
ENDBRANCH   5  23
TORSDOF 10
ENDMDL
MODEL 3
REMARK VINA RESULT:    -8.706      5.770      8.381
REMARK INTER + INTRA:         -14.232
REMARK INTER:                 -13.165
REMARK INTRA:                  -1.067
REMARK UNBOUND:                -1.200
REMARK  Name = 
REMARK  10 active torsions:
REMARK  status: ('A' for Active; 'I' for Inactive)
REMARK    1  A    between atoms: C_2  and  C_3
REMARK    2  A    between atoms: C_2  and  O_9
REMARK    3  A    between atoms: O_9  and  C_10
REMARK    4  A    between atoms: C_10  and  C_11
REMARK    5  A    between atoms: C_11  and  O_12
REMARK    6  A    between atoms: C_15  and  O_28
REMARK    7  A    between atoms: C_16  and  O_19
REMARK    8  A    between atoms: C_17  and  O_18
REMARK    9  A    between atoms: O_19  and  C_20
REMARK   10  A    between atoms: C_20  and  C_22
REMARK                            x       y       z     vdW  Elec       q    Type
REMARK                         _______ _______ _______ _____ _____    ______ ____
ROOT
ATOM      1  C   UNL     1      85.309  53.635  42.200  0.00  0.00    +0.147 C 
ATOM      2  C   UNL     1      84.278  54.607  41.644  0.00  0.00    -0.048 C 
ATOM      3  C   UNL     1      84.155  55.874  42.072  0.00  0.00    -0.053 C 
ATOM      4  C   UNL     1      84.895  56.402  43.279  0.00  0.00    +0.113 C 
ATOM      5  C   UNL     1      86.158  55.581  43.602  0.00  0.00    +0.161 C 
ATOM      6  C   UNL     1      85.802  54.079  43.607  0.00  0.00    +0.130 C 
ENDROOT
BRANCH   1   7
ATOM      7  O   UNL     1      86.419  53.615  41.331  0.00  0.00    -0.378 OA
ATOM      8  H   UNL     1      86.523  52.726  40.959  0.00  0.00    +0.000 HD
ENDBRANCH   1   7
BRANCH   6   9
ATOM      9  O   UNL     1      86.924  53.314  43.971  0.00  0.00    -0.385 OA
ATOM     10  H   UNL     1      87.333  52.941  43.174  0.00  0.00    +0.000 HD
ENDBRANCH   6   9
BRANCH   4  11
ATOM     11  O   UNL     1      85.218  57.758  43.101  0.00  0.00    -0.384 OA
ATOM     12  H   UNL     1      85.795  57.854  42.326  0.00  0.00    +0.000 HD
ENDBRANCH   4  11
BRANCH   1  13
ATOM     13  C   UNL     1      84.705  52.208  42.279  0.00  0.00    +0.128 C 
BRANCH  13  14
ATOM     14  O   UNL     1      83.420  52.212  42.904  0.00  0.00    -0.458 OA
BRANCH  14  16
ATOM     15  O   UNL     1      81.681  52.233  41.385  0.00  0.00    -0.245 OA
ATOM     16  C   UNL     1      82.269  51.652  42.338  0.00  0.00    +0.339 C 
BRANCH  16  17
ATOM     17  C   UNL     1      81.749  50.368  42.857  0.00  0.00    +0.059 A 
ATOM     18  C   UNL     1      80.364  50.146  42.972  0.00  0.00    -0.048 A 
ATOM     19  C   UNL     1      79.881  48.933  43.472  0.00  0.00    -0.061 A 
ATOM     20  C   UNL     1      80.773  47.931  43.861  0.00  0.00    -0.062 A 
ATOM     21  C   UNL     1      82.150  48.141  43.753  0.00  0.00    -0.061 A 
ATOM     22  C   UNL     1      82.637  49.352  43.255  0.00  0.00    -0.048 A 
ENDBRANCH  16  17
ENDBRANCH  14  16
ENDBRANCH  13  14
ENDBRANCH   1  13
BRANCH   5  23
ATOM     23  O   UNL     1      86.646  55.984  44.883  0.00  0.00    -0.452 OA
BRANCH  23  24
ATOM     24  C   UNL     1      85.826  56.414  45.934  0.00  0.00    +0.340 C 
ATOM     25  O   UNL     1      85.583  57.642  46.088  0.00  0.00    -0.245 OA
BRANCH  24  26
ATOM     26  C   UNL     1      85.242  55.419  46.861  0.00  0.00    +0.059 A 
ATOM     27  C   UNL     1      86.041  54.411  47.432  0.00  0.00    -0.048 A 
ATOM     28  C   UNL     1      85.481  53.474  48.305  0.00  0.00    -0.061 A 
ATOM     29  C   UNL     1      84.121  53.533  48.618  0.00  0.00    -0.062 A 
ATOM     30  C   UNL     1      83.318  54.529  48.057  0.00  0.00    -0.061 A 
ATOM     31  C   UNL     1      83.873  55.469  47.182  0.00  0.00    -0.048 A 
ENDBRANCH  24  26
ENDBRANCH  23  24
ENDBRANCH   5  23
TORSDOF 10
ENDMDL
MODEL 4
REMARK VINA RESULT:    -8.543      2.463      6.661
REMARK INTER + INTRA:         -13.987
REMARK INTER:                 -12.111
REMARK INTRA:                  -1.877
REMARK UNBOUND:                -1.200
REMARK  Name = 
REMARK  10 active torsions:
REMARK  status: ('A' for Active; 'I' for Inactive)
REMARK    1  A    between atoms: C_2  and  C_3
REMARK    2  A    between atoms: C_2  and  O_9
REMARK    3  A    between atoms: O_9  and  C_10
REMARK    4  A    between atoms: C_10  and  C_11
REMARK    5  A    between atoms: C_11  and  O_12
REMARK    6  A    between atoms: C_15  and  O_28
REMARK    7  A    between atoms: C_16  and  O_19
REMARK    8  A    between atoms: C_17  and  O_18
REMARK    9  A    between atoms: O_19  and  C_20
REMARK   10  A    between atoms: C_20  and  C_22
REMARK                            x       y       z     vdW  Elec       q    Type
REMARK                         _______ _______ _______ _____ _____    ______ ____
ROOT
ATOM      1  C   UNL     1      88.763  49.610  42.451  0.00  0.00    +0.147 C 
ATOM      2  C   UNL     1      88.561  50.406  43.733  0.00  0.00    -0.048 C 
ATOM      3  C   UNL     1      87.563  50.165  44.598  0.00  0.00    -0.053 C 
ATOM      4  C   UNL     1      86.430  49.214  44.293  0.00  0.00    +0.113 C 
ATOM      5  C   UNL     1      86.807  48.176  43.217  0.00  0.00    +0.161 C 
ATOM      6  C   UNL     1      87.450  48.900  42.015  0.00  0.00    +0.130 C 
ENDROOT
BRANCH   1   7
ATOM      7  O   UNL     1      89.741  48.622  42.688  0.00  0.00    -0.378 OA
ATOM      8  H   UNL     1      89.709  47.959  41.981  0.00  0.00    +0.000 HD
ENDBRANCH   1   7
BRANCH   6   9
ATOM      9  O   UNL     1      87.736  47.980  40.990  0.00  0.00    -0.385 OA
ATOM     10  H   UNL     1      88.528  47.473  41.223  0.00  0.00    +0.000 HD
ENDBRANCH   6   9
BRANCH   4  11
ATOM     11  O   UNL     1      85.997  48.574  45.467  0.00  0.00    -0.384 OA
ATOM     12  H   UNL     1      85.031  48.645  45.536  0.00  0.00    +0.000 HD
ENDBRANCH   4  11
BRANCH   1  13
ATOM     13  C   UNL     1      89.258  50.547  41.317  0.00  0.00    +0.128 C 
BRANCH  13  14
ATOM     14  O   UNL     1      88.196  50.910  40.431  0.00  0.00    -0.458 OA
BRANCH  14  16
ATOM     15  O   UNL     1      87.715  52.967  39.499  0.00  0.00    -0.245 OA
ATOM     16  C   UNL     1      87.549  52.151  40.447  0.00  0.00    +0.339 C 
BRANCH  16  17
ATOM     17  C   UNL     1      86.662  52.498  41.578  0.00  0.00    +0.059 A 
ATOM     18  C   UNL     1      87.048  53.466  42.525  0.00  0.00    -0.048 A 
ATOM     19  C   UNL     1      86.206  53.782  43.596  0.00  0.00    -0.061 A 
ATOM     20  C   UNL     1      84.975  53.138  43.734  0.00  0.00    -0.062 A 
ATOM     21  C   UNL     1      84.582  52.174  42.801  0.00  0.00    -0.061 A 
ATOM     22  C   UNL     1      85.420  51.854  41.729  0.00  0.00    -0.048 A 
ENDBRANCH  16  17
ENDBRANCH  14  16
ENDBRANCH  13  14
ENDBRANCH   1  13
BRANCH   5  23
ATOM     23  O   UNL     1      85.619  47.491  42.812  0.00  0.00    -0.452 OA
BRANCH  23  24
ATOM     24  C   UNL     1      84.731  46.871  43.701  0.00  0.00    +0.340 C 
ATOM     25  O   UNL     1      85.155  46.016  44.527  0.00  0.00    -0.245 OA
BRANCH  24  26
ATOM     26  C   UNL     1      83.295  47.226  43.670  0.00  0.00    +0.059 A 
ATOM     27  C   UNL     1      82.306  46.225  43.712  0.00  0.00    -0.048 A 
ATOM     28  C   UNL     1      80.951  46.570  43.680  0.00  0.00    -0.061 A 
ATOM     29  C   UNL     1      80.570  47.912  43.607  0.00  0.00    -0.062 A 
ATOM     30  C   UNL     1      81.544  48.912  43.563  0.00  0.00    -0.061 A 
ATOM     31  C   UNL     1      82.901  48.574  43.594  0.00  0.00    -0.048 A 
ENDBRANCH  24  26
ENDBRANCH  23  24
ENDBRANCH   5  23
TORSDOF 10
ENDMDL
MODEL 5
REMARK VINA RESULT:    -8.527      6.094      9.001
REMARK INTER + INTRA:         -13.964
REMARK INTER:                 -12.063
REMARK INTRA:                  -1.901
REMARK UNBOUND:                -1.200
REMARK  Name = 
REMARK  10 active torsions:
REMARK  status: ('A' for Active; 'I' for Inactive)
REMARK    1  A    between atoms: C_2  and  C_3
REMARK    2  A    between atoms: C_2  and  O_9
REMARK    3  A    between atoms: O_9  and  C_10
REMARK    4  A    between atoms: C_10  and  C_11
REMARK    5  A    between atoms: C_11  and  O_12
REMARK    6  A    between atoms: C_15  and  O_28
REMARK    7  A    between atoms: C_16  and  O_19
REMARK    8  A    between atoms: C_17  and  O_18
REMARK    9  A    between atoms: O_19  and  C_20
REMARK   10  A    between atoms: C_20  and  C_22
REMARK                            x       y       z     vdW  Elec       q    Type
REMARK                         _______ _______ _______ _____ _____    ______ ____
ROOT
ATOM      1  C   UNL     1      85.268  53.845  42.345  0.00  0.00    +0.147 C 
ATOM      2  C   UNL     1      84.244  54.791  41.732  0.00  0.00    -0.048 C 
ATOM      3  C   UNL     1      84.107  56.072  42.110  0.00  0.00    -0.053 C 
ATOM      4  C   UNL     1      84.819  56.648  43.312  0.00  0.00    +0.113 C 
ATOM      5  C   UNL     1      86.079  55.845  43.691  0.00  0.00    +0.161 C 
ATOM      6  C   UNL     1      85.729  54.343  43.744  0.00  0.00    +0.130 C 
ENDROOT
BRANCH   1   7
ATOM      7  O   UNL     1      86.395  53.799  41.499  0.00  0.00    -0.378 OA
ATOM      8  H   UNL     1      86.105  53.740  40.576  0.00  0.00    +0.000 HD
ENDBRANCH   1   7
BRANCH   6   9
ATOM      9  O   UNL     1      86.847  53.598  44.158  0.00  0.00    -0.385 OA
ATOM     10  H   UNL     1      86.740  53.343  45.088  0.00  0.00    +0.000 HD
ENDBRANCH   6   9
BRANCH   4  11
ATOM     11  O   UNL     1      85.141  57.998  43.091  0.00  0.00    -0.384 OA
ATOM     12  H   UNL     1      85.487  58.105  42.191  0.00  0.00    +0.000 HD
ENDBRANCH   4  11
BRANCH   1  13
ATOM     13  C   UNL     1      84.668  52.419  42.463  0.00  0.00    +0.128 C 
BRANCH  13  14
ATOM     14  O   UNL     1      84.294  52.114  43.809  0.00  0.00    -0.458 OA
BRANCH  14  16
ATOM     15  O   UNL     1      83.729  49.924  44.275  0.00  0.00    -0.245 OA
ATOM     16  C   UNL     1      84.534  50.883  44.431  0.00  0.00    +0.339 C 
BRANCH  16  17
ATOM     17  C   UNL     1      85.741  50.710  45.266  0.00  0.00    +0.059 A 
ATOM     18  C   UNL     1      86.893  50.088  44.746  0.00  0.00    -0.048 A 
ATOM     19  C   UNL     1      88.028  49.920  45.546  0.00  0.00    -0.061 A 
ATOM     20  C   UNL     1      88.027  50.370  46.868  0.00  0.00    -0.062 A 
ATOM     21  C   UNL     1      86.889  50.987  47.395  0.00  0.00    -0.061 A 
ATOM     22  C   UNL     1      85.752  51.157  46.600  0.00  0.00    -0.048 A 
ENDBRANCH  16  17
ENDBRANCH  14  16
ENDBRANCH  13  14
ENDBRANCH   1  13
BRANCH   5  23
ATOM     23  O   UNL     1      86.539  56.298  44.966  0.00  0.00    -0.452 OA
BRANCH  23  24
ATOM     24  C   UNL     1      85.693  56.714  46.002  0.00  0.00    +0.340 C 
ATOM     25  O   UNL     1      85.373  57.930  46.110  0.00  0.00    -0.245 OA
BRANCH  24  26
ATOM     26  C   UNL     1      85.171  55.721  46.966  0.00  0.00    +0.059 A 
ATOM     27  C   UNL     1      83.786  55.505  47.097  0.00  0.00    -0.048 A 
ATOM     28  C   UNL     1      83.300  54.566  48.012  0.00  0.00    -0.061 A 
ATOM     29  C   UNL     1      84.189  53.834  48.803  0.00  0.00    -0.062 A 
ATOM     30  C   UNL     1      85.565  54.040  48.682  0.00  0.00    -0.061 A 
ATOM     31  C   UNL     1      86.056  54.979  47.768  0.00  0.00    -0.048 A 
ENDBRANCH  24  26
ENDBRANCH  23  24
ENDBRANCH   5  23
TORSDOF 10
ENDMDL
MODEL 6
REMARK VINA RESULT:    -8.494      5.724      9.244
REMARK INTER + INTRA:         -13.914
REMARK INTER:                 -12.637
REMARK INTRA:                  -1.277
REMARK UNBOUND:                -1.200
REMARK  Name = 
REMARK  10 active torsions:
REMARK  status: ('A' for Active; 'I' for Inactive)
REMARK    1  A    between atoms: C_2  and  C_3
REMARK    2  A    between atoms: C_2  and  O_9
REMARK    3  A    between atoms: O_9  and  C_10
REMARK    4  A    between atoms: C_10  and  C_11
REMARK    5  A    between atoms: C_11  and  O_12
REMARK    6  A    between atoms: C_15  and  O_28
REMARK    7  A    between atoms: C_16  and  O_19
REMARK    8  A    between atoms: C_17  and  O_18
REMARK    9  A    between atoms: O_19  and  C_20
REMARK   10  A    between atoms: C_20  and  C_22
REMARK                            x       y       z     vdW  Elec       q    Type
REMARK                         _______ _______ _______ _____ _____    ______ ____
ROOT
ATOM      1  C   UNL     1      85.546  53.632  42.337  0.00  0.00    +0.147 C 
ATOM      2  C   UNL     1      84.497  54.531  41.696  0.00  0.00    -0.048 C 
ATOM      3  C   UNL     1      84.300  55.808  42.060  0.00  0.00    -0.053 C 
ATOM      4  C   UNL     1      84.964  56.422  43.270  0.00  0.00    +0.113 C 
ATOM      5  C   UNL     1      86.248  55.675  43.681  0.00  0.00    +0.161 C 
ATOM      6  C   UNL     1      85.959  54.160  43.741  0.00  0.00    +0.130 C 
ENDROOT
BRANCH   1   7
ATOM      7  O   UNL     1      86.691  53.626  41.514  0.00  0.00    -0.378 OA
ATOM      8  H   UNL     1      87.353  53.024  41.887  0.00  0.00    +0.000 HD
ENDBRANCH   1   7
BRANCH   6   9
ATOM      9  O   UNL     1      87.097  53.465  44.183  0.00  0.00    -0.385 OA
ATOM     10  H   UNL     1      87.198  52.648  43.669  0.00  0.00    +0.000 HD
ENDBRANCH   6   9
BRANCH   4  11
ATOM     11  O   UNL     1      85.234  57.783  43.044  0.00  0.00    -0.384 OA
ATOM     12  H   UNL     1      85.432  57.920  42.104  0.00  0.00    +0.000 HD
ENDBRANCH   4  11
BRANCH   1  13
ATOM     13  C   UNL     1      85.003  52.184  42.457  0.00  0.00    +0.128 C 
BRANCH  13  14
ATOM     14  O   UNL     1      85.988  51.218  42.084  0.00  0.00    -0.458 OA
BRANCH  14  16
ATOM     15  O   UNL     1      86.406  50.438  44.217  0.00  0.00    -0.245 OA
ATOM     16  C   UNL     1      86.729  50.458  42.997  0.00  0.00    +0.339 C 
BRANCH  16  17
ATOM     17  C   UNL     1      87.886  49.670  42.523  0.00  0.00    +0.059 A 
ATOM     18  C   UNL     1      87.728  48.329  42.123  0.00  0.00    -0.048 A 
ATOM     19  C   UNL     1      88.830  47.588  41.684  0.00  0.00    -0.061 A 
ATOM     20  C   UNL     1      90.097  48.175  41.640  0.00  0.00    -0.062 A 
ATOM     21  C   UNL     1      90.265  49.504  42.037  0.00  0.00    -0.061 A 
ATOM     22  C   UNL     1      89.168  50.249  42.476  0.00  0.00    -0.048 A 
ENDBRANCH  16  17
ENDBRANCH  14  16
ENDBRANCH  13  14
ENDBRANCH   1  13
BRANCH   5  23
ATOM     23  O   UNL     1      86.664  56.157  44.961  0.00  0.00    -0.452 OA
BRANCH  23  24
ATOM     24  C   UNL     1      85.781  56.571  45.966  0.00  0.00    +0.340 C 
ATOM     25  O   UNL     1      85.461  57.787  46.067  0.00  0.00    -0.245 OA
BRANCH  24  26
ATOM     26  C   UNL     1      85.222  55.575  46.907  0.00  0.00    +0.059 A 
ATOM     27  C   UNL     1      86.057  54.635  47.539  0.00  0.00    -0.048 A 
ATOM     28  C   UNL     1      85.520  53.696  48.425  0.00  0.00    -0.061 A 
ATOM     29  C   UNL     1      84.148  53.686  48.689  0.00  0.00    -0.062 A 
ATOM     30  C   UNL     1      83.311  54.613  48.066  0.00  0.00    -0.061 A 
ATOM     31  C   UNL     1      83.842  55.555  47.179  0.00  0.00    -0.048 A 
ENDBRANCH  24  26
ENDBRANCH  23  24
ENDBRANCH   5  23
TORSDOF 10
ENDMDL
MODEL 7
REMARK VINA RESULT:    -8.465      4.029      7.773
REMARK INTER + INTRA:         -13.872
REMARK INTER:                 -12.153
REMARK INTRA:                  -1.719
REMARK UNBOUND:                -1.200
REMARK  Name = 
REMARK  10 active torsions:
REMARK  status: ('A' for Active; 'I' for Inactive)
REMARK    1  A    between atoms: C_2  and  C_3
REMARK    2  A    between atoms: C_2  and  O_9
REMARK    3  A    between atoms: O_9  and  C_10
REMARK    4  A    between atoms: C_10  and  C_11
REMARK    5  A    between atoms: C_11  and  O_12
REMARK    6  A    between atoms: C_15  and  O_28
REMARK    7  A    between atoms: C_16  and  O_19
REMARK    8  A    between atoms: C_17  and  O_18
REMARK    9  A    between atoms: O_19  and  C_20
REMARK   10  A    between atoms: C_20  and  C_22
REMARK                            x       y       z     vdW  Elec       q    Type
REMARK                         _______ _______ _______ _____ _____    ______ ____
ROOT
ATOM      1  C   UNL     1      86.999  51.922  43.002  0.00  0.00    +0.147 C 
ATOM      2  C   UNL     1      87.709  51.681  44.328  0.00  0.00    -0.048 C 
ATOM      3  C   UNL     1      87.269  50.812  45.251  0.00  0.00    -0.053 C 
ATOM      4  C   UNL     1      85.924  50.130  45.153  0.00  0.00    +0.113 C 
ATOM      5  C   UNL     1      85.393  50.080  43.708  0.00  0.00    +0.161 C 
ATOM      6  C   UNL     1      85.509  51.481  43.073  0.00  0.00    +0.130 C 
ENDROOT
BRANCH   1   7
ATOM      7  O   UNL     1      87.639  51.154  42.008  0.00  0.00    -0.378 OA
ATOM      8  H   UNL     1      87.316  50.241  42.046  0.00  0.00    +0.000 HD
ENDBRANCH   1   7
BRANCH   6   9
ATOM      9  O   UNL     1      84.964  51.475  41.777  0.00  0.00    -0.385 OA
ATOM     10  H   UNL     1      85.306  52.233  41.278  0.00  0.00    +0.000 HD
ENDBRANCH   6   9
BRANCH   4  11
ATOM     11  O   UNL     1      85.988  48.838  45.703  0.00  0.00    -0.384 OA
ATOM     12  H   UNL     1      85.191  48.672  46.231  0.00  0.00    +0.000 HD
ENDBRANCH   4  11
BRANCH   1  13
ATOM     13  C   UNL     1      87.089  53.421  42.617  0.00  0.00    +0.128 C 
BRANCH  13  14
ATOM     14  O   UNL     1      85.830  54.081  42.766  0.00  0.00    -0.458 OA
BRANCH  14  16
ATOM     15  O   UNL     1      85.448  56.326  43.148  0.00  0.00    -0.245 OA
ATOM     16  C   UNL     1      85.608  55.168  43.621  0.00  0.00    +0.339 C 
BRANCH  16  17
ATOM     17  C   UNL     1      85.554  54.948  45.082  0.00  0.00    +0.059 A 
ATOM     18  C   UNL     1      86.283  55.772  45.961  0.00  0.00    -0.048 A 
ATOM     19  C   UNL     1      86.232  55.552  47.341  0.00  0.00    -0.061 A 
ATOM     20  C   UNL     1      85.456  54.513  47.858  0.00  0.00    -0.062 A 
ATOM     21  C   UNL     1      84.730  53.688  46.995  0.00  0.00    -0.061 A 
ATOM     22  C   UNL     1      84.777  53.903  45.615  0.00  0.00    -0.048 A 
ENDBRANCH  16  17
ENDBRANCH  14  16
ENDBRANCH  13  14
ENDBRANCH   1  13
BRANCH   5  23
ATOM     23  O   UNL     1      84.028  49.656  43.740  0.00  0.00    -0.452 OA
BRANCH  23  24
ATOM     24  C   UNL     1      83.614  48.333  43.538  0.00  0.00    +0.340 C 
ATOM     25  O   UNL     1      84.461  47.437  43.268  0.00  0.00    -0.245 OA
BRANCH  24  26
ATOM     26  C   UNL     1      82.179  47.989  43.648  0.00  0.00    +0.059 A 
ATOM     27  C   UNL     1      81.767  46.646  43.749  0.00  0.00    -0.048 A 
ATOM     28  C   UNL     1      80.409  46.330  43.851  0.00  0.00    -0.061 A 
ATOM     29  C   UNL     1      79.451  47.346  43.853  0.00  0.00    -0.062 A 
ATOM     30  C   UNL     1      79.848  48.681  43.752  0.00  0.00    -0.061 A 
ATOM     31  C   UNL     1      81.206  49.004  43.650  0.00  0.00    -0.048 A 
ENDBRANCH  24  26
ENDBRANCH  23  24
ENDBRANCH   5  23
TORSDOF 10
ENDMDL
MODEL 8
REMARK VINA RESULT:    -8.420      3.422      8.810
REMARK INTER + INTRA:         -13.803
REMARK INTER:                 -12.603
REMARK INTRA:                  -1.200
REMARK UNBOUND:                -1.200
REMARK  Name = 
REMARK  10 active torsions:
REMARK  status: ('A' for Active; 'I' for Inactive)
REMARK    1  A    between atoms: C_2  and  C_3
REMARK    2  A    between atoms: C_2  and  O_9
REMARK    3  A    between atoms: O_9  and  C_10
REMARK    4  A    between atoms: C_10  and  C_11
REMARK    5  A    between atoms: C_11  and  O_12
REMARK    6  A    between atoms: C_15  and  O_28
REMARK    7  A    between atoms: C_16  and  O_19
REMARK    8  A    between atoms: C_17  and  O_18
REMARK    9  A    between atoms: O_19  and  C_20
REMARK   10  A    between atoms: C_20  and  C_22
REMARK                            x       y       z     vdW  Elec       q    Type
REMARK                         _______ _______ _______ _____ _____    ______ ____
ROOT
ATOM      1  C   UNL     1      84.819  53.424  42.862  0.00  0.00    +0.147 C 
ATOM      2  C   UNL     1      83.810  54.238  42.063  0.00  0.00    -0.048 C 
ATOM      3  C   UNL     1      82.668  53.724  41.580  0.00  0.00    -0.053 C 
ATOM      4  C   UNL     1      82.361  52.245  41.613  0.00  0.00    +0.113 C 
ATOM      5  C   UNL     1      83.161  51.502  42.700  0.00  0.00    +0.161 C 
ATOM      6  C   UNL     1      84.648  51.900  42.600  0.00  0.00    +0.130 C 
ENDROOT
BRANCH   1   7
ATOM      7  O   UNL     1      84.598  53.663  44.235  0.00  0.00    -0.378 OA
ATOM      8  H   UNL     1      85.033  52.972  44.757  0.00  0.00    +0.000 HD
ENDBRANCH   1   7
BRANCH   6   9
ATOM      9  O   UNL     1      85.409  51.179  43.537  0.00  0.00    -0.385 OA
ATOM     10  H   UNL     1      84.817  50.747  44.171  0.00  0.00    +0.000 HD
ENDBRANCH   6   9
BRANCH   4  11
ATOM     11  O   UNL     1      80.982  52.034  41.783  0.00  0.00    -0.384 OA
ATOM     12  H   UNL     1      80.518  52.248  40.958  0.00  0.00    +0.000 HD
ENDBRANCH   4  11
BRANCH   1  13
ATOM     13  C   UNL     1      86.262  53.864  42.500  0.00  0.00    +0.128 C 
BRANCH  13  14
ATOM     14  O   UNL     1      86.941  52.867  41.733  0.00  0.00    -0.458 OA
BRANCH  14  16
ATOM     15  O   UNL     1      89.099  53.644  41.462  0.00  0.00    -0.245 OA
ATOM     16  C   UNL     1      88.329  52.683  41.738  0.00  0.00    +0.339 C 
BRANCH  16  17
ATOM     17  C   UNL     1      88.889  51.357  42.075  0.00  0.00    +0.059 A 
ATOM     18  C   UNL     1      88.571  50.732  43.297  0.00  0.00    -0.048 A 
ATOM     19  C   UNL     1      89.113  49.481  43.612  0.00  0.00    -0.061 A 
ATOM     20  C   UNL     1      89.972  48.843  42.716  0.00  0.00    -0.062 A 
ATOM     21  C   UNL     1      90.296  49.455  41.502  0.00  0.00    -0.061 A 
ATOM     22  C   UNL     1      89.758  50.705  41.182  0.00  0.00    -0.048 A 
ENDBRANCH  16  17
ENDBRANCH  14  16
ENDBRANCH  13  14
ENDBRANCH   1  13
BRANCH   5  23
ATOM     23  O   UNL     1      83.005  50.095  42.497  0.00  0.00    -0.452 OA
BRANCH  23  24
ATOM     24  C   UNL     1      82.910  49.160  43.535  0.00  0.00    +0.340 C 
ATOM     25  O   UNL     1      83.869  49.007  44.342  0.00  0.00    -0.245 OA
BRANCH  24  26
ATOM     26  C   UNL     1      81.678  48.354  43.686  0.00  0.00    +0.059 A 
ATOM     27  C   UNL     1      80.425  48.977  43.842  0.00  0.00    -0.048 A 
ATOM     28  C   UNL     1      79.267  48.208  43.986  0.00  0.00    -0.061 A 
ATOM     29  C   UNL     1      79.345  46.814  43.975  0.00  0.00    -0.062 A 
ATOM     30  C   UNL     1      80.582  46.185  43.822  0.00  0.00    -0.061 A 
ATOM     31  C   UNL     1      81.745  46.949  43.678  0.00  0.00    -0.048 A 
ENDBRANCH  24  26
ENDBRANCH  23  24
ENDBRANCH   5  23
TORSDOF 10
ENDMDL
MODEL 9
REMARK VINA RESULT:    -8.366      5.236      7.511
REMARK INTER + INTRA:         -13.723
REMARK INTER:                 -11.078
REMARK INTRA:                  -2.645
REMARK UNBOUND:                -1.200
REMARK  Name = 
REMARK  10 active torsions:
REMARK  status: ('A' for Active; 'I' for Inactive)
REMARK    1  A    between atoms: C_2  and  C_3
REMARK    2  A    between atoms: C_2  and  O_9
REMARK    3  A    between atoms: O_9  and  C_10
REMARK    4  A    between atoms: C_10  and  C_11
REMARK    5  A    between atoms: C_11  and  O_12
REMARK    6  A    between atoms: C_15  and  O_28
REMARK    7  A    between atoms: C_16  and  O_19
REMARK    8  A    between atoms: C_17  and  O_18
REMARK    9  A    between atoms: O_19  and  C_20
REMARK   10  A    between atoms: C_20  and  C_22
REMARK                            x       y       z     vdW  Elec       q    Type
REMARK                         _______ _______ _______ _____ _____    ______ ____
ROOT
ATOM      1  C   UNL     1      86.685  50.763  43.049  0.00  0.00    +0.147 C 
ATOM      2  C   UNL     1      85.222  50.364  43.187  0.00  0.00    -0.048 C 
ATOM      3  C   UNL     1      84.204  51.170  42.844  0.00  0.00    -0.053 C 
ATOM      4  C   UNL     1      84.403  52.620  42.472  0.00  0.00    +0.113 C 
ATOM      5  C   UNL     1      85.837  52.913  41.988  0.00  0.00    +0.161 C 
ATOM      6  C   UNL     1      86.845  52.309  42.987  0.00  0.00    +0.130 C 
ENDROOT
BRANCH   1   7
ATOM      7  O   UNL     1      87.184  50.220  41.846  0.00  0.00    -0.378 OA
ATOM      8  H   UNL     1      87.017  49.265  41.829  0.00  0.00    +0.000 HD
ENDBRANCH   1   7
BRANCH   6   9
ATOM      9  O   UNL     1      88.160  52.626  42.604  0.00  0.00    -0.385 OA
ATOM     10  H   UNL     1      88.786  52.187  43.201  0.00  0.00    +0.000 HD
ENDBRANCH   6   9
BRANCH   4  11
ATOM     11  O   UNL     1      83.464  53.010  41.501  0.00  0.00    -0.384 OA
ATOM     12  H   UNL     1      83.504  53.973  41.382  0.00  0.00    +0.000 HD
ENDBRANCH   4  11
BRANCH   1  13
ATOM     13  C   UNL     1      87.505  50.194  44.236  0.00  0.00    +0.128 C 
BRANCH  13  14
ATOM     14  O   UNL     1      87.553  51.111  45.332  0.00  0.00    -0.458 OA
BRANCH  14  16
ATOM     15  O   UNL     1      87.180  49.873  47.245  0.00  0.00    -0.245 OA
ATOM     16  C   UNL     1      86.917  50.900  46.561  0.00  0.00    +0.339 C 
BRANCH  16  17
ATOM     17  C   UNL     1      85.942  51.894  47.059  0.00  0.00    +0.059 A 
ATOM     18  C   UNL     1      85.995  52.349  48.391  0.00  0.00    -0.048 A 
ATOM     19  C   UNL     1      85.063  53.283  48.856  0.00  0.00    -0.061 A 
ATOM     20  C   UNL     1      84.073  53.771  48.001  0.00  0.00    -0.062 A 
ATOM     21  C   UNL     1      84.010  53.325  46.678  0.00  0.00    -0.061 A 
ATOM     22  C   UNL     1      84.939  52.392  46.208  0.00  0.00    -0.048 A 
ENDBRANCH  16  17
ENDBRANCH  14  16
ENDBRANCH  13  14
ENDBRANCH   1  13
BRANCH   5  23
ATOM     23  O   UNL     1      86.006  54.330  41.901  0.00  0.00    -0.452 OA
BRANCH  23  24
ATOM     24  C   UNL     1      85.161  55.259  42.522  0.00  0.00    +0.340 C 
ATOM     25  O   UNL     1      84.178  55.742  41.895  0.00  0.00    -0.245 OA
BRANCH  24  26
ATOM     26  C   UNL     1      85.423  55.669  43.920  0.00  0.00    +0.059 A 
ATOM     27  C   UNL     1      86.584  55.237  44.590  0.00  0.00    -0.048 A 
ATOM     28  C   UNL     1      86.823  55.627  45.911  0.00  0.00    -0.061 A 
ATOM     29  C   UNL     1      85.910  56.450  46.576  0.00  0.00    -0.062 A 
ATOM     30  C   UNL     1      84.755  56.883  45.921  0.00  0.00    -0.061 A 
ATOM     31  C   UNL     1      84.510  56.495  44.599  0.00  0.00    -0.048 A 
ENDBRANCH  24  26
ENDBRANCH  23  24
ENDBRANCH   5  23
TORSDOF 10
ENDMDL
