MODEL 1
REMARK VINA RESULT:    -5.691      0.000      0.000
REMARK INTER + INTRA:          -6.047
REMARK INTER:                  -6.019
REMARK INTRA:                  -0.028
REMARK UNBOUND:                -0.024
REMARK  Name = 
REMARK  1 active torsions:
REMARK  status: ('A' for Active; 'I' for Inactive)
REMARK    1  A    between atoms: C_2  and  C_3
REMARK                            x       y       z     vdW  Elec       q    Type
REMARK                         _______ _______ _______ _____ _____    ______ ____
ROOT
ATOM      1  C   UNL     1      85.653  56.839  45.333  0.00  0.00    +0.015 A 
ATOM      2  C   UNL     1      84.398  57.375  45.726  0.00  0.00    -0.050 A 
ATOM      3  C   UNL     1      83.697  56.837  46.822  0.00  0.00    -0.037 A 
ATOM      4  C   UNL     1      84.275  55.768  47.501  0.00  0.00    +0.046 A 
ATOM      5  C   UNL     1      85.483  55.245  47.128  0.00  0.00    +0.000 A 
ATOM      6  C   UNL     1      86.204  55.753  46.050  0.00  0.00    -0.042 A 
ATOM      7  C   UNL     1      85.771  54.211  47.992  0.00  0.00    -0.037 A 
ATOM      8  C   UNL     1      84.691  54.159  48.867  0.00  0.00    +0.003 A 
ATOM      9  N   UNL     1      83.779  55.111  48.564  0.00  0.00    -0.361 N 
ATOM     10  H   UNL     1      82.928  55.288  49.025  0.00  0.00    +0.000 HD
ENDROOT
BRANCH   1  12
ATOM     11  O   UNL     1      85.995  58.442  43.604  0.00  0.00    -0.296 OA
ATOM     12  C   UNL     1      86.392  57.398  44.188  0.00  0.00    +0.150 C 
ENDBRANCH   1  12
TORSDOF 1
ENDMDL
MODEL 2
REMARK VINA RESULT:    -5.591      1.085      1.909
REMARK INTER + INTRA:          -5.941
REMARK INTER:                  -5.913
REMARK INTRA:                  -0.028
REMARK UNBOUND:                -0.024
REMARK  Name = 
REMARK  1 active torsions:
REMARK  status: ('A' for Active; 'I' for Inactive)
REMARK    1  A    between atoms: C_2  and  C_3
REMARK                            x       y       z     vdW  Elec       q    Type
REMARK                         _______ _______ _______ _____ _____    ______ ____
ROOT
ATOM      1  C   UNL     1      85.431  56.970  45.539  0.00  0.00    +0.015 A 
ATOM      2  C   UNL     1      86.495  56.060  45.294  0.00  0.00    -0.050 A 
ATOM      3  C   UNL     1      86.662  54.917  46.096  0.00  0.00    -0.037 A 
ATOM      4  C   UNL     1      85.754  54.710  47.132  0.00  0.00    +0.046 A 
ATOM      5  C   UNL     1      84.728  55.582  47.375  0.00  0.00    +0.000 A 
ATOM      6  C   UNL     1      84.532  56.724  46.601  0.00  0.00    -0.042 A 
ATOM      7  C   UNL     1      84.021  55.098  48.453  0.00  0.00    -0.037 A 
ATOM      8  C   UNL     1      84.675  53.926  48.818  0.00  0.00    +0.003 A 
ATOM      9  N   UNL     1      85.733  53.693  48.009  0.00  0.00    -0.361 N 
ATOM     10  H   UNL     1      86.359  52.934  48.052  0.00  0.00    +0.000 HD
ENDROOT
BRANCH   1  12
ATOM     11  O   UNL     1      85.938  58.346  43.661  0.00  0.00    -0.296 OA
ATOM     12  C   UNL     1      85.250  58.169  44.703  0.00  0.00    +0.150 C 
ENDBRANCH   1  12
TORSDOF 1
ENDMDL
MODEL 3
REMARK VINA RESULT:    -5.545      2.847      4.326
REMARK INTER + INTRA:          -5.893
REMARK INTER:                  -5.869
REMARK INTRA:                  -0.024
REMARK UNBOUND:                -0.024
REMARK  Name = 
REMARK  1 active torsions:
REMARK  status: ('A' for Active; 'I' for Inactive)
REMARK    1  A    between atoms: C_2  and  C_3
REMARK                            x       y       z     vdW  Elec       q    Type
REMARK                         _______ _______ _______ _____ _____    ______ ____
ROOT
ATOM      1  C   UNL     1      85.157  53.367  48.278  0.00  0.00    +0.015 A 
ATOM      2  C   UNL     1      83.751  53.529  48.410  0.00  0.00    -0.050 A 
ATOM      3  C   UNL     1      83.108  54.668  47.892  0.00  0.00    -0.037 A 
ATOM      4  C   UNL     1      83.892  55.623  47.250  0.00  0.00    +0.046 A 
ATOM      5  C   UNL     1      85.246  55.474  47.119  0.00  0.00    +0.000 A 
ATOM      6  C   UNL     1      85.916  54.360  47.619  0.00  0.00    -0.042 A 
ATOM      7  C   UNL     1      85.720  56.578  46.445  0.00  0.00    -0.037 A 
ATOM      8  C   UNL     1      84.597  57.360  46.196  0.00  0.00    +0.003 A 
ATOM      9  N   UNL     1      83.483  56.773  46.690  0.00  0.00    -0.361 N 
ATOM     10  H   UNL     1      82.561  57.117  46.647  0.00  0.00    +0.000 HD
ENDROOT
BRANCH   1  12
ATOM     11  O   UNL     1      86.340  51.312  48.051  0.00  0.00    -0.296 OA
ATOM     12  C   UNL     1      85.838  52.177  48.817  0.00  0.00    +0.150 C 
ENDBRANCH   1  12
TORSDOF 1
ENDMDL
MODEL 4
REMARK VINA RESULT:    -5.370      8.831      9.501
REMARK INTER + INTRA:          -5.708
REMARK INTER:                  -5.682
REMARK INTRA:                  -0.026
REMARK UNBOUND:                -0.024
REMARK  Name = 
REMARK  1 active torsions:
REMARK  status: ('A' for Active; 'I' for Inactive)
REMARK    1  A    between atoms: C_2  and  C_3
REMARK                            x       y       z     vdW  Elec       q    Type
REMARK                         _______ _______ _______ _____ _____    ______ ____
ROOT
ATOM      1  C   UNL     1      80.889  47.812  44.072  0.00  0.00    +0.015 A 
ATOM      2  C   UNL     1      79.661  48.429  43.708  0.00  0.00    -0.050 A 
ATOM      3  C   UNL     1      79.648  49.689  43.083  0.00  0.00    -0.037 A 
ATOM      4  C   UNL     1      80.872  50.305  42.834  0.00  0.00    +0.046 A 
ATOM      5  C   UNL     1      82.058  49.718  43.183  0.00  0.00    +0.000 A 
ATOM      6  C   UNL     1      82.109  48.472  43.803  0.00  0.00    -0.042 A 
ATOM      7  C   UNL     1      83.069  50.575  42.805  0.00  0.00    -0.037 A 
ATOM      8  C   UNL     1      82.424  51.667  42.234  0.00  0.00    +0.003 A 
ATOM      9  N   UNL     1      81.082  51.498  42.253  0.00  0.00    -0.361 N 
ATOM     10  H   UNL     1      80.400  52.120  41.912  0.00  0.00    +0.000 HD
ENDROOT
BRANCH   1  12
ATOM     11  O   UNL     1      79.984  46.137  45.504  0.00  0.00    -0.296 OA
ATOM     12  C   UNL     1      80.911  46.493  44.727  0.00  0.00    +0.150 C 
ENDBRANCH   1  12
TORSDOF 1
ENDMDL
MODEL 5
REMARK VINA RESULT:    -5.318      8.778      9.081
REMARK INTER + INTRA:          -5.653
REMARK INTER:                  -5.626
REMARK INTRA:                  -0.026
REMARK UNBOUND:                -0.024
REMARK  Name = 
REMARK  1 active torsions:
REMARK  status: ('A' for Active; 'I' for Inactive)
REMARK    1  A    between atoms: C_2  and  C_3
REMARK                            x       y       z     vdW  Elec       q    Type
REMARK                         _______ _______ _______ _____ _____    ______ ____
ROOT
ATOM      1  C   UNL     1      81.487  49.904  42.874  0.00  0.00    +0.015 A 
ATOM      2  C   UNL     1      80.125  50.223  43.132  0.00  0.00    -0.050 A 
ATOM      3  C   UNL     1      79.283  49.302  43.782  0.00  0.00    -0.037 A 
ATOM      4  C   UNL     1      79.827  48.078  44.162  0.00  0.00    +0.046 A 
ATOM      5  C   UNL     1      81.136  47.765  43.917  0.00  0.00    +0.000 A 
ATOM      6  C   UNL     1      81.999  48.651  43.276  0.00  0.00    -0.042 A 
ATOM      7  C   UNL     1      81.356  46.497  44.410  0.00  0.00    -0.037 A 
ATOM      8  C   UNL     1      80.134  46.098  44.942  0.00  0.00    +0.003 A 
ATOM      9  N   UNL     1      79.203  47.066  44.788  0.00  0.00    -0.361 N 
ATOM     10  H   UNL     1      78.262  47.037  45.075  0.00  0.00    +0.000 HD
ENDROOT
BRANCH   1  12
ATOM     11  O   UNL     1      81.920  51.692  41.361  0.00  0.00    -0.296 OA
ATOM     12  C   UNL     1      82.375  50.863  42.194  0.00  0.00    +0.150 C 
ENDBRANCH   1  12
TORSDOF 1
ENDMDL
MODEL 6
REMARK VINA RESULT:    -5.254      3.735      5.100
REMARK INTER + INTRA:          -5.585
REMARK INTER:                  -5.561
REMARK INTRA:                  -0.024
REMARK UNBOUND:                -0.024
REMARK  Name = 
REMARK  1 active torsions:
REMARK  status: ('A' for Active; 'I' for Inactive)
REMARK    1  A    between atoms: C_2  and  C_3
REMARK                            x       y       z     vdW  Elec       q    Type
REMARK                         _______ _______ _______ _____ _____    ______ ____
ROOT
ATOM      1  C   UNL     1      86.712  51.473  47.497  0.00  0.00    +0.015 A 
ATOM      2  C   UNL     1      86.886  52.131  46.250  0.00  0.00    -0.050 A 
ATOM      3  C   UNL     1      86.251  53.360  45.992  0.00  0.00    -0.037 A 
ATOM      4  C   UNL     1      85.453  53.904  46.994  0.00  0.00    +0.046 A 
ATOM      5  C   UNL     1      85.280  53.275  48.197  0.00  0.00    +0.000 A 
ATOM      6  C   UNL     1      85.892  52.058  48.488  0.00  0.00    -0.042 A 
ATOM      7  C   UNL     1      84.443  54.062  48.958  0.00  0.00    -0.037 A 
ATOM      8  C   UNL     1      84.144  55.157  48.154  0.00  0.00    +0.003 A 
ATOM      9  N   UNL     1      84.763  55.056  46.955  0.00  0.00    -0.361 N 
ATOM     10  H   UNL     1      84.718  55.695  46.207  0.00  0.00    +0.000 HD
ENDROOT
BRANCH   1  12
ATOM     11  O   UNL     1      88.629  50.101  47.841  0.00  0.00    -0.296 OA
ATOM     12  C   UNL     1      87.373  50.186  47.775  0.00  0.00    +0.150 C 
ENDBRANCH   1  12
TORSDOF 1
ENDMDL
MODEL 7
REMARK VINA RESULT:    -5.143      9.471     10.252
REMARK INTER + INTRA:          -5.467
REMARK INTER:                  -5.443
REMARK INTRA:                  -0.024
REMARK UNBOUND:                -0.024
REMARK  Name = 
REMARK  1 active torsions:
REMARK  status: ('A' for Active; 'I' for Inactive)
REMARK    1  A    between atoms: C_2  and  C_3
REMARK                            x       y       z     vdW  Elec       q    Type
REMARK                         _______ _______ _______ _____ _____    ______ ____
ROOT
ATOM      1  C   UNL     1      79.815  48.500  44.264  0.00  0.00    +0.015 A 
ATOM      2  C   UNL     1      79.493  47.116  44.275  0.00  0.00    -0.050 A 
ATOM      3  C   UNL     1      80.482  46.147  44.023  0.00  0.00    -0.037 A 
ATOM      4  C   UNL     1      81.776  46.589  43.764  0.00  0.00    +0.046 A 
ATOM      5  C   UNL     1      82.093  47.920  43.752  0.00  0.00    +0.000 A 
ATOM      6  C   UNL     1      81.141  48.907  43.997  0.00  0.00    -0.042 A 
ATOM      7  C   UNL     1      83.438  48.022  43.468  0.00  0.00    -0.037 A 
ATOM      8  C   UNL     1      83.877  46.711  43.319  0.00  0.00    +0.003 A 
ATOM      9  N   UNL     1      82.859  45.839  43.500  0.00  0.00    -0.361 N 
ATOM     10  H   UNL     1      82.901  44.856  43.450  0.00  0.00    +0.000 HD
ENDROOT
BRANCH   1  12
ATOM     11  O   UNL     1      78.101  49.496  45.586  0.00  0.00    -0.296 OA
ATOM     12  C   UNL     1      78.786  49.521  44.528  0.00  0.00    +0.150 C 
ENDBRANCH   1  12
TORSDOF 1
ENDMDL
MODEL 8
REMARK VINA RESULT:    -5.142      3.281      4.486
REMARK INTER + INTRA:          -5.466
REMARK INTER:                  -5.443
REMARK INTRA:                  -0.023
REMARK UNBOUND:                -0.024
REMARK  Name = 
REMARK  1 active torsions:
REMARK  status: ('A' for Active; 'I' for Inactive)
REMARK    1  A    between atoms: C_2  and  C_3
REMARK                            x       y       z     vdW  Elec       q    Type
REMARK                         _______ _______ _______ _____ _____    ______ ____
ROOT
ATOM      1  C   UNL     1      85.667  54.188  47.443  0.00  0.00    +0.015 A 
ATOM      2  C   UNL     1      85.369  53.463  48.630  0.00  0.00    -0.050 A 
ATOM      3  C   UNL     1      85.771  52.122  48.772  0.00  0.00    -0.037 A 
ATOM      4  C   UNL     1      86.465  51.535  47.717  0.00  0.00    +0.046 A 
ATOM      5  C   UNL     1      86.754  52.226  46.572  0.00  0.00    +0.000 A 
ATOM      6  C   UNL     1      86.373  53.554  46.396  0.00  0.00    -0.042 A 
ATOM      7  C   UNL     1      87.439  51.372  45.736  0.00  0.00    -0.037 A 
ATOM      8  C   UNL     1      87.531  50.175  46.438  0.00  0.00    +0.003 A 
ATOM      9  N   UNL     1      86.935  50.278  47.647  0.00  0.00    -0.361 N 
ATOM     10  H   UNL     1      86.860  49.578  48.335  0.00  0.00    +0.000 HD
ENDROOT
BRANCH   1  12
ATOM     11  O   UNL     1      84.052  55.890  47.032  0.00  0.00    -0.296 OA
ATOM     12  C   UNL     1      85.250  55.592  47.287  0.00  0.00    +0.150 C 
ENDBRANCH   1  12
TORSDOF 1
ENDMDL
MODEL 9
REMARK VINA RESULT:    -5.133      9.318     10.103
REMARK INTER + INTRA:          -5.456
REMARK INTER:                  -5.433
REMARK INTRA:                  -0.024
REMARK UNBOUND:                -0.024
REMARK  Name = 
REMARK  1 active torsions:
REMARK  status: ('A' for Active; 'I' for Inactive)
REMARK    1  A    between atoms: C_2  and  C_3
REMARK                            x       y       z     vdW  Elec       q    Type
REMARK                         _______ _______ _______ _____ _____    ______ ____
ROOT
ATOM      1  C   UNL     1      82.348  46.958  43.762  0.00  0.00    +0.015 A 
ATOM      2  C   UNL     1      81.479  46.205  44.597  0.00  0.00    -0.050 A 
ATOM      3  C   UNL     1      80.220  46.714  44.968  0.00  0.00    -0.037 A 
ATOM      4  C   UNL     1      79.860  47.971  44.491  0.00  0.00    +0.046 A 
ATOM      5  C   UNL     1      80.692  48.702  43.687  0.00  0.00    +0.000 A 
ATOM      6  C   UNL     1      81.944  48.230  43.300  0.00  0.00    -0.042 A 
ATOM      7  C   UNL     1      80.049  49.884  43.393  0.00  0.00    -0.037 A 
ATOM      8  C   UNL     1      78.827  49.806  44.054  0.00  0.00    +0.003 A 
ATOM      9  N   UNL     1      78.716  48.636  44.723  0.00  0.00    -0.361 N 
ATOM     10  H   UNL     1      77.954  48.333  45.268  0.00  0.00    +0.000 HD
ENDROOT
BRANCH   1  12
ATOM     11  O   UNL     1      84.586  46.281  44.218  0.00  0.00    -0.296 OA
ATOM     12  C   UNL     1      83.667  46.432  43.369  0.00  0.00    +0.150 C 
ENDBRANCH   1  12
TORSDOF 1
ENDMDL
