MODEL 1
REMARK VINA RESULT:   -10.474      0.000      0.000
REMARK INTER + INTRA:         -20.518
REMARK INTER:                 -17.327
REMARK INTRA:                  -3.192
REMARK UNBOUND:                -3.002
REMARK  Name = 
REMARK  18 active torsions:
REMARK  status: ('A' for Active; 'I' for Inactive)
REMARK    1  A    between atoms: C_1  and  C_2
REMARK    2  A    between atoms: C_2  and  C_33
REMARK    3  A    between atoms: C_3  and  C_4
REMARK    4  A    between atoms: C_4  and  C_5
REMARK    5  A    between atoms: C_10  and  C_13
REMARK    6  A    between atoms: C_19  and  O_32
REMARK    7  A    between atoms: C_21  and  C_22
REMARK    8  A    between atoms: C_22  and  C_23
REMARK    9  A    between atoms: C_24  and  C_25
REMARK   10  A    between atoms: C_24  and  C_31
REMARK   11  A    between atoms: C_25  and  C_26
REMARK   12  A    between atoms: C_26  and  C_27
REMARK   13  A    between atoms: C_28  and  C_29
REMARK   14  A    between atoms: C_28  and  C_30
REMARK   15  A    between atoms: C_33  and  C_34
REMARK   16  A    between atoms: C_34  and  C_35
REMARK   17  A    between atoms: C_36  and  C_37
REMARK   18  A    between atoms: C_36  and  C_38
REMARK                            x       y       z     vdW  Elec       q    Type
REMARK                         _______ _______ _______ _____ _____    ______ ____
ROOT
ATOM      1  C   UNL     1      84.342  46.369  43.445  0.00  0.00    +0.140 A 
ATOM      2  O   UNL     1      84.000  47.602  43.112  0.00  0.00    -0.454 OA
ATOM      3  C   UNL     1      82.744  47.781  43.439  0.00  0.00    +0.139 A 
ATOM      4  C   UNL     1      82.234  46.644  43.999  0.00  0.00    +0.024 A 
ATOM      5  C   UNL     1      83.245  45.711  44.014  0.00  0.00    -0.008 A 
ATOM      6  C   UNL     1      80.915  46.562  44.438  0.00  0.00    -0.009 A 
ATOM      7  C   UNL     1      80.099  47.703  44.286  0.00  0.00    +0.118 A 
ATOM      8  C   UNL     1      80.624  48.879  43.706  0.00  0.00    -0.013 A 
ATOM      9  C   UNL     1      81.969  48.934  43.276  0.00  0.00    +0.003 A 
ENDROOT
BRANCH   1  15
ATOM     10  C   UNL     1      88.066  46.006  42.201  0.00  0.00    +0.007 C 
ATOM     11  C   UNL     1      88.426  44.885  42.846  0.00  0.00    -0.008 C 
ATOM     12  C   UNL     1      87.458  44.155  43.678  0.00  0.00    +0.180 C 
ATOM     13  O   UNL     1      87.798  43.086  44.248  0.00  0.00    -0.288 OA
ATOM     14  C   UNL     1      86.091  44.677  43.845  0.00  0.00    -0.001 C 
ATOM     15  C   UNL     1      85.708  45.817  43.241  0.00  0.00    +0.068 C 
ATOM     16  C   UNL     1      86.686  46.537  42.374  0.00  0.00    +0.193 C 
ATOM     17  O   UNL     1      86.347  47.601  41.788  0.00  0.00    -0.287 OA
BRANCH  10  18
ATOM     18  C   UNL     1      89.076  46.747  41.353  0.00  0.00    -0.005 C 
BRANCH  18  21
ATOM     19  C   UNL     1      90.730  48.485  43.162  0.00  0.00    -0.044 C 
ATOM     20  C   UNL     1      89.645  49.039  42.267  0.00  0.00    -0.076 C 
ATOM     21  C   UNL     1      88.916  48.245  41.452  0.00  0.00    -0.081 C 
BRANCH  20  22
ATOM     22  C   UNL     1      89.382  50.527  42.266  0.00  0.00    -0.029 C 
BRANCH  22  23
ATOM     23  C   UNL     1      88.042  50.841  42.939  0.00  0.00    -0.031 C 
BRANCH  23  24
ATOM     24  C   UNL     1      88.206  50.930  44.436  0.00  0.00    -0.085 C 
ATOM     25  C   UNL     1      87.532  50.161  45.323  0.00  0.00    -0.080 C 
ATOM     26  C   UNL     1      86.482  49.167  44.882  0.00  0.00    -0.044 C 
ATOM     27  C   UNL     1      87.832  50.325  46.790  0.00  0.00    -0.044 C 
ENDBRANCH  23  24
ENDBRANCH  22  23
ENDBRANCH  20  22
ENDBRANCH  18  21
ENDBRANCH  10  18
ENDBRANCH   1  15
BRANCH   7  28
ATOM     28  O   UNL     1      78.770  47.679  44.699  0.00  0.00    -0.507 OA
ATOM     29  H   UNL     1      78.526  47.198  45.465  0.00  0.00    +0.000 HD
ENDBRANCH   7  28
BRANCH   9  30
ATOM     30  C   UNL     1      82.519  50.166  42.611  0.00  0.00    -0.006 C 
BRANCH  30  31
ATOM     31  C   UNL     1      83.293  50.980  43.616  0.00  0.00    -0.081 C 
ATOM     32  C   UNL     1      84.257  51.879  43.318  0.00  0.00    -0.076 C 
ATOM     33  C   UNL     1      84.686  52.150  41.896  0.00  0.00    -0.044 C 
BRANCH  32  34
ATOM     34  C   UNL     1      84.927  52.642  44.443  0.00  0.00    -0.029 C 
BRANCH  34  35
ATOM     35  C   UNL     1      84.461  52.166  45.828  0.00  0.00    -0.031 C 
BRANCH  35  36
ATOM     36  C   UNL     1      84.183  53.311  46.773  0.00  0.00    -0.085 C 
ATOM     37  C   UNL     1      84.678  53.413  48.026  0.00  0.00    -0.080 C 
ATOM     38  C   UNL     1      84.360  54.651  48.823  0.00  0.00    -0.044 C 
ATOM     39  C   UNL     1      85.519  52.325  48.650  0.00  0.00    -0.044 C 
ENDBRANCH  35  36
ENDBRANCH  34  35
ENDBRANCH  32  34
ENDBRANCH  30  31
ENDBRANCH   9  30
TORSDOF 12
ENDMDL
MODEL 2
REMARK VINA RESULT:   -10.199      2.433      5.517
REMARK INTER + INTRA:         -20.059
REMARK INTER:                 -16.769
REMARK INTRA:                  -3.290
REMARK UNBOUND:                -3.002
REMARK  Name = 
REMARK  18 active torsions:
REMARK  status: ('A' for Active; 'I' for Inactive)
REMARK    1  A    between atoms: C_1  and  C_2
REMARK    2  A    between atoms: C_2  and  C_33
REMARK    3  A    between atoms: C_3  and  C_4
REMARK    4  A    between atoms: C_4  and  C_5
REMARK    5  A    between atoms: C_10  and  C_13
REMARK    6  A    between atoms: C_19  and  O_32
REMARK    7  A    between atoms: C_21  and  C_22
REMARK    8  A    between atoms: C_22  and  C_23
REMARK    9  A    between atoms: C_24  and  C_25
REMARK   10  A    between atoms: C_24  and  C_31
REMARK   11  A    between atoms: C_25  and  C_26
REMARK   12  A    between atoms: C_26  and  C_27
REMARK   13  A    between atoms: C_28  and  C_29
REMARK   14  A    between atoms: C_28  and  C_30
REMARK   15  A    between atoms: C_33  and  C_34
REMARK   16  A    between atoms: C_34  and  C_35
REMARK   17  A    between atoms: C_36  and  C_37
REMARK   18  A    between atoms: C_36  and  C_38
REMARK                            x       y       z     vdW  Elec       q    Type
REMARK                         _______ _______ _______ _____ _____    ______ ____
ROOT
ATOM      1  C   UNL     1      87.613  50.440  42.337  0.00  0.00    +0.140 A 
ATOM      2  O   UNL     1      86.656  50.702  43.210  0.00  0.00    -0.454 OA
ATOM      3  C   UNL     1      85.947  51.704  42.751  0.00  0.00    +0.139 A 
ATOM      4  C   UNL     1      86.443  52.122  41.548  0.00  0.00    +0.024 A 
ATOM      5  C   UNL     1      87.523  51.324  41.255  0.00  0.00    -0.008 A 
ATOM      6  C   UNL     1      85.872  53.177  40.839  0.00  0.00    -0.009 A 
ATOM      7  C   UNL     1      84.751  53.819  41.403  0.00  0.00    +0.118 A 
ATOM      8  C   UNL     1      84.238  53.388  42.648  0.00  0.00    -0.013 A 
ATOM      9  C   UNL     1      84.833  52.311  43.341  0.00  0.00    +0.003 A 
ENDROOT
BRANCH   1  15
ATOM     10  C   UNL     1      89.258  46.856  42.268  0.00  0.00    +0.007 C 
ATOM     11  C   UNL     1      90.485  47.147  42.731  0.00  0.00    -0.008 C 
ATOM     12  C   UNL     1      90.825  48.516  43.143  0.00  0.00    +0.180 C 
ATOM     13  O   UNL     1      91.967  48.768  43.610  0.00  0.00    -0.288 OA
ATOM     14  C   UNL     1      89.831  49.594  43.009  0.00  0.00    -0.001 C 
ATOM     15  C   UNL     1      88.604  49.344  42.516  0.00  0.00    +0.068 C 
ATOM     16  C   UNL     1      88.254  47.947  42.127  0.00  0.00    +0.193 C 
ATOM     17  O   UNL     1      87.107  47.686  41.673  0.00  0.00    -0.287 OA
BRANCH  10  18
ATOM     18  C   UNL     1      88.926  45.443  41.844  0.00  0.00    -0.005 C 
BRANCH  18  21
ATOM     19  C   UNL     1      88.515  43.427  44.034  0.00  0.00    -0.044 C 
ATOM     20  C   UNL     1      87.366  44.092  43.312  0.00  0.00    -0.076 C 
ATOM     21  C   UNL     1      87.567  45.004  42.335  0.00  0.00    -0.081 C 
BRANCH  20  22
ATOM     22  C   UNL     1      85.950  43.744  43.709  0.00  0.00    -0.029 C 
BRANCH  22  23
ATOM     23  C   UNL     1      85.277  44.929  44.410  0.00  0.00    -0.031 C 
BRANCH  23  24
ATOM     24  C   UNL     1      84.060  45.382  43.642  0.00  0.00    -0.085 C 
ATOM     25  C   UNL     1      83.796  46.671  43.327  0.00  0.00    -0.080 C 
ATOM     26  C   UNL     1      84.685  47.804  43.786  0.00  0.00    -0.044 C 
ATOM     27  C   UNL     1      82.566  46.974  42.511  0.00  0.00    -0.044 C 
ENDBRANCH  23  24
ENDBRANCH  22  23
ENDBRANCH  20  22
ENDBRANCH  18  21
ENDBRANCH  10  18
ENDBRANCH   1  15
BRANCH   7  28
ATOM     28  O   UNL     1      84.142  54.885  40.746  0.00  0.00    -0.507 OA
ATOM     29  H   UNL     1      83.268  54.796  40.420  0.00  0.00    +0.000 HD
ENDBRANCH   7  28
BRANCH   9  30
ATOM     30  C   UNL     1      84.324  51.883  44.689  0.00  0.00    -0.006 C 
BRANCH  30  31
ATOM     31  C   UNL     1      84.447  53.028  45.662  0.00  0.00    -0.081 C 
ATOM     32  C   UNL     1      85.507  53.261  46.467  0.00  0.00    -0.076 C 
ATOM     33  C   UNL     1      86.710  52.348  46.488  0.00  0.00    -0.044 C 
BRANCH  32  34
ATOM     34  C   UNL     1      85.492  54.475  47.374  0.00  0.00    -0.029 C 
BRANCH  34  35
ATOM     35  C   UNL     1      86.316  55.639  46.802  0.00  0.00    -0.031 C 
BRANCH  35  36
ATOM     36  C   UNL     1      85.567  56.417  45.746  0.00  0.00    -0.085 C 
ATOM     37  C   UNL     1      85.812  56.349  44.418  0.00  0.00    -0.080 C 
ATOM     38  C   UNL     1      84.933  57.140  43.486  0.00  0.00    -0.044 C 
ATOM     39  C   UNL     1      86.941  55.522  43.851  0.00  0.00    -0.044 C 
ENDBRANCH  35  36
ENDBRANCH  34  35
ENDBRANCH  32  34
ENDBRANCH  30  31
ENDBRANCH   9  30
TORSDOF 12
ENDMDL
MODEL 3
REMARK VINA RESULT:   -10.152      3.273      6.803
REMARK INTER + INTRA:         -19.980
REMARK INTER:                 -17.293
REMARK INTRA:                  -2.687
REMARK UNBOUND:                -3.002
REMARK  Name = 
REMARK  18 active torsions:
REMARK  status: ('A' for Active; 'I' for Inactive)
REMARK    1  A    between atoms: C_1  and  C_2
REMARK    2  A    between atoms: C_2  and  C_33
REMARK    3  A    between atoms: C_3  and  C_4
REMARK    4  A    between atoms: C_4  and  C_5
REMARK    5  A    between atoms: C_10  and  C_13
REMARK    6  A    between atoms: C_19  and  O_32
REMARK    7  A    between atoms: C_21  and  C_22
REMARK    8  A    between atoms: C_22  and  C_23
REMARK    9  A    between atoms: C_24  and  C_25
REMARK   10  A    between atoms: C_24  and  C_31
REMARK   11  A    between atoms: C_25  and  C_26
REMARK   12  A    between atoms: C_26  and  C_27
REMARK   13  A    between atoms: C_28  and  C_29
REMARK   14  A    between atoms: C_28  and  C_30
REMARK   15  A    between atoms: C_33  and  C_34
REMARK   16  A    between atoms: C_34  and  C_35
REMARK   17  A    between atoms: C_36  and  C_37
REMARK   18  A    between atoms: C_36  and  C_38
REMARK                            x       y       z     vdW  Elec       q    Type
REMARK                         _______ _______ _______ _____ _____    ______ ____
ROOT
ATOM      1  C   UNL     1      85.848  53.526  45.360  0.00  0.00    +0.140 A 
ATOM      2  O   UNL     1      85.490  53.974  44.168  0.00  0.00    -0.454 OA
ATOM      3  C   UNL     1      85.215  55.250  44.277  0.00  0.00    +0.139 A 
ATOM      4  C   UNL     1      85.389  55.664  45.568  0.00  0.00    +0.024 A 
ATOM      5  C   UNL     1      85.797  54.568  46.293  0.00  0.00    -0.008 A 
ATOM      6  C   UNL     1      85.165  56.981  45.960  0.00  0.00    -0.009 A 
ATOM      7  C   UNL     1      84.742  57.898  44.975  0.00  0.00    +0.118 A 
ATOM      8  C   UNL     1      84.560  57.472  43.641  0.00  0.00    -0.013 A 
ATOM      9  C   UNL     1      84.802  56.129  43.271  0.00  0.00    +0.003 A 
ENDROOT
BRANCH   1  15
ATOM     10  C   UNL     1      86.052  49.598  45.075  0.00  0.00    +0.007 C 
ATOM     11  C   UNL     1      87.031  49.344  45.958  0.00  0.00    -0.008 C 
ATOM     12  C   UNL     1      87.640  50.433  46.736  0.00  0.00    +0.180 C 
ATOM     13  O   UNL     1      88.532  50.178  47.587  0.00  0.00    -0.288 OA
ATOM     14  C   UNL     1      87.208  51.824  46.517  0.00  0.00    -0.001 C 
ATOM     15  C   UNL     1      86.254  52.117  45.614  0.00  0.00    +0.068 C 
ATOM     16  C   UNL     1      85.618  51.004  44.850  0.00  0.00    +0.193 C 
ATOM     17  O   UNL     1      84.714  51.253  44.007  0.00  0.00    -0.287 OA
BRANCH  10  18
ATOM     18  C   UNL     1      85.440  48.466  44.281  0.00  0.00    -0.005 C 
BRANCH  18  21
ATOM     19  C   UNL     1      85.822  45.505  43.942  0.00  0.00    -0.044 C 
ATOM     20  C   UNL     1      86.611  46.524  43.153  0.00  0.00    -0.076 C 
ATOM     21  C   UNL     1      86.421  47.853  43.311  0.00  0.00    -0.081 C 
BRANCH  20  22
ATOM     22  C   UNL     1      87.627  46.045  42.142  0.00  0.00    -0.029 C 
BRANCH  22  23
ATOM     23  C   UNL     1      88.404  47.227  41.553  0.00  0.00    -0.031 C 
BRANCH  23  24
ATOM     24  C   UNL     1      89.735  47.388  42.245  0.00  0.00    -0.085 C 
ATOM     25  C   UNL     1      90.139  48.522  42.864  0.00  0.00    -0.080 C 
ATOM     26  C   UNL     1      89.298  49.778  42.857  0.00  0.00    -0.044 C 
ATOM     27  C   UNL     1      91.475  48.524  43.558  0.00  0.00    -0.044 C 
ENDBRANCH  23  24
ENDBRANCH  22  23
ENDBRANCH  20  22
ENDBRANCH  18  21
ENDBRANCH  10  18
ENDBRANCH   1  15
BRANCH   7  28
ATOM     28  O   UNL     1      84.493  59.226  45.308  0.00  0.00    -0.507 OA
ATOM     29  H   UNL     1      84.686  59.537  46.172  0.00  0.00    +0.000 HD
ENDBRANCH   7  28
BRANCH   9  30
ATOM     30  C   UNL     1      84.560  55.659  41.864  0.00  0.00    -0.006 C 
BRANCH  30  31
ATOM     31  C   UNL     1      83.296  54.837  41.816  0.00  0.00    -0.081 C 
ATOM     32  C   UNL     1      83.220  53.540  41.446  0.00  0.00    -0.076 C 
ATOM     33  C   UNL     1      84.436  52.763  41.003  0.00  0.00    -0.044 C 
BRANCH  32  34
ATOM     34  C   UNL     1      81.876  52.842  41.477  0.00  0.00    -0.029 C 
BRANCH  34  35
ATOM     35  C   UNL     1      82.013  51.322  41.658  0.00  0.00    -0.031 C 
BRANCH  35  36
ATOM     36  C   UNL     1      80.864  50.722  42.432  0.00  0.00    -0.085 C 
ATOM     37  C   UNL     1      80.932  49.582  43.155  0.00  0.00    -0.080 C 
ATOM     38  C   UNL     1      79.713  49.148  43.926  0.00  0.00    -0.044 C 
ATOM     39  C   UNL     1      82.179  48.731  43.198  0.00  0.00    -0.044 C 
ENDBRANCH  35  36
ENDBRANCH  34  35
ENDBRANCH  32  34
ENDBRANCH  30  31
ENDBRANCH   9  30
TORSDOF 12
ENDMDL
MODEL 4
REMARK VINA RESULT:   -10.028      2.496      6.661
REMARK INTER + INTRA:         -19.772
REMARK INTER:                 -17.034
REMARK INTRA:                  -2.738
REMARK UNBOUND:                -3.002
REMARK  Name = 
REMARK  18 active torsions:
REMARK  status: ('A' for Active; 'I' for Inactive)
REMARK    1  A    between atoms: C_1  and  C_2
REMARK    2  A    between atoms: C_2  and  C_33
REMARK    3  A    between atoms: C_3  and  C_4
REMARK    4  A    between atoms: C_4  and  C_5
REMARK    5  A    between atoms: C_10  and  C_13
REMARK    6  A    between atoms: C_19  and  O_32
REMARK    7  A    between atoms: C_21  and  C_22
REMARK    8  A    between atoms: C_22  and  C_23
REMARK    9  A    between atoms: C_24  and  C_25
REMARK   10  A    between atoms: C_24  and  C_31
REMARK   11  A    between atoms: C_25  and  C_26
REMARK   12  A    between atoms: C_26  and  C_27
REMARK   13  A    between atoms: C_28  and  C_29
REMARK   14  A    between atoms: C_28  and  C_30
REMARK   15  A    between atoms: C_33  and  C_34
REMARK   16  A    between atoms: C_34  and  C_35
REMARK   17  A    between atoms: C_36  and  C_37
REMARK   18  A    between atoms: C_36  and  C_38
REMARK                            x       y       z     vdW  Elec       q    Type
REMARK                         _______ _______ _______ _____ _____    ______ ____
ROOT
ATOM      1  C   UNL     1      82.071  50.670  42.783  0.00  0.00    +0.140 A 
ATOM      2  O   UNL     1      82.939  49.674  42.840  0.00  0.00    -0.454 OA
ATOM      3  C   UNL     1      82.308  48.606  43.265  0.00  0.00    +0.139 A 
ATOM      4  C   UNL     1      80.993  48.896  43.499  0.00  0.00    +0.024 A 
ATOM      5  C   UNL     1      80.811  50.225  43.198  0.00  0.00    -0.008 A 
ATOM      6  C   UNL     1      80.094  47.935  43.957  0.00  0.00    -0.009 A 
ATOM      7  C   UNL     1      80.583  46.631  44.182  0.00  0.00    +0.118 A 
ATOM      8  C   UNL     1      81.942  46.331  43.941  0.00  0.00    -0.013 A 
ATOM      9  C   UNL     1      82.829  47.325  43.469  0.00  0.00    +0.003 A 
ENDROOT
BRANCH   1  15
ATOM     10  C   UNL     1      84.115  53.994  42.213  0.00  0.00    +0.007 C 
ATOM     11  C   UNL     1      83.272  54.658  41.404  0.00  0.00    -0.008 C 
ATOM     12  C   UNL     1      81.968  54.081  41.045  0.00  0.00    +0.180 C 
ATOM     13  O   UNL     1      81.173  54.729  40.316  0.00  0.00    -0.288 OA
ATOM     14  C   UNL     1      81.594  52.745  41.538  0.00  0.00    -0.001 C 
ATOM     15  C   UNL     1      82.429  52.039  42.322  0.00  0.00    +0.068 C 
ATOM     16  C   UNL     1      83.738  52.641  42.707  0.00  0.00    +0.193 C 
ATOM     17  O   UNL     1      84.533  52.003  43.450  0.00  0.00    -0.287 OA
BRANCH  10  18
ATOM     18  C   UNL     1      85.454  54.600  42.568  0.00  0.00    -0.005 C 
BRANCH  18  21
ATOM     19  C   UNL     1      84.843  57.356  43.599  0.00  0.00    -0.044 C 
ATOM     20  C   UNL     1      85.274  56.224  44.504  0.00  0.00    -0.076 C 
ATOM     21  C   UNL     1      85.537  54.987  44.026  0.00  0.00    -0.081 C 
BRANCH  20  22
ATOM     22  C   UNL     1      85.395  56.476  45.989  0.00  0.00    -0.029 C 
BRANCH  22  23
ATOM     23  C   UNL     1      86.390  55.500  46.624  0.00  0.00    -0.031 C 
BRANCH  23  24
ATOM     24  C   UNL     1      85.715  54.665  47.685  0.00  0.00    -0.085 C 
ATOM     25  C   UNL     1      85.731  53.312  47.714  0.00  0.00    -0.080 C 
ATOM     26  C   UNL     1      86.386  52.498  46.622  0.00  0.00    -0.044 C 
ATOM     27  C   UNL     1      85.055  52.610  48.862  0.00  0.00    -0.044 C 
ENDBRANCH  23  24
ENDBRANCH  22  23
ENDBRANCH  20  22
ENDBRANCH  18  21
ENDBRANCH  10  18
ENDBRANCH   1  15
BRANCH   7  28
ATOM     28  O   UNL     1      79.734  45.631  44.648  0.00  0.00    -0.507 OA
ATOM     29  H   UNL     1      79.333  45.712  45.492  0.00  0.00    +0.000 HD
ENDBRANCH   7  28
BRANCH   9  30
ATOM     30  C   UNL     1      84.287  47.024  43.261  0.00  0.00    -0.006 C 
BRANCH  30  31
ATOM     31  C   UNL     1      85.122  48.007  44.043  0.00  0.00    -0.081 C 
ATOM     32  C   UNL     1      86.368  48.412  43.711  0.00  0.00    -0.076 C 
ATOM     33  C   UNL     1      87.084  47.880  42.493  0.00  0.00    -0.044 C 
BRANCH  32  34
ATOM     34  C   UNL     1      87.070  49.431  44.587  0.00  0.00    -0.029 C 
BRANCH  34  35
ATOM     35  C   UNL     1      88.404  49.896  43.984  0.00  0.00    -0.031 C 
BRANCH  35  36
ATOM     36  C   UNL     1      88.306  51.255  43.333  0.00  0.00    -0.085 C 
ATOM     37  C   UNL     1      88.851  51.580  42.140  0.00  0.00    -0.080 C 
ATOM     38  C   UNL     1      88.609  52.964  41.594  0.00  0.00    -0.044 C 
ATOM     39  C   UNL     1      89.702  50.611  41.354  0.00  0.00    -0.044 C 
ENDBRANCH  35  36
ENDBRANCH  34  35
ENDBRANCH  32  34
ENDBRANCH  30  31
ENDBRANCH   9  30
TORSDOF 12
ENDMDL
MODEL 5
REMARK VINA RESULT:   -10.025      1.821      6.561
REMARK INTER + INTRA:         -19.766
REMARK INTER:                 -17.043
REMARK INTRA:                  -2.724
REMARK UNBOUND:                -3.002
REMARK  Name = 
REMARK  18 active torsions:
REMARK  status: ('A' for Active; 'I' for Inactive)
REMARK    1  A    between atoms: C_1  and  C_2
REMARK    2  A    between atoms: C_2  and  C_33
REMARK    3  A    between atoms: C_3  and  C_4
REMARK    4  A    between atoms: C_4  and  C_5
REMARK    5  A    between atoms: C_10  and  C_13
REMARK    6  A    between atoms: C_19  and  O_32
REMARK    7  A    between atoms: C_21  and  C_22
REMARK    8  A    between atoms: C_22  and  C_23
REMARK    9  A    between atoms: C_24  and  C_25
REMARK   10  A    between atoms: C_24  and  C_31
REMARK   11  A    between atoms: C_25  and  C_26
REMARK   12  A    between atoms: C_26  and  C_27
REMARK   13  A    between atoms: C_28  and  C_29
REMARK   14  A    between atoms: C_28  and  C_30
REMARK   15  A    between atoms: C_33  and  C_34
REMARK   16  A    between atoms: C_34  and  C_35
REMARK   17  A    between atoms: C_36  and  C_37
REMARK   18  A    between atoms: C_36  and  C_38
REMARK                            x       y       z     vdW  Elec       q    Type
REMARK                         _______ _______ _______ _____ _____    ______ ____
ROOT
ATOM      1  C   UNL     1      83.910  50.394  43.212  0.00  0.00    +0.140 A 
ATOM      2  O   UNL     1      84.580  49.278  43.440  0.00  0.00    -0.454 OA
ATOM      3  C   UNL     1      83.718  48.296  43.539  0.00  0.00    +0.139 A 
ATOM      4  C   UNL     1      82.445  48.766  43.376  0.00  0.00    +0.024 A 
ATOM      5  C   UNL     1      82.537  50.122  43.165  0.00  0.00    -0.008 A 
ATOM      6  C   UNL     1      81.334  47.928  43.433  0.00  0.00    -0.009 A 
ATOM      7  C   UNL     1      81.556  46.556  43.671  0.00  0.00    +0.118 A 
ATOM      8  C   UNL     1      82.871  46.069  43.841  0.00  0.00    -0.013 A 
ATOM      9  C   UNL     1      83.980  46.942  43.770  0.00  0.00    +0.003 A 
ENDROOT
BRANCH   1  15
ATOM     10  C   UNL     1      85.329  53.993  43.977  0.00  0.00    +0.007 C 
ATOM     11  C   UNL     1      85.901  54.281  42.796  0.00  0.00    -0.008 C 
ATOM     12  C   UNL     1      85.807  53.342  41.669  0.00  0.00    +0.180 C 
ATOM     13  O   UNL     1      86.316  53.639  40.556  0.00  0.00    -0.288 OA
ATOM     14  C   UNL     1      85.119  52.051  41.842  0.00  0.00    -0.001 C 
ATOM     15  C   UNL     1      84.566  51.716  43.022  0.00  0.00    +0.068 C 
ATOM     16  C   UNL     1      84.638  52.686  44.153  0.00  0.00    +0.193 C 
ATOM     17  O   UNL     1      84.118  52.400  45.266  0.00  0.00    -0.287 OA
BRANCH  10  18
ATOM     18  C   UNL     1      85.440  54.969  45.126  0.00  0.00    -0.005 C 
BRANCH  18  21
ATOM     19  C   UNL     1      83.815  55.170  47.646  0.00  0.00    -0.044 C 
ATOM     20  C   UNL     1      85.097  54.374  47.565  0.00  0.00    -0.076 C 
ATOM     21  C   UNL     1      85.813  54.286  46.421  0.00  0.00    -0.081 C 
BRANCH  20  22
ATOM     22  C   UNL     1      85.584  53.637  48.791  0.00  0.00    -0.029 C 
BRANCH  22  23
ATOM     23  C   UNL     1      85.419  52.124  48.614  0.00  0.00    -0.031 C 
BRANCH  23  24
ATOM     24  C   UNL     1      86.763  51.438  48.618  0.00  0.00    -0.085 C 
ATOM     25  C   UNL     1      87.173  50.561  47.672  0.00  0.00    -0.080 C 
ATOM     26  C   UNL     1      86.272  50.133  46.536  0.00  0.00    -0.044 C 
ATOM     27  C   UNL     1      88.562  49.989  47.777  0.00  0.00    -0.044 C 
ENDBRANCH  23  24
ENDBRANCH  22  23
ENDBRANCH  20  22
ENDBRANCH  18  21
ENDBRANCH  10  18
ENDBRANCH   1  15
BRANCH   7  28
ATOM     28  O   UNL     1      80.484  45.671  43.747  0.00  0.00    -0.507 OA
ATOM     29  H   UNL     1      79.838  45.774  44.419  0.00  0.00    +0.000 HD
ENDBRANCH   7  28
BRANCH   9  30
ATOM     30  C   UNL     1      85.377  46.437  44.002  0.00  0.00    -0.006 C 
BRANCH  30  31
ATOM     31  C   UNL     1      86.331  47.149  43.075  0.00  0.00    -0.081 C 
ATOM     32  C   UNL     1      87.322  46.559  42.370  0.00  0.00    -0.076 C 
ATOM     33  C   UNL     1      87.597  45.078  42.462  0.00  0.00    -0.044 C 
BRANCH  32  34
ATOM     34  C   UNL     1      88.182  47.409  41.456  0.00  0.00    -0.029 C 
BRANCH  34  35
ATOM     35  C   UNL     1      89.232  48.218  42.233  0.00  0.00    -0.031 C 
BRANCH  35  36
ATOM     36  C   UNL     1      89.439  49.601  41.662  0.00  0.00    -0.085 C 
ATOM     37  C   UNL     1      88.987  50.744  42.225  0.00  0.00    -0.080 C 
ATOM     38  C   UNL     1      89.331  52.053  41.565  0.00  0.00    -0.044 C 
ATOM     39  C   UNL     1      88.141  50.743  43.477  0.00  0.00    -0.044 C 
ENDBRANCH  35  36
ENDBRANCH  34  35
ENDBRANCH  32  34
ENDBRANCH  30  31
ENDBRANCH   9  30
TORSDOF 12
ENDMDL
MODEL 6
REMARK VINA RESULT:    -9.999      2.703      8.031
REMARK INTER + INTRA:         -19.724
REMARK INTER:                 -16.277
REMARK INTRA:                  -3.447
REMARK UNBOUND:                -3.002
REMARK  Name = 
REMARK  18 active torsions:
REMARK  status: ('A' for Active; 'I' for Inactive)
REMARK    1  A    between atoms: C_1  and  C_2
REMARK    2  A    between atoms: C_2  and  C_33
REMARK    3  A    between atoms: C_3  and  C_4
REMARK    4  A    between atoms: C_4  and  C_5
REMARK    5  A    between atoms: C_10  and  C_13
REMARK    6  A    between atoms: C_19  and  O_32
REMARK    7  A    between atoms: C_21  and  C_22
REMARK    8  A    between atoms: C_22  and  C_23
REMARK    9  A    between atoms: C_24  and  C_25
REMARK   10  A    between atoms: C_24  and  C_31
REMARK   11  A    between atoms: C_25  and  C_26
REMARK   12  A    between atoms: C_26  and  C_27
REMARK   13  A    between atoms: C_28  and  C_29
REMARK   14  A    between atoms: C_28  and  C_30
REMARK   15  A    between atoms: C_33  and  C_34
REMARK   16  A    between atoms: C_34  and  C_35
REMARK   17  A    between atoms: C_36  and  C_37
REMARK   18  A    between atoms: C_36  and  C_38
REMARK                            x       y       z     vdW  Elec       q    Type
REMARK                         _______ _______ _______ _____ _____    ______ ____
ROOT
ATOM      1  C   UNL     1      86.700  52.341  42.016  0.00  0.00    +0.140 A 
ATOM      2  O   UNL     1      86.545  51.278  42.786  0.00  0.00    -0.454 OA
ATOM      3  C   UNL     1      87.523  50.444  42.535  0.00  0.00    +0.139 A 
ATOM      4  C   UNL     1      88.348  50.958  41.574  0.00  0.00    +0.024 A 
ATOM      5  C   UNL     1      87.839  52.185  41.217  0.00  0.00    -0.008 A 
ATOM      6  C   UNL     1      89.471  50.272  41.119  0.00  0.00    -0.009 A 
ATOM      7  C   UNL     1      89.743  49.008  41.681  0.00  0.00    +0.118 A 
ATOM      8  C   UNL     1      88.891  48.474  42.674  0.00  0.00    -0.013 A 
ATOM      9  C   UNL     1      87.761  49.197  43.121  0.00  0.00    +0.003 A 
ENDROOT
BRANCH   1  15
ATOM     10  C   UNL     1      84.934  55.663  43.199  0.00  0.00    +0.007 C 
ATOM     11  C   UNL     1      84.109  55.878  42.162  0.00  0.00    -0.008 C 
ATOM     12  C   UNL     1      84.042  54.923  41.046  0.00  0.00    +0.180 C 
ATOM     13  O   UNL     1      83.238  55.117  40.097  0.00  0.00    -0.288 OA
ATOM     14  C   UNL     1      84.918  53.739  41.038  0.00  0.00    -0.001 C 
ATOM     15  C   UNL     1      85.782  53.512  42.044  0.00  0.00    +0.068 C 
ATOM     16  C   UNL     1      85.824  54.469  43.188  0.00  0.00    +0.193 C 
ATOM     17  O   UNL     1      86.617  54.271  44.149  0.00  0.00    -0.287 OA
BRANCH  10  18
ATOM     18  C   UNL     1      84.993  56.658  44.336  0.00  0.00    -0.005 C 
BRANCH  18  21
ATOM     19  C   UNL     1      86.313  56.048  46.966  0.00  0.00    -0.044 C 
ATOM     20  C   UNL     1      84.826  55.888  46.744  0.00  0.00    -0.076 C 
ATOM     21  C   UNL     1      84.246  56.175  45.557  0.00  0.00    -0.081 C 
BRANCH  20  22
ATOM     22  C   UNL     1      83.959  55.414  47.887  0.00  0.00    -0.029 C 
BRANCH  22  23
ATOM     23  C   UNL     1      83.579  53.942  47.703  0.00  0.00    -0.031 C 
BRANCH  23  24
ATOM     24  C   UNL     1      84.601  53.229  46.853  0.00  0.00    -0.085 C 
ATOM     25  C   UNL     1      85.542  52.387  47.340  0.00  0.00    -0.080 C 
ATOM     26  C   UNL     1      85.696  52.132  48.822  0.00  0.00    -0.044 C 
ATOM     27  C   UNL     1      86.469  51.705  46.367  0.00  0.00    -0.044 C 
ENDBRANCH  23  24
ENDBRANCH  22  23
ENDBRANCH  20  22
ENDBRANCH  18  21
ENDBRANCH  10  18
ENDBRANCH   1  15
BRANCH   7  28
ATOM     28  O   UNL     1      90.847  48.271  41.261  0.00  0.00    -0.507 OA
ATOM     29  H   UNL     1      91.171  47.569  41.791  0.00  0.00    +0.000 HD
ENDBRANCH   7  28
BRANCH   9  30
ATOM     30  C   UNL     1      86.822  48.611  44.139  0.00  0.00    -0.006 C 
BRANCH  30  31
ATOM     31  C   UNL     1      85.444  48.484  43.540  0.00  0.00    -0.081 C 
ATOM     32  C   UNL     1      84.698  47.357  43.528  0.00  0.00    -0.076 C 
ATOM     33  C   UNL     1      85.199  46.060  44.114  0.00  0.00    -0.044 C 
BRANCH  32  34
ATOM     34  C   UNL     1      83.315  47.396  42.910  0.00  0.00    -0.029 C 
BRANCH  34  35
ATOM     35  C   UNL     1      82.395  48.413  43.603  0.00  0.00    -0.031 C 
BRANCH  35  36
ATOM     36  C   UNL     1      81.934  49.509  42.671  0.00  0.00    -0.085 C 
ATOM     37  C   UNL     1      82.378  50.785  42.703  0.00  0.00    -0.080 C 
ATOM     38  C   UNL     1      81.868  51.747  41.662  0.00  0.00    -0.044 C 
ATOM     39  C   UNL     1      83.349  51.273  43.752  0.00  0.00    -0.044 C 
ENDBRANCH  35  36
ENDBRANCH  34  35
ENDBRANCH  32  34
ENDBRANCH  30  31
ENDBRANCH   9  30
TORSDOF 12
ENDMDL
MODEL 7
REMARK VINA RESULT:    -9.884      2.441      6.173
REMARK INTER + INTRA:         -19.531
REMARK INTER:                 -16.986
REMARK INTRA:                  -2.545
REMARK UNBOUND:                -3.002
REMARK  Name = 
REMARK  18 active torsions:
REMARK  status: ('A' for Active; 'I' for Inactive)
REMARK    1  A    between atoms: C_1  and  C_2
REMARK    2  A    between atoms: C_2  and  C_33
REMARK    3  A    between atoms: C_3  and  C_4
REMARK    4  A    between atoms: C_4  and  C_5
REMARK    5  A    between atoms: C_10  and  C_13
REMARK    6  A    between atoms: C_19  and  O_32
REMARK    7  A    between atoms: C_21  and  C_22
REMARK    8  A    between atoms: C_22  and  C_23
REMARK    9  A    between atoms: C_24  and  C_25
REMARK   10  A    between atoms: C_24  and  C_31
REMARK   11  A    between atoms: C_25  and  C_26
REMARK   12  A    between atoms: C_26  and  C_27
REMARK   13  A    between atoms: C_28  and  C_29
REMARK   14  A    between atoms: C_28  and  C_30
REMARK   15  A    between atoms: C_33  and  C_34
REMARK   16  A    between atoms: C_34  and  C_35
REMARK   17  A    between atoms: C_36  and  C_37
REMARK   18  A    between atoms: C_36  and  C_38
REMARK                            x       y       z     vdW  Elec       q    Type
REMARK                         _______ _______ _______ _____ _____    ______ ____
ROOT
ATOM      1  C   UNL     1      81.659  50.655  42.711  0.00  0.00    +0.140 A 
ATOM      2  O   UNL     1      82.555  49.685  42.789  0.00  0.00    -0.454 OA
ATOM      3  C   UNL     1      81.982  48.642  43.336  0.00  0.00    +0.139 A 
ATOM      4  C   UNL     1      80.677  48.920  43.633  0.00  0.00    +0.024 A 
ATOM      5  C   UNL     1      80.440  50.217  43.242  0.00  0.00    -0.008 A 
ATOM      6  C   UNL     1      79.837  47.980  44.224  0.00  0.00    -0.009 A 
ATOM      7  C   UNL     1      80.374  46.709  44.517  0.00  0.00    +0.118 A 
ATOM      8  C   UNL     1      81.722  46.420  44.211  0.00  0.00    -0.013 A 
ATOM      9  C   UNL     1      82.550  47.392  43.605  0.00  0.00    +0.003 A 
ENDROOT
BRANCH   1  15
ATOM     10  C   UNL     1      83.638  53.848  41.513  0.00  0.00    +0.007 C 
ATOM     11  C   UNL     1      82.648  54.535  40.919  0.00  0.00    -0.008 C 
ATOM     12  C   UNL     1      81.271  54.021  40.925  0.00  0.00    +0.180 C 
ATOM     13  O   UNL     1      80.346  54.691  40.397  0.00  0.00    -0.288 OA
ATOM     14  C   UNL     1      80.974  52.719  41.548  0.00  0.00    -0.001 C 
ATOM     15  C   UNL     1      81.949  51.990  42.121  0.00  0.00    +0.068 C 
ATOM     16  C   UNL     1      83.339  52.530  42.138  0.00  0.00    +0.193 C 
ATOM     17  O   UNL     1      84.268  51.870  42.679  0.00  0.00    -0.287 OA
BRANCH  10  18
ATOM     18  C   UNL     1      85.050  54.390  41.492  0.00  0.00    -0.005 C 
BRANCH  18  21
ATOM     19  C   UNL     1      86.965  53.570  43.659  0.00  0.00    -0.044 C 
ATOM     20  C   UNL     1      86.206  54.877  43.693  0.00  0.00    -0.076 C 
ATOM     21  C   UNL     1      85.355  55.235  42.706  0.00  0.00    -0.081 C 
BRANCH  20  22
ATOM     22  C   UNL     1      86.421  55.821  44.853  0.00  0.00    -0.029 C 
BRANCH  22  23
ATOM     23  C   UNL     1      86.878  55.054  46.098  0.00  0.00    -0.031 C 
BRANCH  23  24
ATOM     24  C   UNL     1      85.904  55.251  47.233  0.00  0.00    -0.085 C 
ATOM     25  C   UNL     1      84.786  54.511  47.414  0.00  0.00    -0.080 C 
ATOM     26  C   UNL     1      84.370  53.438  46.433  0.00  0.00    -0.044 C 
ATOM     27  C   UNL     1      83.929  54.787  48.622  0.00  0.00    -0.044 C 
ENDBRANCH  23  24
ENDBRANCH  22  23
ENDBRANCH  20  22
ENDBRANCH  18  21
ENDBRANCH  10  18
ENDBRANCH   1  15
BRANCH   7  28
ATOM     28  O   UNL     1      79.584  45.730  45.115  0.00  0.00    -0.507 OA
ATOM     29  H   UNL     1      78.708  45.587  44.814  0.00  0.00    +0.000 HD
ENDBRANCH   7  28
BRANCH   9  30
ATOM     30  C   UNL     1      84.000  47.108  43.326  0.00  0.00    -0.006 C 
BRANCH  30  31
ATOM     31  C   UNL     1      84.826  48.325  43.660  0.00  0.00    -0.081 C 
ATOM     32  C   UNL     1      86.111  48.523  43.290  0.00  0.00    -0.076 C 
ATOM     33  C   UNL     1      86.881  47.496  42.495  0.00  0.00    -0.044 C 
BRANCH  32  34
ATOM     34  C   UNL     1      86.800  49.814  43.681  0.00  0.00    -0.029 C 
BRANCH  34  35
ATOM     35  C   UNL     1      87.528  49.700  45.030  0.00  0.00    -0.031 C 
BRANCH  35  36
ATOM     36  C   UNL     1      86.766  50.352  46.159  0.00  0.00    -0.085 C 
ATOM     37  C   UNL     1      87.259  50.565  47.400  0.00  0.00    -0.080 C 
ATOM     38  C   UNL     1      86.394  51.288  48.400  0.00  0.00    -0.044 C 
ATOM     39  C   UNL     1      88.631  50.088  47.813  0.00  0.00    -0.044 C 
ENDBRANCH  35  36
ENDBRANCH  34  35
ENDBRANCH  32  34
ENDBRANCH  30  31
ENDBRANCH   9  30
TORSDOF 12
ENDMDL
MODEL 8
REMARK VINA RESULT:    -9.808      1.944      5.463
REMARK INTER + INTRA:         -19.404
REMARK INTER:                 -17.072
REMARK INTRA:                  -2.332
REMARK UNBOUND:                -3.002
REMARK  Name = 
REMARK  18 active torsions:
REMARK  status: ('A' for Active; 'I' for Inactive)
REMARK    1  A    between atoms: C_1  and  C_2
REMARK    2  A    between atoms: C_2  and  C_33
REMARK    3  A    between atoms: C_3  and  C_4
REMARK    4  A    between atoms: C_4  and  C_5
REMARK    5  A    between atoms: C_10  and  C_13
REMARK    6  A    between atoms: C_19  and  O_32
REMARK    7  A    between atoms: C_21  and  C_22
REMARK    8  A    between atoms: C_22  and  C_23
REMARK    9  A    between atoms: C_24  and  C_25
REMARK   10  A    between atoms: C_24  and  C_31
REMARK   11  A    between atoms: C_25  and  C_26
REMARK   12  A    between atoms: C_26  and  C_27
REMARK   13  A    between atoms: C_28  and  C_29
REMARK   14  A    between atoms: C_28  and  C_30
REMARK   15  A    between atoms: C_33  and  C_34
REMARK   16  A    between atoms: C_34  and  C_35
REMARK   17  A    between atoms: C_36  and  C_37
REMARK   18  A    between atoms: C_36  and  C_38
REMARK                            x       y       z     vdW  Elec       q    Type
REMARK                         _______ _______ _______ _____ _____    ______ ____
ROOT
ATOM      1  C   UNL     1      83.592  50.560  43.072  0.00  0.00    +0.140 A 
ATOM      2  O   UNL     1      84.853  50.892  43.292  0.00  0.00    -0.454 OA
ATOM      3  C   UNL     1      84.986  52.173  43.050  0.00  0.00    +0.139 A 
ATOM      4  C   UNL     1      83.790  52.708  42.659  0.00  0.00    +0.024 A 
ATOM      5  C   UNL     1      82.869  51.686  42.661  0.00  0.00    -0.008 A 
ATOM      6  C   UNL     1      83.652  54.056  42.341  0.00  0.00    -0.009 A 
ATOM      7  C   UNL     1      84.797  54.875  42.431  0.00  0.00    +0.118 A 
ATOM      8  C   UNL     1      86.033  54.324  42.834  0.00  0.00    -0.013 A 
ATOM      9  C   UNL     1      86.142  52.952  43.158  0.00  0.00    +0.003 A 
ENDROOT
BRANCH   1  15
ATOM     10  C   UNL     1      83.481  46.651  43.579  0.00  0.00    +0.007 C 
ATOM     11  C   UNL     1      82.159  46.467  43.736  0.00  0.00    -0.008 C 
ATOM     12  C   UNL     1      81.227  47.599  43.630  0.00  0.00    +0.180 C 
ATOM     13  O   UNL     1      79.988  47.407  43.742  0.00  0.00    -0.288 OA
ATOM     14  C   UNL     1      81.744  48.958  43.393  0.00  0.00    -0.001 C 
ATOM     15  C   UNL     1      83.065  49.182  43.266  0.00  0.00    +0.068 C 
ATOM     16  C   UNL     1      84.003  48.025  43.345  0.00  0.00    +0.193 C 
ATOM     17  O   UNL     1      85.245  48.208  43.219  0.00  0.00    -0.287 OA
BRANCH  10  18
ATOM     18  C   UNL     1      84.425  45.476  43.696  0.00  0.00    -0.005 C 
BRANCH  18  21
ATOM     19  C   UNL     1      86.882  43.768  43.977  0.00  0.00    -0.044 C 
ATOM     20  C   UNL     1      86.791  44.910  42.990  0.00  0.00    -0.076 C 
ATOM     21  C   UNL     1      85.675  45.663  42.870  0.00  0.00    -0.081 C 
BRANCH  20  22
ATOM     22  C   UNL     1      87.974  45.205  42.097  0.00  0.00    -0.029 C 
BRANCH  22  23
ATOM     23  C   UNL     1      88.091  46.710  41.834  0.00  0.00    -0.031 C 
BRANCH  23  24
ATOM     24  C   UNL     1      89.428  47.229  42.304  0.00  0.00    -0.085 C 
ATOM     25  C   UNL     1      89.847  48.506  42.144  0.00  0.00    -0.080 C 
ATOM     26  C   UNL     1      89.019  49.532  41.404  0.00  0.00    -0.044 C 
ATOM     27  C   UNL     1      91.187  48.899  42.708  0.00  0.00    -0.044 C 
ENDBRANCH  23  24
ENDBRANCH  22  23
ENDBRANCH  20  22
ENDBRANCH  18  21
ENDBRANCH  10  18
ENDBRANCH   1  15
BRANCH   7  28
ATOM     28  O   UNL     1      84.722  56.229  42.117  0.00  0.00    -0.507 OA
ATOM     29  H   UNL     1      84.659  56.500  41.222  0.00  0.00    +0.000 HD
ENDBRANCH   7  28
BRANCH   9  30
ATOM     30  C   UNL     1      87.466  52.350  43.538  0.00  0.00    -0.006 C 
BRANCH  30  31
ATOM     31  C   UNL     1      87.522  52.153  45.032  0.00  0.00    -0.081 C 
ATOM     32  C   UNL     1      87.669  50.966  45.659  0.00  0.00    -0.076 C 
ATOM     33  C   UNL     1      87.772  49.666  44.897  0.00  0.00    -0.044 C 
BRANCH  32  34
ATOM     34  C   UNL     1      87.735  50.934  47.173  0.00  0.00    -0.029 C 
BRANCH  34  35
ATOM     35  C   UNL     1      86.341  50.858  47.814  0.00  0.00    -0.031 C 
BRANCH  35  36
ATOM     36  C   UNL     1      85.941  52.148  48.492  0.00  0.00    -0.085 C 
ATOM     37  C   UNL     1      85.075  53.051  47.982  0.00  0.00    -0.080 C 
ATOM     38  C   UNL     1      84.729  54.260  48.810  0.00  0.00    -0.044 C 
ATOM     39  C   UNL     1      84.463  52.891  46.610  0.00  0.00    -0.044 C 
ENDBRANCH  35  36
ENDBRANCH  34  35
ENDBRANCH  32  34
ENDBRANCH  30  31
ENDBRANCH   9  30
TORSDOF 12
ENDMDL
MODEL 9
REMARK VINA RESULT:    -9.706      3.253      6.703
REMARK INTER + INTRA:         -19.233
REMARK INTER:                 -16.230
REMARK INTRA:                  -3.002
REMARK UNBOUND:                -3.002
REMARK  Name = 
REMARK  18 active torsions:
REMARK  status: ('A' for Active; 'I' for Inactive)
REMARK    1  A    between atoms: C_1  and  C_2
REMARK    2  A    between atoms: C_2  and  C_33
REMARK    3  A    between atoms: C_3  and  C_4
REMARK    4  A    between atoms: C_4  and  C_5
REMARK    5  A    between atoms: C_10  and  C_13
REMARK    6  A    between atoms: C_19  and  O_32
REMARK    7  A    between atoms: C_21  and  C_22
REMARK    8  A    between atoms: C_22  and  C_23
REMARK    9  A    between atoms: C_24  and  C_25
REMARK   10  A    between atoms: C_24  and  C_31
REMARK   11  A    between atoms: C_25  and  C_26
REMARK   12  A    between atoms: C_26  and  C_27
REMARK   13  A    between atoms: C_28  and  C_29
REMARK   14  A    between atoms: C_28  and  C_30
REMARK   15  A    between atoms: C_33  and  C_34
REMARK   16  A    between atoms: C_34  and  C_35
REMARK   17  A    between atoms: C_36  and  C_37
REMARK   18  A    between atoms: C_36  and  C_38
REMARK                            x       y       z     vdW  Elec       q    Type
REMARK                         _______ _______ _______ _____ _____    ______ ____
ROOT
ATOM      1  C   UNL     1      87.239  53.625  42.435  0.00  0.00    +0.140 A 
ATOM      2  O   UNL     1      86.088  53.956  41.874  0.00  0.00    -0.454 OA
ATOM      3  C   UNL     1      85.565  54.940  42.562  0.00  0.00    +0.139 A 
ATOM      4  C   UNL     1      86.381  55.273  43.607  0.00  0.00    +0.024 A 
ATOM      5  C   UNL     1      87.471  54.437  43.552  0.00  0.00    -0.008 A 
ATOM      6  C   UNL     1      86.061  56.293  44.499  0.00  0.00    -0.009 A 
ATOM      7  C   UNL     1      84.850  56.987  44.299  0.00  0.00    +0.118 A 
ATOM      8  C   UNL     1      84.005  56.644  43.220  0.00  0.00    -0.013 A 
ATOM      9  C   UNL     1      84.359  55.608  42.326  0.00  0.00    +0.003 A 
ENDROOT
BRANCH   1  15
ATOM     10  C   UNL     1      89.304  50.273  42.211  0.00  0.00    +0.007 C 
ATOM     11  C   UNL     1      89.767  50.360  40.954  0.00  0.00    -0.008 C 
ATOM     12  C   UNL     1      89.478  51.543  40.129  0.00  0.00    +0.180 C 
ATOM     13  O   UNL     1      89.948  51.629  38.965  0.00  0.00    -0.288 OA
ATOM     14  C   UNL     1      88.636  52.626  40.665  0.00  0.00    -0.001 C 
ATOM     15  C   UNL     1      88.126  52.553  41.909  0.00  0.00    +0.068 C 
ATOM     16  C   UNL     1      88.448  51.365  42.751  0.00  0.00    +0.193 C 
ATOM     17  O   UNL     1      87.991  51.280  43.924  0.00  0.00    -0.287 OA
BRANCH  10  18
ATOM     18  C   UNL     1      89.607  49.048  43.044  0.00  0.00    -0.005 C 
BRANCH  18  21
ATOM     19  C   UNL     1      90.382  46.410  41.831  0.00  0.00    -0.044 C 
ATOM     20  C   UNL     1      88.962  46.737  42.232  0.00  0.00    -0.076 C 
ATOM     21  C   UNL     1      88.630  47.925  42.785  0.00  0.00    -0.081 C 
BRANCH  20  22
ATOM     22  C   UNL     1      87.884  45.698  42.029  0.00  0.00    -0.029 C 
BRANCH  22  23
ATOM     23  C   UNL     1      86.963  45.627  43.251  0.00  0.00    -0.031 C 
BRANCH  23  24
ATOM     24  C   UNL     1      85.664  46.344  42.983  0.00  0.00    -0.085 C 
ATOM     25  C   UNL     1      84.453  45.741  42.952  0.00  0.00    -0.080 C 
ATOM     26  C   UNL     1      84.301  44.247  43.122  0.00  0.00    -0.044 C 
ATOM     27  C   UNL     1      83.231  46.592  42.720  0.00  0.00    -0.044 C 
ENDBRANCH  23  24
ENDBRANCH  22  23
ENDBRANCH  20  22
ENDBRANCH  18  21
ENDBRANCH  10  18
ENDBRANCH   1  15
BRANCH   7  28
ATOM     28  O   UNL     1      84.472  58.011  45.163  0.00  0.00    -0.507 OA
ATOM     29  H   UNL     1      83.671  58.476  45.017  0.00  0.00    +0.000 HD
ENDBRANCH   7  28
BRANCH   9  30
ATOM     30  C   UNL     1      83.439  55.204  41.208  0.00  0.00    -0.006 C 
BRANCH  30  31
ATOM     31  C   UNL     1      83.162  53.724  41.292  0.00  0.00    -0.081 C 
ATOM     32  C   UNL     1      81.935  53.160  41.348  0.00  0.00    -0.076 C 
ATOM     33  C   UNL     1      80.674  53.990  41.356  0.00  0.00    -0.044 C 
BRANCH  32  34
ATOM     34  C   UNL     1      81.819  51.650  41.403  0.00  0.00    -0.029 C 
BRANCH  34  35
ATOM     35  C   UNL     1      81.748  51.124  42.845  0.00  0.00    -0.031 C 
BRANCH  35  36
ATOM     36  C   UNL     1      82.925  50.247  43.202  0.00  0.00    -0.085 C 
ATOM     37  C   UNL     1      83.992  50.647  43.928  0.00  0.00    -0.080 C 
ATOM     38  C   UNL     1      85.057  49.632  44.256  0.00  0.00    -0.044 C 
ATOM     39  C   UNL     1      84.154  52.072  44.402  0.00  0.00    -0.044 C 
ENDBRANCH  35  36
ENDBRANCH  34  35
ENDBRANCH  32  34
ENDBRANCH  30  31
ENDBRANCH   9  30
TORSDOF 12
ENDMDL
