MODEL 1
REMARK VINA RESULT:    -6.205      0.000      0.000
REMARK INTER + INTRA:         -10.507
REMARK INTER:                  -8.654
REMARK INTRA:                  -1.852
REMARK UNBOUND:                -1.399
REMARK  Name = 
REMARK  9 active torsions:
REMARK  status: ('A' for Active; 'I' for Inactive)
REMARK    1  A    between atoms: C_1  and  C_2
REMARK    2  A    between atoms: C_2  and  C_3
REMARK    3  A    between atoms: C_3  and  C_4
REMARK    4  A    between atoms: C_4  and  C_5
REMARK    5  A    between atoms: C_5  and  C_6
REMARK    6  A    between atoms: C_6  and  C_7
REMARK    7  A    between atoms: C_7  and  C_8
REMARK    8  A    between atoms: C_7  and  C_15
REMARK    9  A    between atoms: C_8  and  C_9
REMARK                            x       y       z     vdW  Elec       q    Type
REMARK                         _______ _______ _______ _____ _____    ______ ____
ROOT
ATOM      1  C   UNL     1      85.482  56.694  45.102  0.00  0.00    +0.018 C 
ENDROOT
BRANCH   1   2
ATOM      2  C   UNL     1      85.059  57.963  44.401  0.00  0.00    +0.124 C 
ATOM      3  O   UNL     1      85.818  58.541  43.639  0.00  0.00    -0.301 OA
ENDBRANCH   1   2
BRANCH   1   4
ATOM      4  C   UNL     1      86.769  56.116  44.474  0.00  0.00    -0.043 C 
BRANCH   4   5
ATOM      5  C   UNL     1      86.531  54.745  43.815  0.00  0.00    -0.052 C 
BRANCH   5   6
ATOM      6  C   UNL     1      85.216  54.090  44.268  0.00  0.00    -0.053 C 
BRANCH   6   7
ATOM      7  C   UNL     1      85.440  52.762  45.011  0.00  0.00    -0.053 C 
BRANCH   7   9
ATOM      8  C   UNL     1      87.127  51.389  46.350  0.00  0.00    -0.065 C 
ATOM      9  C   UNL     1      86.922  52.506  45.325  0.00  0.00    -0.056 C 
ENDBRANCH   7   9
ENDBRANCH   6   7
ENDBRANCH   5   6
ENDBRANCH   4   5
ENDBRANCH   1   4
BRANCH   1  10
ATOM     10  C   UNL     1      85.683  56.941  46.612  0.00  0.00    -0.018 C 
BRANCH  10  11
ATOM     11  C   UNL     1      85.139  55.805  47.443  0.00  0.00    -0.047 A 
ATOM     12  C   UNL     1      83.756  55.678  47.660  0.00  0.00    -0.059 A 
ATOM     13  C   UNL     1      83.256  54.608  48.407  0.00  0.00    -0.062 A 
ATOM     14  C   UNL     1      84.130  53.654  48.939  0.00  0.00    -0.062 A 
ATOM     15  C   UNL     1      85.506  53.769  48.721  0.00  0.00    -0.062 A 
ATOM     16  C   UNL     1      86.010  54.837  47.974  0.00  0.00    -0.059 A 
ENDBRANCH  10  11
ENDBRANCH   1  10
TORSDOF 8
ENDMDL
MODEL 2
REMARK VINA RESULT:    -6.079      1.432      2.789
REMARK INTER + INTRA:         -10.322
REMARK INTER:                  -9.051
REMARK INTRA:                  -1.271
REMARK UNBOUND:                -1.399
REMARK  Name = 
REMARK  9 active torsions:
REMARK  status: ('A' for Active; 'I' for Inactive)
REMARK    1  A    between atoms: C_1  and  C_2
REMARK    2  A    between atoms: C_2  and  C_3
REMARK    3  A    between atoms: C_3  and  C_4
REMARK    4  A    between atoms: C_4  and  C_5
REMARK    5  A    between atoms: C_5  and  C_6
REMARK    6  A    between atoms: C_6  and  C_7
REMARK    7  A    between atoms: C_7  and  C_8
REMARK    8  A    between atoms: C_7  and  C_15
REMARK    9  A    between atoms: C_8  and  C_9
REMARK                            x       y       z     vdW  Elec       q    Type
REMARK                         _______ _______ _______ _____ _____    ______ ____
ROOT
ATOM      1  C   UNL     1      85.638  56.846  45.276  0.00  0.00    +0.018 C 
ENDROOT
BRANCH   1   2
ATOM      2  C   UNL     1      85.526  58.251  44.733  0.00  0.00    +0.124 C 
ATOM      3  O   UNL     1      85.660  58.474  43.539  0.00  0.00    -0.301 OA
ENDBRANCH   1   2
BRANCH   1   4
ATOM      4  C   UNL     1      86.793  56.079  44.598  0.00  0.00    -0.043 C 
BRANCH   4   5
ATOM      5  C   UNL     1      86.283  54.990  43.636  0.00  0.00    -0.052 C 
BRANCH   5   6
ATOM      6  C   UNL     1      84.883  54.478  44.009  0.00  0.00    -0.053 C 
BRANCH   6   7
ATOM      7  C   UNL     1      83.878  54.602  42.850  0.00  0.00    -0.053 C 
BRANCH   7   9
ATOM      8  C   UNL     1      84.040  55.263  40.389  0.00  0.00    -0.065 C 
ATOM      9  C   UNL     1      84.276  55.688  41.839  0.00  0.00    -0.056 C 
ENDBRANCH   7   9
ENDBRANCH   6   7
ENDBRANCH   5   6
ENDBRANCH   4   5
ENDBRANCH   1   4
BRANCH   1  10
ATOM     10  C   UNL     1      85.827  56.863  46.807  0.00  0.00    -0.018 C 
BRANCH  10  11
ATOM     11  C   UNL     1      85.150  55.688  47.469  0.00  0.00    -0.047 A 
ATOM     12  C   UNL     1      85.888  54.541  47.812  0.00  0.00    -0.059 A 
ATOM     13  C   UNL     1      85.262  53.467  48.450  0.00  0.00    -0.062 A 
ATOM     14  C   UNL     1      83.898  53.530  48.755  0.00  0.00    -0.062 A 
ATOM     15  C   UNL     1      83.160  54.670  48.425  0.00  0.00    -0.062 A 
ATOM     16  C   UNL     1      83.783  55.747  47.788  0.00  0.00    -0.059 A 
ENDBRANCH  10  11
ENDBRANCH   1  10
TORSDOF 8
ENDMDL
MODEL 3
REMARK VINA RESULT:    -6.078      5.032      7.890
REMARK INTER + INTRA:         -10.320
REMARK INTER:                  -9.114
REMARK INTRA:                  -1.206
REMARK UNBOUND:                -1.399
REMARK  Name = 
REMARK  9 active torsions:
REMARK  status: ('A' for Active; 'I' for Inactive)
REMARK    1  A    between atoms: C_1  and  C_2
REMARK    2  A    between atoms: C_2  and  C_3
REMARK    3  A    between atoms: C_3  and  C_4
REMARK    4  A    between atoms: C_4  and  C_5
REMARK    5  A    between atoms: C_5  and  C_6
REMARK    6  A    between atoms: C_6  and  C_7
REMARK    7  A    between atoms: C_7  and  C_8
REMARK    8  A    between atoms: C_7  and  C_15
REMARK    9  A    between atoms: C_8  and  C_9
REMARK                            x       y       z     vdW  Elec       q    Type
REMARK                         _______ _______ _______ _____ _____    ______ ____
ROOT
ATOM      1  C   UNL     1      89.110  51.444  41.948  0.00  0.00    +0.018 C 
ENDROOT
BRANCH   1   2
ATOM      2  C   UNL     1      89.214  52.713  41.136  0.00  0.00    +0.124 C 
ATOM      3  O   UNL     1      89.045  53.805  41.657  0.00  0.00    -0.301 OA
ENDBRANCH   1   2
BRANCH   1   4
ATOM      4  C   UNL     1      87.706  51.297  42.573  0.00  0.00    -0.043 C 
BRANCH   4   5
ATOM      5  C   UNL     1      87.764  51.133  44.104  0.00  0.00    -0.052 C 
BRANCH   5   6
ATOM      6  C   UNL     1      87.532  49.682  44.554  0.00  0.00    -0.053 C 
BRANCH   6   7
ATOM      7  C   UNL     1      86.888  49.589  45.948  0.00  0.00    -0.053 C 
BRANCH   7   9
ATOM      8  C   UNL     1      88.258  50.132  48.033  0.00  0.00    -0.065 C 
ATOM      9  C   UNL     1      87.389  50.683  46.902  0.00  0.00    -0.056 C 
ENDBRANCH   7   9
ENDBRANCH   6   7
ENDBRANCH   5   6
ENDBRANCH   4   5
ENDBRANCH   1   4
BRANCH   1  10
ATOM     10  C   UNL     1      89.448  50.210  41.084  0.00  0.00    -0.018 C 
BRANCH  10  11
ATOM     11  C   UNL     1      89.962  49.064  41.920  0.00  0.00    -0.047 A 
ATOM     12  C   UNL     1      90.936  49.283  42.910  0.00  0.00    -0.059 A 
ATOM     13  C   UNL     1      91.388  48.223  43.700  0.00  0.00    -0.062 A 
ATOM     14  C   UNL     1      90.870  46.938  43.512  0.00  0.00    -0.062 A 
ATOM     15  C   UNL     1      89.896  46.713  42.535  0.00  0.00    -0.062 A 
ATOM     16  C   UNL     1      89.440  47.770  41.744  0.00  0.00    -0.059 A 
ENDBRANCH  10  11
ENDBRANCH   1  10
TORSDOF 8
ENDMDL
MODEL 4
REMARK VINA RESULT:    -5.773      5.731      8.238
REMARK INTER + INTRA:          -9.872
REMARK INTER:                  -7.978
REMARK INTRA:                  -1.894
REMARK UNBOUND:                -1.399
REMARK  Name = 
REMARK  9 active torsions:
REMARK  status: ('A' for Active; 'I' for Inactive)
REMARK    1  A    between atoms: C_1  and  C_2
REMARK    2  A    between atoms: C_2  and  C_3
REMARK    3  A    between atoms: C_3  and  C_4
REMARK    4  A    between atoms: C_4  and  C_5
REMARK    5  A    between atoms: C_5  and  C_6
REMARK    6  A    between atoms: C_6  and  C_7
REMARK    7  A    between atoms: C_7  and  C_8
REMARK    8  A    between atoms: C_7  and  C_15
REMARK    9  A    between atoms: C_8  and  C_9
REMARK                            x       y       z     vdW  Elec       q    Type
REMARK                         _______ _______ _______ _____ _____    ______ ____
ROOT
ATOM      1  C   UNL     1      89.179  51.418  41.585  0.00  0.00    +0.018 C 
ENDROOT
BRANCH   1   2
ATOM      2  C   UNL     1      89.316  52.595  40.648  0.00  0.00    +0.124 C 
ATOM      3  O   UNL     1      89.701  52.439  39.499  0.00  0.00    -0.301 OA
ENDBRANCH   1   2
BRANCH   1   4
ATOM      4  C   UNL     1      87.767  51.365  42.206  0.00  0.00    -0.043 C 
BRANCH   4   5
ATOM      5  C   UNL     1      87.806  51.403  43.745  0.00  0.00    -0.052 C 
BRANCH   5   6
ATOM      6  C   UNL     1      87.467  50.045  44.381  0.00  0.00    -0.053 C 
BRANCH   6   7
ATOM      7  C   UNL     1      86.660  49.134  43.440  0.00  0.00    -0.053 C 
BRANCH   7   9
ATOM      8  C   UNL     1      86.116  46.712  42.843  0.00  0.00    -0.065 C 
ATOM      9  C   UNL     1      86.637  47.673  43.912  0.00  0.00    -0.056 C 
ENDBRANCH   7   9
ENDBRANCH   6   7
ENDBRANCH   5   6
ENDBRANCH   4   5
ENDBRANCH   1   4
BRANCH   1  10
ATOM     10  C   UNL     1      89.498  50.096  40.856  0.00  0.00    -0.018 C 
BRANCH  10  11
ATOM     11  C   UNL     1      89.989  49.034  41.809  0.00  0.00    -0.047 A 
ATOM     12  C   UNL     1      89.619  47.690  41.631  0.00  0.00    -0.059 A 
ATOM     13  C   UNL     1      90.100  46.706  42.500  0.00  0.00    -0.062 A 
ATOM     14  C   UNL     1      90.955  47.055  43.550  0.00  0.00    -0.062 A 
ATOM     15  C   UNL     1      91.333  48.389  43.729  0.00  0.00    -0.062 A 
ATOM     16  C   UNL     1      90.856  49.375  42.862  0.00  0.00    -0.059 A 
ENDBRANCH  10  11
ENDBRANCH   1  10
TORSDOF 8
ENDMDL
MODEL 5
REMARK VINA RESULT:    -5.716      1.157      3.857
REMARK INTER + INTRA:          -9.788
REMARK INTER:                  -7.978
REMARK INTRA:                  -1.810
REMARK UNBOUND:                -1.399
REMARK  Name = 
REMARK  9 active torsions:
REMARK  status: ('A' for Active; 'I' for Inactive)
REMARK    1  A    between atoms: C_1  and  C_2
REMARK    2  A    between atoms: C_2  and  C_3
REMARK    3  A    between atoms: C_3  and  C_4
REMARK    4  A    between atoms: C_4  and  C_5
REMARK    5  A    between atoms: C_5  and  C_6
REMARK    6  A    between atoms: C_6  and  C_7
REMARK    7  A    between atoms: C_7  and  C_8
REMARK    8  A    between atoms: C_7  and  C_15
REMARK    9  A    between atoms: C_8  and  C_9
REMARK                            x       y       z     vdW  Elec       q    Type
REMARK                         _______ _______ _______ _____ _____    ______ ____
ROOT
ATOM      1  C   UNL     1      85.576  56.858  45.305  0.00  0.00    +0.018 C 
ENDROOT
BRANCH   1   2
ATOM      2  C   UNL     1      85.501  58.298  44.856  0.00  0.00    +0.124 C 
ATOM      3  O   UNL     1      85.969  58.644  43.783  0.00  0.00    -0.301 OA
ENDBRANCH   1   2
BRANCH   1   4
ATOM      4  C   UNL     1      85.398  56.744  46.835  0.00  0.00    -0.043 C 
BRANCH   4   5
ATOM      5  C   UNL     1      83.939  56.447  47.230  0.00  0.00    -0.052 C 
BRANCH   5   6
ATOM      6  C   UNL     1      83.824  55.332  48.281  0.00  0.00    -0.053 C 
BRANCH   6   7
ATOM      7  C   UNL     1      84.051  53.931  47.687  0.00  0.00    -0.053 C 
BRANCH   7   9
ATOM      8  C   UNL     1      86.280  52.878  47.018  0.00  0.00    -0.065 C 
ATOM      9  C   UNL     1      85.362  53.292  48.169  0.00  0.00    -0.056 C 
ENDBRANCH   7   9
ENDBRANCH   6   7
ENDBRANCH   5   6
ENDBRANCH   4   5
ENDBRANCH   1   4
BRANCH   1  10
ATOM     10  C   UNL     1      84.523  55.999  44.574  0.00  0.00    -0.018 C 
BRANCH  10  11
ATOM     11  C   UNL     1      85.113  54.712  44.054  0.00  0.00    -0.047 A 
ATOM     12  C   UNL     1      84.325  53.551  43.964  0.00  0.00    -0.059 A 
ATOM     13  C   UNL     1      84.869  52.368  43.455  0.00  0.00    -0.062 A 
ATOM     14  C   UNL     1      86.200  52.335  43.027  0.00  0.00    -0.062 A 
ATOM     15  C   UNL     1      86.988  53.487  43.106  0.00  0.00    -0.062 A 
ATOM     16  C   UNL     1      86.448  54.672  43.613  0.00  0.00    -0.059 A 
ENDBRANCH  10  11
ENDBRANCH   1  10
TORSDOF 8
ENDMDL
MODEL 6
REMARK VINA RESULT:    -5.598      1.883      2.851
REMARK INTER + INTRA:          -9.615
REMARK INTER:                  -8.788
REMARK INTRA:                  -0.827
REMARK UNBOUND:                -1.399
REMARK  Name = 
REMARK  9 active torsions:
REMARK  status: ('A' for Active; 'I' for Inactive)
REMARK    1  A    between atoms: C_1  and  C_2
REMARK    2  A    between atoms: C_2  and  C_3
REMARK    3  A    between atoms: C_3  and  C_4
REMARK    4  A    between atoms: C_4  and  C_5
REMARK    5  A    between atoms: C_5  and  C_6
REMARK    6  A    between atoms: C_6  and  C_7
REMARK    7  A    between atoms: C_7  and  C_8
REMARK    8  A    between atoms: C_7  and  C_15
REMARK    9  A    between atoms: C_8  and  C_9
REMARK                            x       y       z     vdW  Elec       q    Type
REMARK                         _______ _______ _______ _____ _____    ______ ____
ROOT
ATOM      1  C   UNL     1      84.674  57.105  45.010  0.00  0.00    +0.018 C 
ENDROOT
BRANCH   1   2
ATOM      2  C   UNL     1      85.403  58.416  44.838  0.00  0.00    +0.124 C 
ATOM      3  O   UNL     1      86.027  58.657  43.816  0.00  0.00    -0.301 OA
ENDBRANCH   1   2
BRANCH   1   4
ATOM      4  C   UNL     1      83.972  56.684  43.700  0.00  0.00    -0.043 C 
BRANCH   4   5
ATOM      5  C   UNL     1      84.689  55.510  43.007  0.00  0.00    -0.052 C 
BRANCH   5   6
ATOM      6  C   UNL     1      84.298  55.367  41.527  0.00  0.00    -0.053 C 
BRANCH   6   7
ATOM      7  C   UNL     1      83.227  54.286  41.299  0.00  0.00    -0.053 C 
BRANCH   7   9
ATOM      8  C   UNL     1      82.612  52.257  42.723  0.00  0.00    -0.065 C 
ATOM      9  C   UNL     1      83.661  52.908  41.820  0.00  0.00    -0.056 C 
ENDBRANCH   7   9
ENDBRANCH   6   7
ENDBRANCH   5   6
ENDBRANCH   4   5
ENDBRANCH   1   4
BRANCH   1  10
ATOM     10  C   UNL     1      85.640  55.998  45.484  0.00  0.00    -0.018 C 
BRANCH  10  11
ATOM     11  C   UNL     1      85.169  55.354  46.764  0.00  0.00    -0.047 A 
ATOM     12  C   UNL     1      85.932  54.345  47.378  0.00  0.00    -0.059 A 
ATOM     13  C   UNL     1      85.506  53.771  48.579  0.00  0.00    -0.062 A 
ATOM     14  C   UNL     1      84.319  54.202  49.179  0.00  0.00    -0.062 A 
ATOM     15  C   UNL     1      83.558  55.210  48.580  0.00  0.00    -0.062 A 
ATOM     16  C   UNL     1      83.982  55.787  47.380  0.00  0.00    -0.059 A 
ENDBRANCH  10  11
ENDBRANCH   1  10
TORSDOF 8
ENDMDL
MODEL 7
REMARK VINA RESULT:    -5.447      2.675      5.564
REMARK INTER + INTRA:          -9.394
REMARK INTER:                  -7.615
REMARK INTRA:                  -1.780
REMARK UNBOUND:                -1.399
REMARK  Name = 
REMARK  9 active torsions:
REMARK  status: ('A' for Active; 'I' for Inactive)
REMARK    1  A    between atoms: C_1  and  C_2
REMARK    2  A    between atoms: C_2  and  C_3
REMARK    3  A    between atoms: C_3  and  C_4
REMARK    4  A    between atoms: C_4  and  C_5
REMARK    5  A    between atoms: C_5  and  C_6
REMARK    6  A    between atoms: C_6  and  C_7
REMARK    7  A    between atoms: C_7  and  C_8
REMARK    8  A    between atoms: C_7  and  C_15
REMARK    9  A    between atoms: C_8  and  C_9
REMARK                            x       y       z     vdW  Elec       q    Type
REMARK                         _______ _______ _______ _____ _____    ______ ____
ROOT
ATOM      1  C   UNL     1      85.968  52.389  47.323  0.00  0.00    +0.018 C 
ENDROOT
BRANCH   1   2
ATOM      2  C   UNL     1      86.785  51.120  47.374  0.00  0.00    +0.124 C 
ATOM      3  O   UNL     1      87.125  50.637  48.444  0.00  0.00    -0.301 OA
ENDBRANCH   1   2
BRANCH   1   4
ATOM      4  C   UNL     1      85.695  52.932  48.742  0.00  0.00    -0.043 C 
BRANCH   4   5
ATOM      5  C   UNL     1      84.192  52.949  49.080  0.00  0.00    -0.052 C 
BRANCH   5   6
ATOM      6  C   UNL     1      83.405  53.957  48.228  0.00  0.00    -0.053 C 
BRANCH   6   7
ATOM      7  C   UNL     1      83.895  55.403  48.415  0.00  0.00    -0.053 C 
BRANCH   7   9
ATOM      8  C   UNL     1      85.282  56.894  46.875  0.00  0.00    -0.065 C 
ATOM      9  C   UNL     1      83.946  56.183  47.093  0.00  0.00    -0.056 C 
ENDBRANCH   7   9
ENDBRANCH   6   7
ENDBRANCH   5   6
ENDBRANCH   4   5
ENDBRANCH   1   4
BRANCH   1  10
ATOM     10  C   UNL     1      86.671  53.460  46.462  0.00  0.00    -0.018 C 
BRANCH  10  11
ATOM     11  C   UNL     1      85.935  53.712  45.169  0.00  0.00    -0.047 A 
ATOM     12  C   UNL     1      86.460  54.595  44.210  0.00  0.00    -0.059 A 
ATOM     13  C   UNL     1      85.788  54.804  43.002  0.00  0.00    -0.062 A 
ATOM     14  C   UNL     1      84.591  54.130  42.740  0.00  0.00    -0.062 A 
ATOM     15  C   UNL     1      84.066  53.244  43.686  0.00  0.00    -0.062 A 
ATOM     16  C   UNL     1      84.736  53.032  44.894  0.00  0.00    -0.059 A 
ENDBRANCH  10  11
ENDBRANCH   1  10
TORSDOF 8
ENDMDL
MODEL 8
REMARK VINA RESULT:    -5.410      2.121      4.115
REMARK INTER + INTRA:          -9.339
REMARK INTER:                  -7.296
REMARK INTRA:                  -2.043
REMARK UNBOUND:                -1.399
REMARK  Name = 
REMARK  9 active torsions:
REMARK  status: ('A' for Active; 'I' for Inactive)
REMARK    1  A    between atoms: C_1  and  C_2
REMARK    2  A    between atoms: C_2  and  C_3
REMARK    3  A    between atoms: C_3  and  C_4
REMARK    4  A    between atoms: C_4  and  C_5
REMARK    5  A    between atoms: C_5  and  C_6
REMARK    6  A    between atoms: C_6  and  C_7
REMARK    7  A    between atoms: C_7  and  C_8
REMARK    8  A    between atoms: C_7  and  C_15
REMARK    9  A    between atoms: C_8  and  C_9
REMARK                            x       y       z     vdW  Elec       q    Type
REMARK                         _______ _______ _______ _____ _____    ______ ____
ROOT
ATOM      1  C   UNL     1      84.668  55.125  47.218  0.00  0.00    +0.018 C 
ENDROOT
BRANCH   1   2
ATOM      2  C   UNL     1      83.627  55.266  48.303  0.00  0.00    +0.124 C 
ATOM      3  O   UNL     1      83.841  54.854  49.433  0.00  0.00    -0.301 OA
ENDBRANCH   1   2
BRANCH   1   4
ATOM      4  C   UNL     1      85.293  56.493  46.867  0.00  0.00    -0.043 C 
BRANCH   4   5
ATOM      5  C   UNL     1      86.039  56.463  45.520  0.00  0.00    -0.052 C 
BRANCH   5   6
ATOM      6  C   UNL     1      85.087  56.376  44.316  0.00  0.00    -0.053 C 
BRANCH   6   7
ATOM      7  C   UNL     1      85.344  55.134  43.446  0.00  0.00    -0.053 C 
BRANCH   7   9
ATOM      8  C   UNL     1      87.075  53.447  42.624  0.00  0.00    -0.065 C 
ATOM      9  C   UNL     1      86.795  54.639  43.540  0.00  0.00    -0.056 C 
ENDBRANCH   7   9
ENDBRANCH   6   7
ENDBRANCH   5   6
ENDBRANCH   4   5
ENDBRANCH   1   4
BRANCH   1  10
ATOM     10  C   UNL     1      85.764  54.122  47.635  0.00  0.00    -0.018 C 
BRANCH  10  11
ATOM     11  C   UNL     1      85.851  52.957  46.680  0.00  0.00    -0.047 A 
ATOM     12  C   UNL     1      87.066  52.273  46.500  0.00  0.00    -0.059 A 
ATOM     13  C   UNL     1      87.134  51.176  45.635  0.00  0.00    -0.062 A 
ATOM     14  C   UNL     1      85.992  50.752  44.949  0.00  0.00    -0.062 A 
ATOM     15  C   UNL     1      84.779  51.423  45.129  0.00  0.00    -0.062 A 
ATOM     16  C   UNL     1      84.706  52.518  45.993  0.00  0.00    -0.059 A 
ENDBRANCH  10  11
ENDBRANCH   1  10
TORSDOF 8
ENDMDL
MODEL 9
REMARK VINA RESULT:    -5.345      2.077      4.199
REMARK INTER + INTRA:          -9.244
REMARK INTER:                  -7.844
REMARK INTRA:                  -1.399
REMARK UNBOUND:                -1.399
REMARK  Name = 
REMARK  9 active torsions:
REMARK  status: ('A' for Active; 'I' for Inactive)
REMARK    1  A    between atoms: C_1  and  C_2
REMARK    2  A    between atoms: C_2  and  C_3
REMARK    3  A    between atoms: C_3  and  C_4
REMARK    4  A    between atoms: C_4  and  C_5
REMARK    5  A    between atoms: C_5  and  C_6
REMARK    6  A    between atoms: C_6  and  C_7
REMARK    7  A    between atoms: C_7  and  C_8
REMARK    8  A    between atoms: C_7  and  C_15
REMARK    9  A    between atoms: C_8  and  C_9
REMARK                            x       y       z     vdW  Elec       q    Type
REMARK                         _______ _______ _______ _____ _____    ______ ____
ROOT
ATOM      1  C   UNL     1      86.612  53.182  43.536  0.00  0.00    +0.018 C 
ENDROOT
BRANCH   1   2
ATOM      2  C   UNL     1      87.607  52.922  42.429  0.00  0.00    +0.124 C 
ATOM      3  O   UNL     1      88.430  53.768  42.116  0.00  0.00    -0.301 OA
ENDBRANCH   1   2
BRANCH   1   4
ATOM      4  C   UNL     1      85.188  52.764  43.112  0.00  0.00    -0.043 C 
BRANCH   4   5
ATOM      5  C   UNL     1      84.204  53.949  43.128  0.00  0.00    -0.052 C 
BRANCH   5   6
ATOM      6  C   UNL     1      84.906  55.304  42.945  0.00  0.00    -0.053 C 
BRANCH   6   7
ATOM      7  C   UNL     1      84.279  56.417  43.803  0.00  0.00    -0.053 C 
BRANCH   7   9
ATOM      8  C   UNL     1      84.884  58.406  45.286  0.00  0.00    -0.065 C 
ATOM      9  C   UNL     1      85.245  57.587  44.046  0.00  0.00    -0.056 C 
ENDBRANCH   7   9
ENDBRANCH   6   7
ENDBRANCH   5   6
ENDBRANCH   4   5
ENDBRANCH   1   4
BRANCH   1  10
ATOM     10  C   UNL     1      87.027  52.449  44.829  0.00  0.00    -0.018 C 
BRANCH  10  11
ATOM     11  C   UNL     1      86.506  53.148  46.061  0.00  0.00    -0.047 A 
ATOM     12  C   UNL     1      86.018  52.405  47.150  0.00  0.00    -0.059 A 
ATOM     13  C   UNL     1      85.562  53.056  48.300  0.00  0.00    -0.062 A 
ATOM     14  C   UNL     1      85.596  54.452  48.375  0.00  0.00    -0.062 A 
ATOM     15  C   UNL     1      86.088  55.198  47.299  0.00  0.00    -0.062 A 
ATOM     16  C   UNL     1      86.545  54.550  46.149  0.00  0.00    -0.059 A 
ENDBRANCH  10  11
ENDBRANCH   1  10
TORSDOF 8
ENDMDL
