MODEL 1
REMARK VINA RESULT:    -5.817      0.000      0.000
REMARK INTER + INTRA:         -10.428
REMARK INTER:                  -8.470
REMARK INTRA:                  -1.957
REMARK UNBOUND:                -1.890
REMARK  Name = 
REMARK  9 active torsions:
REMARK  status: ('A' for Active; 'I' for Inactive)
REMARK    1  A    between atoms: C_1  and  C_2
REMARK    2  A    between atoms: C_2  and  C_3
REMARK    3  A    between atoms: C_3  and  C_4
REMARK    4  A    between atoms: C_4  and  C_5
REMARK    5  A    between atoms: C_5  and  C_6
REMARK    6  A    between atoms: C_6  and  C_7
REMARK    7  A    between atoms: C_7  and  C_8
REMARK    8  A    between atoms: C_7  and  C_15
REMARK    9  A    between atoms: C_8  and  C_9
REMARK                            x       y       z     vdW  Elec       q    Type
REMARK                         _______ _______ _______ _____ _____    ______ ____
ROOT
ATOM      1  C   UNL     1      85.755  56.673  45.033  0.00  0.00    +0.018 C 
ENDROOT
BRANCH   1   2
ATOM      2  C   UNL     1      85.540  58.046  44.441  0.00  0.00    +0.124 C 
ATOM      3  O   UNL     1      85.544  58.214  43.232  0.00  0.00    -0.301 OA
ENDBRANCH   1   2
BRANCH   1   4
ATOM      4  C   UNL     1      86.994  55.990  44.414  0.00  0.00    -0.043 C 
BRANCH   4   5
ATOM      5  C   UNL     1      86.617  54.763  43.562  0.00  0.00    -0.052 C 
BRANCH   5   6
ATOM      6  C   UNL     1      85.239  54.188  43.927  0.00  0.00    -0.053 C 
BRANCH   6   7
ATOM      7  C   UNL     1      85.336  52.901  44.764  0.00  0.00    -0.053 C 
BRANCH   7   9
ATOM      8  C   UNL     1      86.950  51.429  46.086  0.00  0.00    -0.065 C 
ATOM      9  C   UNL     1      86.783  52.413  44.928  0.00  0.00    -0.056 C 
ENDBRANCH   7   9
ENDBRANCH   6   7
ENDBRANCH   5   6
ENDBRANCH   4   5
ENDBRANCH   1   4
BRANCH   1  10
ATOM     10  C   UNL     1      85.893  56.752  46.568  0.00  0.00    -0.018 C 
BRANCH  10  11
ATOM     11  C   UNL     1      85.240  55.576  47.251  0.00  0.00    -0.047 A 
ATOM     12  C   UNL     1      86.018  54.628  47.939  0.00  0.00    -0.059 A 
ATOM     13  C   UNL     1      85.405  53.556  48.594  0.00  0.00    -0.062 A 
ATOM     14  C   UNL     1      84.013  53.424  48.572  0.00  0.00    -0.062 A 
ATOM     15  C   UNL     1      83.232  54.366  47.897  0.00  0.00    -0.062 A 
ATOM     16  C   UNL     1      83.841  55.440  47.241  0.00  0.00    -0.059 A 
ENDBRANCH  10  11
ENDBRANCH   1  10
TORSDOF 8
ENDMDL
MODEL 2
REMARK VINA RESULT:    -5.570      0.986      1.892
REMARK INTER + INTRA:         -10.064
REMARK INTER:                  -8.516
REMARK INTRA:                  -1.549
REMARK UNBOUND:                -1.890
REMARK  Name = 
REMARK  9 active torsions:
REMARK  status: ('A' for Active; 'I' for Inactive)
REMARK    1  A    between atoms: C_1  and  C_2
REMARK    2  A    between atoms: C_2  and  C_3
REMARK    3  A    between atoms: C_3  and  C_4
REMARK    4  A    between atoms: C_4  and  C_5
REMARK    5  A    between atoms: C_5  and  C_6
REMARK    6  A    between atoms: C_6  and  C_7
REMARK    7  A    between atoms: C_7  and  C_8
REMARK    8  A    between atoms: C_7  and  C_15
REMARK    9  A    between atoms: C_8  and  C_9
REMARK                            x       y       z     vdW  Elec       q    Type
REMARK                         _______ _______ _______ _____ _____    ______ ____
ROOT
ATOM      1  C   UNL     1      85.448  56.519  44.709  0.00  0.00    +0.018 C 
ENDROOT
BRANCH   1   2
ATOM      2  C   UNL     1      85.157  57.762  43.902  0.00  0.00    +0.124 C 
ATOM      3  O   UNL     1      86.063  58.494  43.532  0.00  0.00    -0.301 OA
ENDBRANCH   1   2
BRANCH   1   4
ATOM      4  C   UNL     1      86.696  55.786  44.171  0.00  0.00    -0.043 C 
BRANCH   4   5
ATOM      5  C   UNL     1      86.347  54.416  43.558  0.00  0.00    -0.052 C 
BRANCH   5   6
ATOM      6  C   UNL     1      84.887  54.008  43.811  0.00  0.00    -0.053 C 
BRANCH   6   7
ATOM      7  C   UNL     1      84.758  52.886  44.856  0.00  0.00    -0.053 C 
BRANCH   7   9
ATOM      8  C   UNL     1      83.255  51.883  43.051  0.00  0.00    -0.065 C 
ATOM      9  C   UNL     1      84.131  51.610  44.275  0.00  0.00    -0.056 C 
ENDBRANCH   7   9
ENDBRANCH   6   7
ENDBRANCH   5   6
ENDBRANCH   4   5
ENDBRANCH   1   4
BRANCH   1  10
ATOM     10  C   UNL     1      85.627  56.863  46.203  0.00  0.00    -0.018 C 
BRANCH  10  11
ATOM     11  C   UNL     1      85.125  55.757  47.098  0.00  0.00    -0.047 A 
ATOM     12  C   UNL     1      83.746  55.534  47.251  0.00  0.00    -0.059 A 
ATOM     13  C   UNL     1      83.287  54.490  48.059  0.00  0.00    -0.062 A 
ATOM     14  C   UNL     1      84.199  53.658  48.716  0.00  0.00    -0.062 A 
ATOM     15  C   UNL     1      85.572  53.868  48.562  0.00  0.00    -0.062 A 
ATOM     16  C   UNL     1      86.035  54.910  47.754  0.00  0.00    -0.059 A 
ENDBRANCH  10  11
ENDBRANCH   1  10
TORSDOF 8
ENDMDL
MODEL 3
REMARK VINA RESULT:    -5.552      0.973      3.338
REMARK INTER + INTRA:         -10.038
REMARK INTER:                  -8.044
REMARK INTRA:                  -1.994
REMARK UNBOUND:                -1.890
REMARK  Name = 
REMARK  9 active torsions:
REMARK  status: ('A' for Active; 'I' for Inactive)
REMARK    1  A    between atoms: C_1  and  C_2
REMARK    2  A    between atoms: C_2  and  C_3
REMARK    3  A    between atoms: C_3  and  C_4
REMARK    4  A    between atoms: C_4  and  C_5
REMARK    5  A    between atoms: C_5  and  C_6
REMARK    6  A    between atoms: C_6  and  C_7
REMARK    7  A    between atoms: C_7  and  C_8
REMARK    8  A    between atoms: C_7  and  C_15
REMARK    9  A    between atoms: C_8  and  C_9
REMARK                            x       y       z     vdW  Elec       q    Type
REMARK                         _______ _______ _______ _____ _____    ______ ____
ROOT
ATOM      1  C   UNL     1      85.513  56.539  45.123  0.00  0.00    +0.018 C 
ENDROOT
BRANCH   1   2
ATOM      2  C   UNL     1      85.816  57.886  44.512  0.00  0.00    +0.124 C 
ATOM      3  O   UNL     1      85.607  58.098  43.327  0.00  0.00    -0.301 OA
ENDBRANCH   1   2
BRANCH   1   4
ATOM      4  C   UNL     1      84.374  56.642  46.160  0.00  0.00    -0.043 C 
BRANCH   4   5
ATOM      5  C   UNL     1      84.639  55.775  47.405  0.00  0.00    -0.052 C 
BRANCH   5   6
ATOM      6  C   UNL     1      83.474  54.826  47.726  0.00  0.00    -0.053 C 
BRANCH   6   7
ATOM      7  C   UNL     1      83.948  53.467  48.269  0.00  0.00    -0.053 C 
BRANCH   7   9
ATOM      8  C   UNL     1      85.970  52.073  48.968  0.00  0.00    -0.065 C 
ATOM      9  C   UNL     1      85.439  53.468  48.639  0.00  0.00    -0.056 C 
ENDBRANCH   7   9
ENDBRANCH   6   7
ENDBRANCH   5   6
ENDBRANCH   4   5
ENDBRANCH   1   4
BRANCH   1  10
ATOM     10  C   UNL     1      85.156  55.508  44.031  0.00  0.00    -0.018 C 
BRANCH  10  11
ATOM     11  C   UNL     1      85.404  54.093  44.492  0.00  0.00    -0.047 A 
ATOM     12  C   UNL     1      86.658  53.720  45.006  0.00  0.00    -0.059 A 
ATOM     13  C   UNL     1      86.874  52.415  45.458  0.00  0.00    -0.062 A 
ATOM     14  C   UNL     1      85.840  51.475  45.406  0.00  0.00    -0.062 A 
ATOM     15  C   UNL     1      84.588  51.841  44.904  0.00  0.00    -0.062 A 
ATOM     16  C   UNL     1      84.368  53.144  44.452  0.00  0.00    -0.059 A 
ENDBRANCH  10  11
ENDBRANCH   1  10
TORSDOF 8
ENDMDL
MODEL 4
REMARK VINA RESULT:    -5.491      5.007      7.770
REMARK INTER + INTRA:          -9.948
REMARK INTER:                  -8.351
REMARK INTRA:                  -1.598
REMARK UNBOUND:                -1.890
REMARK  Name = 
REMARK  9 active torsions:
REMARK  status: ('A' for Active; 'I' for Inactive)
REMARK    1  A    between atoms: C_1  and  C_2
REMARK    2  A    between atoms: C_2  and  C_3
REMARK    3  A    between atoms: C_3  and  C_4
REMARK    4  A    between atoms: C_4  and  C_5
REMARK    5  A    between atoms: C_5  and  C_6
REMARK    6  A    between atoms: C_6  and  C_7
REMARK    7  A    between atoms: C_7  and  C_8
REMARK    8  A    between atoms: C_7  and  C_15
REMARK    9  A    between atoms: C_8  and  C_9
REMARK                            x       y       z     vdW  Elec       q    Type
REMARK                         _______ _______ _______ _____ _____    ______ ____
ROOT
ATOM      1  C   UNL     1      89.381  51.573  41.200  0.00  0.00    +0.018 C 
ENDROOT
BRANCH   1   2
ATOM      2  C   UNL     1      89.610  52.133  39.816  0.00  0.00    +0.124 C 
ATOM      3  O   UNL     1      89.027  51.670  38.848  0.00  0.00    -0.301 OA
ENDBRANCH   1   2
BRANCH   1   4
ATOM      4  C   UNL     1      88.550  52.547  42.062  0.00  0.00    -0.043 C 
BRANCH   4   5
ATOM      5  C   UNL     1      87.116  52.037  42.297  0.00  0.00    -0.052 C 
BRANCH   5   6
ATOM      6  C   UNL     1      86.739  51.993  43.787  0.00  0.00    -0.053 C 
BRANCH   6   7
ATOM      7  C   UNL     1      87.774  51.239  44.639  0.00  0.00    -0.053 C 
BRANCH   7   9
ATOM      8  C   UNL     1      85.952  49.449  44.674  0.00  0.00    -0.065 C 
ATOM      9  C   UNL     1      87.450  49.743  44.771  0.00  0.00    -0.056 C 
ENDBRANCH   7   9
ENDBRANCH   6   7
ENDBRANCH   5   6
ENDBRANCH   4   5
ENDBRANCH   1   4
BRANCH   1  10
ATOM     10  C   UNL     1      88.692  50.194  41.126  0.00  0.00    -0.018 C 
BRANCH  10  11
ATOM     11  C   UNL     1      89.510  49.122  41.803  0.00  0.00    -0.047 A 
ATOM     12  C   UNL     1      90.547  49.467  42.687  0.00  0.00    -0.059 A 
ATOM     13  C   UNL     1      91.282  48.470  43.333  0.00  0.00    -0.062 A 
ATOM     14  C   UNL     1      90.987  47.122  43.107  0.00  0.00    -0.062 A 
ATOM     15  C   UNL     1      89.952  46.771  42.236  0.00  0.00    -0.062 A 
ATOM     16  C   UNL     1      89.213  47.765  41.588  0.00  0.00    -0.059 A 
ENDBRANCH  10  11
ENDBRANCH   1  10
TORSDOF 8
ENDMDL
MODEL 5
REMARK VINA RESULT:    -5.456      5.436      7.777
REMARK INTER + INTRA:          -9.897
REMARK INTER:                  -8.111
REMARK INTRA:                  -1.786
REMARK UNBOUND:                -1.890
REMARK  Name = 
REMARK  9 active torsions:
REMARK  status: ('A' for Active; 'I' for Inactive)
REMARK    1  A    between atoms: C_1  and  C_2
REMARK    2  A    between atoms: C_2  and  C_3
REMARK    3  A    between atoms: C_3  and  C_4
REMARK    4  A    between atoms: C_4  and  C_5
REMARK    5  A    between atoms: C_5  and  C_6
REMARK    6  A    between atoms: C_6  and  C_7
REMARK    7  A    between atoms: C_7  and  C_8
REMARK    8  A    between atoms: C_7  and  C_15
REMARK    9  A    between atoms: C_8  and  C_9
REMARK                            x       y       z     vdW  Elec       q    Type
REMARK                         _______ _______ _______ _____ _____    ______ ____
ROOT
ATOM      1  C   UNL     1      89.548  51.692  41.593  0.00  0.00    +0.018 C 
ENDROOT
BRANCH   1   2
ATOM      2  C   UNL     1      90.112  52.710  40.629  0.00  0.00    +0.124 C 
ATOM      3  O   UNL     1      89.755  53.877  40.671  0.00  0.00    -0.301 OA
ENDBRANCH   1   2
BRANCH   1   4
ATOM      4  C   UNL     1      88.214  52.180  42.197  0.00  0.00    -0.043 C 
BRANCH   4   5
ATOM      5  C   UNL     1      87.004  51.412  41.633  0.00  0.00    -0.052 C 
BRANCH   5   6
ATOM      6  C   UNL     1      86.115  50.814  42.734  0.00  0.00    -0.053 C 
BRANCH   6   7
ATOM      7  C   UNL     1      86.476  49.354  43.059  0.00  0.00    -0.053 C 
BRANCH   7   9
ATOM      8  C   UNL     1      87.889  50.077  45.060  0.00  0.00    -0.065 C 
ATOM      9  C   UNL     1      86.791  49.143  44.548  0.00  0.00    -0.056 C 
ENDBRANCH   7   9
ENDBRANCH   6   7
ENDBRANCH   5   6
ENDBRANCH   4   5
ENDBRANCH   1   4
BRANCH   1  10
ATOM     10  C   UNL     1      89.359  50.326  40.900  0.00  0.00    -0.018 C 
BRANCH  10  11
ATOM     11  C   UNL     1      89.908  49.194  41.734  0.00  0.00    -0.047 A 
ATOM     12  C   UNL     1      89.544  47.865  41.458  0.00  0.00    -0.059 A 
ATOM     13  C   UNL     1      90.078  46.818  42.215  0.00  0.00    -0.062 A 
ATOM     14  C   UNL     1      90.980  47.088  43.248  0.00  0.00    -0.062 A 
ATOM     15  C   UNL     1      91.353  48.407  43.523  0.00  0.00    -0.062 A 
ATOM     16  C   UNL     1      90.823  49.457  42.768  0.00  0.00    -0.059 A 
ENDBRANCH  10  11
ENDBRANCH   1  10
TORSDOF 8
ENDMDL
MODEL 6
REMARK VINA RESULT:    -5.417      1.395      2.725
REMARK INTER + INTRA:          -9.841
REMARK INTER:                  -8.603
REMARK INTRA:                  -1.238
REMARK UNBOUND:                -1.890
REMARK  Name = 
REMARK  9 active torsions:
REMARK  status: ('A' for Active; 'I' for Inactive)
REMARK    1  A    between atoms: C_1  and  C_2
REMARK    2  A    between atoms: C_2  and  C_3
REMARK    3  A    between atoms: C_3  and  C_4
REMARK    4  A    between atoms: C_4  and  C_5
REMARK    5  A    between atoms: C_5  and  C_6
REMARK    6  A    between atoms: C_6  and  C_7
REMARK    7  A    between atoms: C_7  and  C_8
REMARK    8  A    between atoms: C_7  and  C_15
REMARK    9  A    between atoms: C_8  and  C_9
REMARK                            x       y       z     vdW  Elec       q    Type
REMARK                         _______ _______ _______ _____ _____    ______ ____
ROOT
ATOM      1  C   UNL     1      85.727  56.633  44.940  0.00  0.00    +0.018 C 
ENDROOT
BRANCH   1   2
ATOM      2  C   UNL     1      85.596  57.995  44.300  0.00  0.00    +0.124 C 
ATOM      3  O   UNL     1      84.906  58.863  44.811  0.00  0.00    -0.301 OA
ENDBRANCH   1   2
BRANCH   1   4
ATOM      4  C   UNL     1      86.931  55.860  44.360  0.00  0.00    -0.043 C 
BRANCH   4   5
ATOM      5  C   UNL     1      86.494  54.720  43.421  0.00  0.00    -0.052 C 
BRANCH   5   6
ATOM      6  C   UNL     1      85.083  54.199  43.738  0.00  0.00    -0.053 C 
BRANCH   6   7
ATOM      7  C   UNL     1      84.192  54.102  42.487  0.00  0.00    -0.053 C 
BRANCH   7   9
ATOM      8  C   UNL     1      83.981  55.138  40.163  0.00  0.00    -0.065 C 
ATOM      9  C   UNL     1      84.204  55.392  41.654  0.00  0.00    -0.056 C 
ENDBRANCH   7   9
ENDBRANCH   6   7
ENDBRANCH   5   6
ENDBRANCH   4   5
ENDBRANCH   1   4
BRANCH   1  10
ATOM     10  C   UNL     1      85.852  56.756  46.473  0.00  0.00    -0.018 C 
BRANCH  10  11
ATOM     11  C   UNL     1      85.195  55.599  47.184  0.00  0.00    -0.047 A 
ATOM     12  C   UNL     1      83.794  55.516  47.267  0.00  0.00    -0.059 A 
ATOM     13  C   UNL     1      83.189  54.428  47.902  0.00  0.00    -0.062 A 
ATOM     14  C   UNL     1      83.976  53.413  48.455  0.00  0.00    -0.062 A 
ATOM     15  C   UNL     1      85.369  53.484  48.370  0.00  0.00    -0.062 A 
ATOM     16  C   UNL     1      85.978  54.570  47.735  0.00  0.00    -0.059 A 
ENDBRANCH  10  11
ENDBRANCH   1  10
TORSDOF 8
ENDMDL
MODEL 7
REMARK VINA RESULT:    -5.103      1.867      2.430
REMARK INTER + INTRA:          -9.379
REMARK INTER:                  -8.614
REMARK INTRA:                  -0.764
REMARK UNBOUND:                -1.890
REMARK  Name = 
REMARK  9 active torsions:
REMARK  status: ('A' for Active; 'I' for Inactive)
REMARK    1  A    between atoms: C_1  and  C_2
REMARK    2  A    between atoms: C_2  and  C_3
REMARK    3  A    between atoms: C_3  and  C_4
REMARK    4  A    between atoms: C_4  and  C_5
REMARK    5  A    between atoms: C_5  and  C_6
REMARK    6  A    between atoms: C_6  and  C_7
REMARK    7  A    between atoms: C_7  and  C_8
REMARK    8  A    between atoms: C_7  and  C_15
REMARK    9  A    between atoms: C_8  and  C_9
REMARK                            x       y       z     vdW  Elec       q    Type
REMARK                         _______ _______ _______ _____ _____    ______ ____
ROOT
ATOM      1  C   UNL     1      85.210  56.252  44.552  0.00  0.00    +0.018 C 
ENDROOT
BRANCH   1   2
ATOM      2  C   UNL     1      85.209  57.747  44.337  0.00  0.00    +0.124 C 
ATOM      3  O   UNL     1      85.618  58.229  43.292  0.00  0.00    -0.301 OA
ENDBRANCH   1   2
BRANCH   1   4
ATOM      4  C   UNL     1      85.458  55.500  43.226  0.00  0.00    -0.043 C 
BRANCH   4   5
ATOM      5  C   UNL     1      86.727  54.630  43.279  0.00  0.00    -0.052 C 
BRANCH   5   6
ATOM      6  C   UNL     1      86.579  53.316  42.495  0.00  0.00    -0.053 C 
BRANCH   6   7
ATOM      7  C   UNL     1      87.828  52.423  42.591  0.00  0.00    -0.053 C 
BRANCH   7   9
ATOM      8  C   UNL     1      89.709  51.737  41.006  0.00  0.00    -0.065 C 
ATOM      9  C   UNL     1      88.961  52.896  41.666  0.00  0.00    -0.056 C 
ENDBRANCH   7   9
ENDBRANCH   6   7
ENDBRANCH   5   6
ENDBRANCH   4   5
ENDBRANCH   1   4
BRANCH   1  10
ATOM     10  C   UNL     1      86.264  55.849  45.605  0.00  0.00    -0.018 C 
BRANCH  10  11
ATOM     11  C   UNL     1      85.641  55.127  46.775  0.00  0.00    -0.047 A 
ATOM     12  C   UNL     1      84.605  55.726  47.512  0.00  0.00    -0.059 A 
ATOM     13  C   UNL     1      84.012  55.041  48.577  0.00  0.00    -0.062 A 
ATOM     14  C   UNL     1      84.445  53.754  48.911  0.00  0.00    -0.062 A 
ATOM     15  C   UNL     1      85.470  53.149  48.177  0.00  0.00    -0.062 A 
ATOM     16  C   UNL     1      86.064  53.830  47.111  0.00  0.00    -0.059 A 
ENDBRANCH  10  11
ENDBRANCH   1  10
TORSDOF 8
ENDMDL
MODEL 8
REMARK VINA RESULT:    -5.093      1.749      3.747
REMARK INTER + INTRA:          -9.365
REMARK INTER:                  -8.115
REMARK INTRA:                  -1.250
REMARK UNBOUND:                -1.890
REMARK  Name = 
REMARK  9 active torsions:
REMARK  status: ('A' for Active; 'I' for Inactive)
REMARK    1  A    between atoms: C_1  and  C_2
REMARK    2  A    between atoms: C_2  and  C_3
REMARK    3  A    between atoms: C_3  and  C_4
REMARK    4  A    between atoms: C_4  and  C_5
REMARK    5  A    between atoms: C_5  and  C_6
REMARK    6  A    between atoms: C_6  and  C_7
REMARK    7  A    between atoms: C_7  and  C_8
REMARK    8  A    between atoms: C_7  and  C_15
REMARK    9  A    between atoms: C_8  and  C_9
REMARK                            x       y       z     vdW  Elec       q    Type
REMARK                         _______ _______ _______ _____ _____    ______ ____
ROOT
ATOM      1  C   UNL     1      85.368  53.881  43.782  0.00  0.00    +0.018 C 
ENDROOT
BRANCH   1   2
ATOM      2  C   UNL     1      86.693  53.433  43.213  0.00  0.00    +0.124 C 
ATOM      3  O   UNL     1      87.426  54.222  42.637  0.00  0.00    -0.301 OA
ENDBRANCH   1   2
BRANCH   1   4
ATOM      4  C   UNL     1      84.341  54.142  42.659  0.00  0.00    -0.043 C 
BRANCH   4   5
ATOM      5  C   UNL     1      84.349  55.610  42.193  0.00  0.00    -0.052 C 
BRANCH   5   6
ATOM      6  C   UNL     1      84.083  56.598  43.341  0.00  0.00    -0.053 C 
BRANCH   6   7
ATOM      7  C   UNL     1      85.282  57.522  43.617  0.00  0.00    -0.053 C 
BRANCH   7   9
ATOM      8  C   UNL     1      84.758  58.580  45.882  0.00  0.00    -0.065 C 
ATOM      9  C   UNL     1      85.637  57.595  45.110  0.00  0.00    -0.056 C 
ENDBRANCH   7   9
ENDBRANCH   6   7
ENDBRANCH   5   6
ENDBRANCH   4   5
ENDBRANCH   1   4
BRANCH   1  10
ATOM     10  C   UNL     1      84.820  52.841  44.783  0.00  0.00    -0.018 C 
BRANCH  10  11
ATOM     11  C   UNL     1      84.858  53.354  46.201  0.00  0.00    -0.047 A 
ATOM     12  C   UNL     1      85.561  52.651  47.195  0.00  0.00    -0.059 A 
ATOM     13  C   UNL     1      85.615  53.146  48.502  0.00  0.00    -0.062 A 
ATOM     14  C   UNL     1      84.974  54.346  48.825  0.00  0.00    -0.062 A 
ATOM     15  C   UNL     1      84.280  55.054  47.840  0.00  0.00    -0.062 A 
ATOM     16  C   UNL     1      84.224  54.564  46.533  0.00  0.00    -0.059 A 
ENDBRANCH  10  11
ENDBRANCH   1  10
TORSDOF 8
ENDMDL
MODEL 9
REMARK VINA RESULT:    -5.046      2.332      4.967
REMARK INTER + INTRA:          -9.296
REMARK INTER:                  -7.406
REMARK INTRA:                  -1.890
REMARK UNBOUND:                -1.890
REMARK  Name = 
REMARK  9 active torsions:
REMARK  status: ('A' for Active; 'I' for Inactive)
REMARK    1  A    between atoms: C_1  and  C_2
REMARK    2  A    between atoms: C_2  and  C_3
REMARK    3  A    between atoms: C_3  and  C_4
REMARK    4  A    between atoms: C_4  and  C_5
REMARK    5  A    between atoms: C_5  and  C_6
REMARK    6  A    between atoms: C_6  and  C_7
REMARK    7  A    between atoms: C_7  and  C_8
REMARK    8  A    between atoms: C_7  and  C_15
REMARK    9  A    between atoms: C_8  and  C_9
REMARK                            x       y       z     vdW  Elec       q    Type
REMARK                         _______ _______ _______ _____ _____    ______ ____
ROOT
ATOM      1  C   UNL     1      86.539  52.400  43.232  0.00  0.00    +0.018 C 
ENDROOT
BRANCH   1   2
ATOM      2  C   UNL     1      87.285  51.217  42.661  0.00  0.00    +0.124 C 
ATOM      3  O   UNL     1      88.505  51.215  42.604  0.00  0.00    -0.301 OA
ENDBRANCH   1   2
BRANCH   1   4
ATOM      4  C   UNL     1      86.376  52.268  44.762  0.00  0.00    -0.043 C 
BRANCH   4   5
ATOM      5  C   UNL     1      84.898  52.172  45.184  0.00  0.00    -0.052 C 
BRANCH   5   6
ATOM      6  C   UNL     1      84.490  53.277  46.171  0.00  0.00    -0.053 C 
BRANCH   6   7
ATOM      7  C   UNL     1      85.613  53.632  47.161  0.00  0.00    -0.053 C 
BRANCH   7   9
ATOM      8  C   UNL     1      84.309  55.815  47.392  0.00  0.00    -0.065 C 
ATOM      9  C   UNL     1      85.678  55.137  47.463  0.00  0.00    -0.056 C 
ENDBRANCH   7   9
ENDBRANCH   6   7
ENDBRANCH   5   6
ENDBRANCH   4   5
ENDBRANCH   1   4
BRANCH   1  10
ATOM     10  C   UNL     1      87.252  53.722  42.877  0.00  0.00    -0.018 C 
BRANCH  10  11
ATOM     11  C   UNL     1      86.413  54.924  43.231  0.00  0.00    -0.047 A 
ATOM     12  C   UNL     1      86.925  55.931  44.068  0.00  0.00    -0.059 A 
ATOM     13  C   UNL     1      86.154  57.056  44.370  0.00  0.00    -0.062 A 
ATOM     14  C   UNL     1      84.868  57.189  43.836  0.00  0.00    -0.062 A 
ATOM     15  C   UNL     1      84.354  56.197  42.997  0.00  0.00    -0.062 A 
ATOM     16  C   UNL     1      85.123  55.071  42.691  0.00  0.00    -0.059 A 
ENDBRANCH  10  11
ENDBRANCH   1  10
TORSDOF 8
ENDMDL
