MODEL 1
REMARK VINA RESULT:    -8.325      0.000      0.000
REMARK INTER + INTRA:         -10.128
REMARK INTER:                  -9.969
REMARK INTRA:                  -0.159
REMARK UNBOUND:                -0.100
REMARK  Name = 
REMARK  7 active torsions:
REMARK  status: ('A' for Active; 'I' for Inactive)
REMARK    1  A    between atoms: C_1  and  O_2
REMARK    2  A    between atoms: O_2  and  C_3
REMARK    3  A    between atoms: C_4  and  O_5
REMARK    4  A    between atoms: O_5  and  C_6
REMARK    5  A    between atoms: C_19  and  O_23
REMARK    6  A    between atoms: C_20  and  O_21
REMARK    7  A    between atoms: O_21  and  C_22
REMARK                            x       y       z     vdW  Elec       q    Type
REMARK                         _______ _______ _______ _____ _____    ______ ____
ROOT
ATOM      1  C   UNL     1      87.578  51.423  43.945  0.00  0.00    +0.169 A 
ATOM      2  C   UNL     1      88.135  50.285  44.588  0.00  0.00    +0.163 A 
ATOM      3  C   UNL     1      87.917  50.092  45.966  0.00  0.00    -0.009 A 
ATOM      4  C   UNL     1      87.161  51.000  46.712  0.00  0.00    -0.013 A 
ATOM      5  C   UNL     1      86.606  52.130  46.081  0.00  0.00    +0.001 A 
ATOM      6  C   UNL     1      86.814  52.343  44.700  0.00  0.00    +0.029 A 
ATOM      7  C   UNL     1      86.248  53.482  44.094  0.00  0.00    -0.050 A 
ATOM      8  C   UNL     1      85.493  54.390  44.839  0.00  0.00    -0.050 A 
ATOM      9  C   UNL     1      85.277  54.186  46.212  0.00  0.00    +0.029 A 
ATOM     10  C   UNL     1      85.841  53.050  46.836  0.00  0.00    +0.001 A 
ATOM     11  C   UNL     1      85.640  52.831  48.217  0.00  0.00    -0.013 A 
ATOM     12  C   UNL     1      86.200  51.702  48.831  0.00  0.00    -0.053 A 
ATOM     13  C   UNL     1      86.953  50.794  48.085  0.00  0.00    -0.053 A 
ATOM     14  C   UNL     1      84.887  53.747  48.964  0.00  0.00    -0.009 A 
ATOM     15  C   UNL     1      84.329  54.874  48.353  0.00  0.00    +0.160 A 
ATOM     16  C   UNL     1      84.509  55.092  46.974  0.00  0.00    +0.169 A 
ENDROOT
BRANCH   1  18
ATOM     17  C   UNL     1      88.878  52.296  41.950  0.00  0.00    +0.079 C 
ATOM     18  O   UNL     1      87.749  51.692  42.570  0.00  0.00    -0.491 OA
ENDBRANCH   1  18
BRANCH   2  19
ATOM     19  O   UNL     1      88.896  49.365  43.849  0.00  0.00    -0.491 OA
ATOM     20  C   UNL     1      88.363  48.344  43.012  0.00  0.00    +0.079 C 
ENDBRANCH   2  19
BRANCH  16  21
ATOM     21  O   UNL     1      83.932  56.212  46.368  0.00  0.00    -0.491 OA
ATOM     22  C   UNL     1      84.615  57.458  46.322  0.00  0.00    +0.079 C 
ENDBRANCH  16  21
BRANCH  15  23
ATOM     23  O   UNL     1      83.602  55.769  49.136  0.00  0.00    -0.503 OA
ATOM     24  H   UNL     1      83.940  56.049  49.964  0.00  0.00    +0.000 HD
ENDBRANCH  15  23
TORSDOF 4
ENDMDL
MODEL 2
REMARK VINA RESULT:    -8.020      4.429      6.689
REMARK INTER + INTRA:          -9.760
REMARK INTER:                  -9.599
REMARK INTRA:                  -0.161
REMARK UNBOUND:                -0.100
REMARK  Name = 
REMARK  7 active torsions:
REMARK  status: ('A' for Active; 'I' for Inactive)
REMARK    1  A    between atoms: C_1  and  O_2
REMARK    2  A    between atoms: O_2  and  C_3
REMARK    3  A    between atoms: C_4  and  O_5
REMARK    4  A    between atoms: O_5  and  C_6
REMARK    5  A    between atoms: C_19  and  O_23
REMARK    6  A    between atoms: C_20  and  O_21
REMARK    7  A    between atoms: O_21  and  C_22
REMARK                            x       y       z     vdW  Elec       q    Type
REMARK                         _______ _______ _______ _____ _____    ______ ____
ROOT
ATOM      1  C   UNL     1      86.268  46.376  43.581  0.00  0.00    +0.169 A 
ATOM      2  C   UNL     1      87.173  45.346  43.208  0.00  0.00    +0.163 A 
ATOM      3  C   UNL     1      88.389  45.684  42.583  0.00  0.00    -0.009 A 
ATOM      4  C   UNL     1      88.722  47.016  42.326  0.00  0.00    -0.013 A 
ATOM      5  C   UNL     1      87.830  48.042  42.693  0.00  0.00    +0.001 A 
ATOM      6  C   UNL     1      86.605  47.724  43.320  0.00  0.00    +0.029 A 
ATOM      7  C   UNL     1      85.731  48.770  43.677  0.00  0.00    -0.050 A 
ATOM      8  C   UNL     1      86.064  50.101  43.419  0.00  0.00    -0.050 A 
ATOM      9  C   UNL     1      87.281  50.429  42.801  0.00  0.00    +0.029 A 
ATOM     10  C   UNL     1      88.168  49.392  42.433  0.00  0.00    +0.001 A 
ATOM     11  C   UNL     1      89.393  49.701  41.804  0.00  0.00    -0.013 A 
ATOM     12  C   UNL     1      90.270  48.669  41.443  0.00  0.00    -0.053 A 
ATOM     13  C   UNL     1      89.938  47.338  41.702  0.00  0.00    -0.053 A 
ATOM     14  C   UNL     1      89.722  51.038  41.541  0.00  0.00    -0.009 A 
ATOM     15  C   UNL     1      88.848  52.068  41.900  0.00  0.00    +0.160 A 
ATOM     16  C   UNL     1      87.632  51.771  42.542  0.00  0.00    +0.169 A 
ENDROOT
BRANCH   1  18
ATOM     17  C   UNL     1      83.841  45.639  43.595  0.00  0.00    +0.079 C 
ATOM     18  O   UNL     1      85.030  46.123  44.210  0.00  0.00    -0.491 OA
ENDBRANCH   1  18
BRANCH   2  19
ATOM     19  O   UNL     1      86.849  44.003  43.462  0.00  0.00    -0.491 OA
ATOM     20  C   UNL     1      87.542  43.148  44.366  0.00  0.00    +0.079 C 
ENDBRANCH   2  19
BRANCH  16  21
ATOM     21  O   UNL     1      86.773  52.809  42.913  0.00  0.00    -0.491 OA
ATOM     22  C   UNL     1      85.865  53.384  41.981  0.00  0.00    +0.079 C 
ENDBRANCH  16  21
BRANCH  15  23
ATOM     23  O   UNL     1      89.206  53.383  41.604  0.00  0.00    -0.503 OA
ATOM     24  H   UNL     1      88.653  54.091  41.872  0.00  0.00    +0.000 HD
ENDBRANCH  15  23
TORSDOF 4
ENDMDL
MODEL 3
REMARK VINA RESULT:    -8.017      4.259      5.689
REMARK INTER + INTRA:          -9.756
REMARK INTER:                  -9.628
REMARK INTRA:                  -0.128
REMARK UNBOUND:                -0.100
REMARK  Name = 
REMARK  7 active torsions:
REMARK  status: ('A' for Active; 'I' for Inactive)
REMARK    1  A    between atoms: C_1  and  O_2
REMARK    2  A    between atoms: O_2  and  C_3
REMARK    3  A    between atoms: C_4  and  O_5
REMARK    4  A    between atoms: O_5  and  C_6
REMARK    5  A    between atoms: C_19  and  O_23
REMARK    6  A    between atoms: C_20  and  O_21
REMARK    7  A    between atoms: O_21  and  C_22
REMARK                            x       y       z     vdW  Elec       q    Type
REMARK                         _______ _______ _______ _____ _____    ______ ____
ROOT
ATOM      1  C   UNL     1      84.084  48.960  44.276  0.00  0.00    +0.169 A 
ATOM      2  C   UNL     1      82.795  48.447  43.971  0.00  0.00    +0.163 A 
ATOM      3  C   UNL     1      81.848  49.278  43.340  0.00  0.00    -0.009 A 
ATOM      4  C   UNL     1      82.157  50.600  43.008  0.00  0.00    -0.013 A 
ATOM      5  C   UNL     1      83.433  51.115  43.307  0.00  0.00    +0.001 A 
ATOM      6  C   UNL     1      84.396  50.298  43.941  0.00  0.00    +0.029 A 
ATOM      7  C   UNL     1      85.664  50.839  44.229  0.00  0.00    -0.050 A 
ATOM      8  C   UNL     1      85.972  52.160  43.898  0.00  0.00    -0.050 A 
ATOM      9  C   UNL     1      85.024  52.980  43.264  0.00  0.00    +0.029 A 
ATOM     10  C   UNL     1      83.745  52.454  42.971  0.00  0.00    +0.001 A 
ATOM     11  C   UNL     1      82.776  53.265  42.340  0.00  0.00    -0.013 A 
ATOM     12  C   UNL     1      81.510  52.737  42.050  0.00  0.00    -0.053 A 
ATOM     13  C   UNL     1      81.203  51.416  42.380  0.00  0.00    -0.053 A 
ATOM     14  C   UNL     1      83.086  54.592  42.014  0.00  0.00    -0.009 A 
ATOM     15  C   UNL     1      84.348  55.119  42.304  0.00  0.00    +0.160 A 
ATOM     16  C   UNL     1      85.326  54.314  42.917  0.00  0.00    +0.169 A 
ENDROOT
BRANCH   1  18
ATOM     17  C   UNL     1      85.884  47.175  44.317  0.00  0.00    +0.079 C 
ATOM     18  O   UNL     1      85.088  48.195  44.907  0.00  0.00    -0.491 OA
ENDBRANCH   1  18
BRANCH   2  19
ATOM     19  O   UNL     1      82.473  47.119  44.299  0.00  0.00    -0.491 OA
ATOM     20  C   UNL     1      81.178  46.654  44.663  0.00  0.00    +0.079 C 
ENDBRANCH   2  19
BRANCH  16  21
ATOM     21  O   UNL     1      86.590  54.844  43.186  0.00  0.00    -0.491 OA
ATOM     22  C   UNL     1      86.808  55.699  44.301  0.00  0.00    +0.079 C 
ENDBRANCH  16  21
BRANCH  15  23
ATOM     23  O   UNL     1      84.609  56.449  41.979  0.00  0.00    -0.503 OA
ATOM     24  H   UNL     1      83.921  57.085  42.018  0.00  0.00    +0.000 HD
ENDBRANCH  15  23
TORSDOF 4
ENDMDL
MODEL 4
REMARK VINA RESULT:    -7.955      4.356      7.517
REMARK INTER + INTRA:          -9.682
REMARK INTER:                  -9.523
REMARK INTRA:                  -0.159
REMARK UNBOUND:                -0.100
REMARK  Name = 
REMARK  7 active torsions:
REMARK  status: ('A' for Active; 'I' for Inactive)
REMARK    1  A    between atoms: C_1  and  O_2
REMARK    2  A    between atoms: O_2  and  C_3
REMARK    3  A    between atoms: C_4  and  O_5
REMARK    4  A    between atoms: O_5  and  C_6
REMARK    5  A    between atoms: C_19  and  O_23
REMARK    6  A    between atoms: C_20  and  O_21
REMARK    7  A    between atoms: O_21  and  C_22
REMARK                            x       y       z     vdW  Elec       q    Type
REMARK                         _______ _______ _______ _____ _____    ______ ____
ROOT
ATOM      1  C   UNL     1      87.696  51.368  42.643  0.00  0.00    +0.169 A 
ATOM      2  C   UNL     1      88.917  51.535  41.936  0.00  0.00    +0.163 A 
ATOM      3  C   UNL     1      89.672  50.401  41.578  0.00  0.00    -0.009 A 
ATOM      4  C   UNL     1      89.239  49.114  41.905  0.00  0.00    -0.013 A 
ATOM      5  C   UNL     1      88.030  48.940  42.605  0.00  0.00    +0.001 A 
ATOM      6  C   UNL     1      87.258  50.065  42.974  0.00  0.00    +0.029 A 
ATOM      7  C   UNL     1      86.053  49.863  43.675  0.00  0.00    -0.050 A 
ATOM      8  C   UNL     1      85.620  48.577  44.001  0.00  0.00    -0.050 A 
ATOM      9  C   UNL     1      86.377  47.452  43.636  0.00  0.00    +0.029 A 
ATOM     10  C   UNL     1      87.591  47.636  42.936  0.00  0.00    +0.001 A 
ATOM     11  C   UNL     1      88.369  46.518  42.566  0.00  0.00    -0.013 A 
ATOM     12  C   UNL     1      89.572  46.706  41.870  0.00  0.00    -0.053 A 
ATOM     13  C   UNL     1      90.003  47.993  41.542  0.00  0.00    -0.053 A 
ATOM     14  C   UNL     1      87.936  45.228  42.900  0.00  0.00    -0.009 A 
ATOM     15  C   UNL     1      86.737  45.039  43.594  0.00  0.00    +0.160 A 
ATOM     16  C   UNL     1      85.947  46.146  43.954  0.00  0.00    +0.169 A 
ENDROOT
BRANCH   1  18
ATOM     17  C   UNL     1      86.049  53.246  42.204  0.00  0.00    +0.079 C 
ATOM     18  O   UNL     1      86.881  52.450  43.039  0.00  0.00    -0.491 OA
ENDBRANCH   1  18
BRANCH   2  19
ATOM     19  O   UNL     1      89.362  52.824  41.601  0.00  0.00    -0.491 OA
ATOM     20  C   UNL     1      90.244  53.136  40.527  0.00  0.00    +0.079 C 
ENDBRANCH   2  19
BRANCH  16  21
ATOM     21  O   UNL     1      84.741  45.945  44.632  0.00  0.00    -0.491 OA
ATOM     22  C   UNL     1      83.539  45.661  43.928  0.00  0.00    +0.079 C 
ENDBRANCH  16  21
BRANCH  15  23
ATOM     23  O   UNL     1      86.352  43.740  43.924  0.00  0.00    -0.503 OA
ATOM     24  H   UNL     1      86.240  43.497  44.822  0.00  0.00    +0.000 HD
ENDBRANCH  15  23
TORSDOF 4
ENDMDL
MODEL 5
REMARK VINA RESULT:    -7.896      1.410      6.190
REMARK INTER + INTRA:          -9.611
REMARK INTER:                  -9.429
REMARK INTRA:                  -0.182
REMARK UNBOUND:                -0.100
REMARK  Name = 
REMARK  7 active torsions:
REMARK  status: ('A' for Active; 'I' for Inactive)
REMARK    1  A    between atoms: C_1  and  O_2
REMARK    2  A    between atoms: O_2  and  C_3
REMARK    3  A    between atoms: C_4  and  O_5
REMARK    4  A    between atoms: O_5  and  C_6
REMARK    5  A    between atoms: C_19  and  O_23
REMARK    6  A    between atoms: C_20  and  O_21
REMARK    7  A    between atoms: O_21  and  C_22
REMARK                            x       y       z     vdW  Elec       q    Type
REMARK                         _______ _______ _______ _____ _____    ______ ____
ROOT
ATOM      1  C   UNL     1      85.816  54.750  45.323  0.00  0.00    +0.169 A 
ATOM      2  C   UNL     1      85.749  54.528  46.724  0.00  0.00    +0.163 A 
ATOM      3  C   UNL     1      86.226  53.314  47.258  0.00  0.00    -0.009 A 
ATOM      4  C   UNL     1      86.766  52.326  46.432  0.00  0.00    -0.013 A 
ATOM      5  C   UNL     1      86.836  52.539  45.041  0.00  0.00    +0.001 A 
ATOM      6  C   UNL     1      86.362  53.749  44.486  0.00  0.00    +0.029 A 
ATOM      7  C   UNL     1      86.443  53.936  43.092  0.00  0.00    -0.050 A 
ATOM      8  C   UNL     1      86.983  52.948  42.267  0.00  0.00    -0.050 A 
ATOM      9  C   UNL     1      87.462  51.744  42.808  0.00  0.00    +0.029 A 
ATOM     10  C   UNL     1      87.384  51.538  44.205  0.00  0.00    +0.001 A 
ATOM     11  C   UNL     1      87.853  50.331  44.767  0.00  0.00    -0.013 A 
ATOM     12  C   UNL     1      87.776  50.133  46.153  0.00  0.00    -0.053 A 
ATOM     13  C   UNL     1      87.237  51.121  46.978  0.00  0.00    -0.053 A 
ATOM     14  C   UNL     1      88.389  49.338  43.935  0.00  0.00    -0.009 A 
ATOM     15  C   UNL     1      88.466  49.535  42.554  0.00  0.00    +0.160 A 
ATOM     16  C   UNL     1      88.016  50.741  41.985  0.00  0.00    +0.169 A 
ENDROOT
BRANCH   1  18
ATOM     17  C   UNL     1      86.063  57.167  44.595  0.00  0.00    +0.079 C 
ATOM     18  O   UNL     1      85.359  55.936  44.708  0.00  0.00    -0.491 OA
ENDBRANCH   1  18
BRANCH   2  19
ATOM     19  O   UNL     1      85.208  55.514  47.565  0.00  0.00    -0.491 OA
ATOM     20  C   UNL     1      83.866  55.544  48.041  0.00  0.00    +0.079 C 
ENDBRANCH   2  19
BRANCH  16  21
ATOM     21  O   UNL     1      88.114  50.935  40.605  0.00  0.00    -0.491 OA
ATOM     22  C   UNL     1      89.290  51.480  40.019  0.00  0.00    +0.079 C 
ENDBRANCH  16  21
BRANCH  15  23
ATOM     23  O   UNL     1      88.989  48.514  41.760  0.00  0.00    -0.503 OA
ATOM     24  H   UNL     1      88.849  48.522  40.834  0.00  0.00    +0.000 HD
ENDBRANCH  15  23
TORSDOF 4
ENDMDL
MODEL 6
REMARK VINA RESULT:    -7.662      3.823      6.880
REMARK INTER + INTRA:          -9.330
REMARK INTER:                  -9.240
REMARK INTRA:                  -0.090
REMARK UNBOUND:                -0.100
REMARK  Name = 
REMARK  7 active torsions:
REMARK  status: ('A' for Active; 'I' for Inactive)
REMARK    1  A    between atoms: C_1  and  O_2
REMARK    2  A    between atoms: O_2  and  C_3
REMARK    3  A    between atoms: C_4  and  O_5
REMARK    4  A    between atoms: O_5  and  C_6
REMARK    5  A    between atoms: C_19  and  O_23
REMARK    6  A    between atoms: C_20  and  O_21
REMARK    7  A    between atoms: O_21  and  C_22
REMARK                            x       y       z     vdW  Elec       q    Type
REMARK                         _______ _______ _______ _____ _____    ______ ____
ROOT
ATOM      1  C   UNL     1      85.562  55.011  44.217  0.00  0.00    +0.169 A 
ATOM      2  C   UNL     1      85.002  56.077  43.463  0.00  0.00    +0.163 A 
ATOM      3  C   UNL     1      83.880  55.834  42.647  0.00  0.00    -0.009 A 
ATOM      4  C   UNL     1      83.307  54.562  42.567  0.00  0.00    -0.013 A 
ATOM      5  C   UNL     1      83.858  53.501  43.311  0.00  0.00    +0.001 A 
ATOM      6  C   UNL     1      84.984  53.723  44.135  0.00  0.00    +0.029 A 
ATOM      7  C   UNL     1      85.515  52.644  44.868  0.00  0.00    -0.050 A 
ATOM      8  C   UNL     1      84.943  51.372  44.788  0.00  0.00    -0.050 A 
ATOM      9  C   UNL     1      83.821  51.141  43.976  0.00  0.00    +0.029 A 
ATOM     10  C   UNL     1      83.278  52.212  43.230  0.00  0.00    +0.001 A 
ATOM     11  C   UNL     1      82.154  51.998  42.402  0.00  0.00    -0.013 A 
ATOM     12  C   UNL     1      81.618  53.064  41.667  0.00  0.00    -0.053 A 
ATOM     13  C   UNL     1      82.189  54.335  41.748  0.00  0.00    -0.053 A 
ATOM     14  C   UNL     1      81.586  50.719  42.319  0.00  0.00    -0.009 A 
ATOM     15  C   UNL     1      82.120  49.655  43.051  0.00  0.00    +0.160 A 
ATOM     16  C   UNL     1      83.230  49.862  43.892  0.00  0.00    +0.169 A 
ENDROOT
BRANCH   1  18
ATOM     17  C   UNL     1      86.679  55.480  46.445  0.00  0.00    +0.079 C 
ATOM     18  O   UNL     1      86.685  55.169  45.057  0.00  0.00    -0.491 OA
ENDBRANCH   1  18
BRANCH   2  19
ATOM     19  O   UNL     1      85.568  57.360  43.536  0.00  0.00    -0.491 OA
ATOM     20  C   UNL     1      85.326  58.307  44.572  0.00  0.00    +0.079 C 
ENDBRANCH   2  19
BRANCH  16  21
ATOM     21  O   UNL     1      83.745  48.797  44.634  0.00  0.00    -0.491 OA
ATOM     22  C   UNL     1      84.696  47.900  44.073  0.00  0.00    +0.079 C 
ENDBRANCH  16  21
BRANCH  15  23
ATOM     23  O   UNL     1      81.536  48.396  42.925  0.00  0.00    -0.503 OA
ATOM     24  H   UNL     1      82.059  47.624  43.019  0.00  0.00    +0.000 HD
ENDBRANCH  15  23
TORSDOF 4
ENDMDL
MODEL 7
REMARK VINA RESULT:    -7.502      5.159      6.392
REMARK INTER + INTRA:          -9.137
REMARK INTER:                  -8.974
REMARK INTRA:                  -0.163
REMARK UNBOUND:                -0.100
REMARK  Name = 
REMARK  7 active torsions:
REMARK  status: ('A' for Active; 'I' for Inactive)
REMARK    1  A    between atoms: C_1  and  O_2
REMARK    2  A    between atoms: O_2  and  C_3
REMARK    3  A    between atoms: C_4  and  O_5
REMARK    4  A    between atoms: O_5  and  C_6
REMARK    5  A    between atoms: C_19  and  O_23
REMARK    6  A    between atoms: C_20  and  O_21
REMARK    7  A    between atoms: O_21  and  C_22
REMARK                            x       y       z     vdW  Elec       q    Type
REMARK                         _______ _______ _______ _____ _____    ______ ____
ROOT
ATOM      1  C   UNL     1      80.815  49.633  43.428  0.00  0.00    +0.169 A 
ATOM      2  C   UNL     1      81.152  48.364  43.970  0.00  0.00    +0.163 A 
ATOM      3  C   UNL     1      82.504  48.047  44.206  0.00  0.00    -0.009 A 
ATOM      4  C   UNL     1      83.520  48.961  43.918  0.00  0.00    -0.013 A 
ATOM      5  C   UNL     1      83.194  50.221  43.381  0.00  0.00    +0.001 A 
ATOM      6  C   UNL     1      81.844  50.558  43.135  0.00  0.00    +0.029 A 
ATOM      7  C   UNL     1      81.546  51.825  42.596  0.00  0.00    -0.050 A 
ATOM      8  C   UNL     1      82.561  52.739  42.308  0.00  0.00    -0.050 A 
ATOM      9  C   UNL     1      83.906  52.416  42.552  0.00  0.00    +0.029 A 
ATOM     10  C   UNL     1      84.223  51.147  43.089  0.00  0.00    +0.001 A 
ATOM     11  C   UNL     1      85.570  50.802  43.335  0.00  0.00    -0.013 A 
ATOM     12  C   UNL     1      85.879  49.543  43.869  0.00  0.00    -0.053 A 
ATOM     13  C   UNL     1      84.863  48.631  44.159  0.00  0.00    -0.053 A 
ATOM     14  C   UNL     1      86.588  51.719  43.039  0.00  0.00    -0.009 A 
ATOM     15  C   UNL     1      86.281  52.974  42.506  0.00  0.00    +0.160 A 
ATOM     16  C   UNL     1      84.941  53.334  42.272  0.00  0.00    +0.169 A 
ENDROOT
BRANCH   1  18
ATOM     17  C   UNL     1      78.519  50.470  44.104  0.00  0.00    +0.079 C 
ATOM     18  O   UNL     1      79.487  50.029  43.160  0.00  0.00    -0.491 OA
ENDBRANCH   1  18
BRANCH   2  19
ATOM     19  O   UNL     1      80.139  47.437  44.264  0.00  0.00    -0.491 OA
ATOM     20  C   UNL     1      80.245  46.376  45.209  0.00  0.00    +0.079 C 
ENDBRANCH   2  19
BRANCH  16  21
ATOM     21  O   UNL     1      84.643  54.598  41.756  0.00  0.00    -0.491 OA
ATOM     22  C   UNL     1      84.535  55.734  42.605  0.00  0.00    +0.079 C 
ENDBRANCH  16  21
BRANCH  15  23
ATOM     23  O   UNL     1      87.325  53.849  42.209  0.00  0.00    -0.503 OA
ATOM     24  H   UNL     1      87.237  54.463  41.507  0.00  0.00    +0.000 HD
ENDBRANCH  15  23
TORSDOF 4
ENDMDL
MODEL 8
REMARK VINA RESULT:    -7.450      1.810      3.303
REMARK INTER + INTRA:          -9.074
REMARK INTER:                  -9.056
REMARK INTRA:                  -0.018
REMARK UNBOUND:                -0.100
REMARK  Name = 
REMARK  7 active torsions:
REMARK  status: ('A' for Active; 'I' for Inactive)
REMARK    1  A    between atoms: C_1  and  O_2
REMARK    2  A    between atoms: O_2  and  C_3
REMARK    3  A    between atoms: C_4  and  O_5
REMARK    4  A    between atoms: O_5  and  C_6
REMARK    5  A    between atoms: C_19  and  O_23
REMARK    6  A    between atoms: C_20  and  O_21
REMARK    7  A    between atoms: O_21  and  C_22
REMARK                            x       y       z     vdW  Elec       q    Type
REMARK                         _______ _______ _______ _____ _____    ______ ____
ROOT
ATOM      1  C   UNL     1      87.088  51.693  46.310  0.00  0.00    +0.169 A 
ATOM      2  C   UNL     1      86.837  51.172  47.607  0.00  0.00    +0.163 A 
ATOM      3  C   UNL     1      86.087  51.931  48.527  0.00  0.00    -0.009 A 
ATOM      4  C   UNL     1      85.585  53.189  48.184  0.00  0.00    -0.013 A 
ATOM      5  C   UNL     1      85.830  53.712  46.899  0.00  0.00    +0.001 A 
ATOM      6  C   UNL     1      86.581  52.966  45.963  0.00  0.00    +0.029 A 
ATOM      7  C   UNL     1      86.812  53.513  44.685  0.00  0.00    -0.050 A 
ATOM      8  C   UNL     1      86.310  54.770  44.342  0.00  0.00    -0.050 A 
ATOM      9  C   UNL     1      85.559  55.518  45.263  0.00  0.00    +0.029 A 
ATOM     10  C   UNL     1      85.321  54.986  46.552  0.00  0.00    +0.001 A 
ATOM     11  C   UNL     1      84.574  55.726  47.494  0.00  0.00    -0.013 A 
ATOM     12  C   UNL     1      84.339  55.192  48.769  0.00  0.00    -0.053 A 
ATOM     13  C   UNL     1      84.840  53.935  49.111  0.00  0.00    -0.053 A 
ATOM     14  C   UNL     1      84.077  56.990  47.149  0.00  0.00    -0.009 A 
ATOM     15  C   UNL     1      84.311  57.523  45.878  0.00  0.00    +0.160 A 
ATOM     16  C   UNL     1      85.040  56.787  44.926  0.00  0.00    +0.169 A 
ENDROOT
BRANCH   1  18
ATOM     17  C   UNL     1      87.397  49.884  44.559  0.00  0.00    +0.079 C 
ATOM     18  O   UNL     1      87.830  50.998  45.331  0.00  0.00    -0.491 OA
ENDBRANCH   1  18
BRANCH   2  19
ATOM     19  O   UNL     1      87.336  49.908  47.964  0.00  0.00    -0.491 OA
ATOM     20  C   UNL     1      88.667  49.642  48.393  0.00  0.00    +0.079 C 
ENDBRANCH   2  19
BRANCH  16  21
ATOM     21  O   UNL     1      85.254  57.320  43.653  0.00  0.00    -0.491 OA
ATOM     22  C   UNL     1      84.546  56.829  42.520  0.00  0.00    +0.079 C 
ENDBRANCH  16  21
BRANCH  15  23
ATOM     23  O   UNL     1      83.814  58.792  45.583  0.00  0.00    -0.503 OA
ATOM     24  H   UNL     1      82.904  58.979  45.704  0.00  0.00    +0.000 HD
ENDBRANCH  15  23
TORSDOF 4
ENDMDL
MODEL 9
REMARK VINA RESULT:    -7.344      4.923      7.004
REMARK INTER + INTRA:          -8.946
REMARK INTER:                  -8.847
REMARK INTRA:                  -0.100
REMARK UNBOUND:                -0.100
REMARK  Name = 
REMARK  7 active torsions:
REMARK  status: ('A' for Active; 'I' for Inactive)
REMARK    1  A    between atoms: C_1  and  O_2
REMARK    2  A    between atoms: O_2  and  C_3
REMARK    3  A    between atoms: C_4  and  O_5
REMARK    4  A    between atoms: O_5  and  C_6
REMARK    5  A    between atoms: C_19  and  O_23
REMARK    6  A    between atoms: C_20  and  O_21
REMARK    7  A    between atoms: O_21  and  C_22
REMARK                            x       y       z     vdW  Elec       q    Type
REMARK                         _______ _______ _______ _____ _____    ______ ____
ROOT
ATOM      1  C   UNL     1      87.070  45.919  42.807  0.00  0.00    +0.169 A 
ATOM      2  C   UNL     1      88.099  46.897  42.784  0.00  0.00    +0.163 A 
ATOM      3  C   UNL     1      87.787  48.240  43.072  0.00  0.00    -0.009 A 
ATOM      4  C   UNL     1      86.480  48.626  43.381  0.00  0.00    -0.013 A 
ATOM      5  C   UNL     1      85.454  47.662  43.406  0.00  0.00    +0.001 A 
ATOM      6  C   UNL     1      85.747  46.310  43.119  0.00  0.00    +0.029 A 
ATOM      7  C   UNL     1      84.702  45.366  43.150  0.00  0.00    -0.050 A 
ATOM      8  C   UNL     1      83.396  45.752  43.459  0.00  0.00    -0.050 A 
ATOM      9  C   UNL     1      83.095  47.092  43.750  0.00  0.00    +0.029 A 
ATOM     10  C   UNL     1      84.131  48.053  43.720  0.00  0.00    +0.001 A 
ATOM     11  C   UNL     1      83.846  49.407  44.003  0.00  0.00    -0.013 A 
ATOM     12  C   UNL     1      84.879  50.356  43.973  0.00  0.00    -0.053 A 
ATOM     13  C   UNL     1      86.184  49.969  43.666  0.00  0.00    -0.053 A 
ATOM     14  C   UNL     1      82.534  49.793  44.307  0.00  0.00    -0.009 A 
ATOM     15  C   UNL     1      81.504  48.848  44.336  0.00  0.00    +0.160 A 
ATOM     16  C   UNL     1      81.780  47.494  44.071  0.00  0.00    +0.169 A 
ENDROOT
BRANCH   1  18
ATOM     17  C   UNL     1      87.872  43.587  43.401  0.00  0.00    +0.079 C 
ATOM     18  O   UNL     1      87.297  44.553  42.529  0.00  0.00    -0.491 OA
ENDBRANCH   1  18
BRANCH   2  19
ATOM     19  O   UNL     1      89.417  46.520  42.475  0.00  0.00    -0.491 OA
ATOM     20  C   UNL     1      90.589  47.068  43.070  0.00  0.00    +0.079 C 
ENDBRANCH   2  19
BRANCH  16  21
ATOM     21  O   UNL     1      80.748  46.553  44.121  0.00  0.00    -0.491 OA
ATOM     22  C   UNL     1      80.165  46.163  45.358  0.00  0.00    +0.079 C 
ENDBRANCH  16  21
BRANCH  15  23
ATOM     23  O   UNL     1      80.210  49.277  44.625  0.00  0.00    -0.503 OA
ATOM     24  H   UNL     1      80.075  50.024  45.175  0.00  0.00    +0.000 HD
ENDBRANCH  15  23
TORSDOF 4
ENDMDL
