MODEL 1
REMARK VINA RESULT:    -9.468      0.000      0.000
REMARK INTER + INTRA:         -12.985
REMARK INTER:                 -12.402
REMARK INTRA:                  -0.582
REMARK UNBOUND:                -0.472
REMARK  Name = 
REMARK  14 active torsions:
REMARK  status: ('A' for Active; 'I' for Inactive)
REMARK    1  A    between atoms: C_1  and  C_2
REMARK    2  A    between atoms: C_2  and  C_3
REMARK    3  A    between atoms: C_2  and  C_32
REMARK    4  A    between atoms: C_3  and  C_5
REMARK    5  A    between atoms: C_5  and  C_6
REMARK    6  A    between atoms: C_6  and  C_7
REMARK    7  A    between atoms: C_7  and  C_8
REMARK    8  A    between atoms: C_7  and  C_31
REMARK    9  A    between atoms: C_11  and  C_30
REMARK   10  A    between atoms: C_12  and  C_13
REMARK   11  A    between atoms: C_21  and  C_22
REMARK   12  A    between atoms: C_25  and  O_29
REMARK   13  A    between atoms: C_26  and  C_27
REMARK   14  A    between atoms: C_26  and  C_28
REMARK                            x       y       z     vdW  Elec       q    Type
REMARK                         _______ _______ _______ _____ _____    ______ ____
ROOT
ATOM      1  C   UNL     1      86.762  48.854  43.133  0.00  0.00    -0.032 C 
ATOM      2  C   UNL     1      86.183  48.300  44.468  0.00  0.00    -0.049 C 
ATOM      3  C   UNL     1      85.523  49.467  45.226  0.00  0.00    -0.043 C 
ATOM      4  C   UNL     1      85.428  50.585  44.188  0.00  0.00    -0.001 C 
ATOM      5  C   UNL     1      86.752  50.398  43.383  0.00  0.00    -0.016 C 
ATOM      6  C   UNL     1      88.018  50.795  44.230  0.00  0.00    -0.058 C 
ATOM      7  C   UNL     1      86.672  51.332  42.148  0.00  0.00    -0.028 C 
ATOM      8  C   UNL     1      86.343  52.758  42.566  0.00  0.00    -0.079 C 
ATOM      9  C   UNL     1      85.829  53.101  43.782  0.00  0.00    -0.042 C 
ATOM     10  C   UNL     1      85.349  52.015  44.693  0.00  0.00    -0.041 C 
ATOM     11  C   UNL     1      84.625  52.312  45.775  0.00  0.00    -0.080 C 
ATOM     12  C   UNL     1      84.193  53.710  46.060  0.00  0.00    -0.030 C 
ATOM     13  C   UNL     1      85.301  54.744  45.729  0.00  0.00    -0.021 C 
ATOM     14  C   UNL     1      85.760  54.590  44.212  0.00  0.00    -0.003 C 
ATOM     15  C   UNL     1      87.208  55.151  44.081  0.00  0.00    -0.055 C 
ATOM     16  C   UNL     1      84.797  55.334  43.222  0.00  0.00    -0.041 C 
ATOM     17  C   UNL     1      83.849  56.355  43.865  0.00  0.00    -0.026 C 
ATOM     18  C   UNL     1      84.534  57.165  44.970  0.00  0.00    +0.061 C 
ATOM     19  C   UNL     1      84.938  56.246  46.182  0.00  0.00    -0.005 C 
ATOM     20  C   UNL     1      86.138  56.864  46.950  0.00  0.00    -0.057 C 
ATOM     21  C   UNL     1      83.754  56.294  47.198  0.00  0.00    -0.057 C 
ATOM     22  C   UNL     1      84.117  50.355  43.366  0.00  0.00    -0.055 C 
ENDROOT
BRANCH   1  23
ATOM     23  C   UNL     1      88.111  48.160  42.705  0.00  0.00    -0.040 C 
ATOM     24  C   UNL     1      88.903  49.038  41.710  0.00  0.00    -0.062 C 
BRANCH  23  25
ATOM     25  C   UNL     1      87.885  46.770  42.024  0.00  0.00    -0.046 C 
BRANCH  25  26
ATOM     26  C   UNL     1      88.516  45.570  42.763  0.00  0.00    -0.031 C 
BRANCH  26  27
ATOM     27  C   UNL     1      87.552  44.484  43.217  0.00  0.00    -0.074 C 
ATOM     28  C   UNL     1      87.944  43.210  43.435  0.00  0.00    -0.099 C 
BRANCH  27  30
ATOM     29  C   UNL     1      85.250  43.948  42.307  0.00  0.00    -0.059 C 
ATOM     30  C   UNL     1      86.069  44.844  43.246  0.00  0.00    -0.026 C 
ATOM     31  C   UNL     1      85.509  44.819  44.678  0.00  0.00    -0.059 C 
ENDBRANCH  27  30
ENDBRANCH  26  27
ENDBRANCH  25  26
ENDBRANCH  23  25
ENDBRANCH   1  23
BRANCH  18  32
ATOM     32  O   UNL     1      85.630  57.871  44.439  0.00  0.00    -0.391 OA
ATOM     33  H   UNL     1      85.572  58.803  44.701  0.00  0.00    +0.000 HD
ENDBRANCH  18  32
TORSDOF 6
ENDMDL
MODEL 2
REMARK VINA RESULT:    -9.083      2.131      3.945
REMARK INTER + INTRA:         -12.476
REMARK INTER:                 -11.566
REMARK INTRA:                  -0.910
REMARK UNBOUND:                -0.472
REMARK  Name = 
REMARK  14 active torsions:
REMARK  status: ('A' for Active; 'I' for Inactive)
REMARK    1  A    between atoms: C_1  and  C_2
REMARK    2  A    between atoms: C_2  and  C_3
REMARK    3  A    between atoms: C_2  and  C_32
REMARK    4  A    between atoms: C_3  and  C_5
REMARK    5  A    between atoms: C_5  and  C_6
REMARK    6  A    between atoms: C_6  and  C_7
REMARK    7  A    between atoms: C_7  and  C_8
REMARK    8  A    between atoms: C_7  and  C_31
REMARK    9  A    between atoms: C_11  and  C_30
REMARK   10  A    between atoms: C_12  and  C_13
REMARK   11  A    between atoms: C_21  and  C_22
REMARK   12  A    between atoms: C_25  and  O_29
REMARK   13  A    between atoms: C_26  and  C_27
REMARK   14  A    between atoms: C_26  and  C_28
REMARK                            x       y       z     vdW  Elec       q    Type
REMARK                         _______ _______ _______ _____ _____    ______ ____
ROOT
ATOM      1  C   UNL     1      89.691  49.589  42.470  0.00  0.00    -0.032 C 
ATOM      2  C   UNL     1      89.754  49.468  40.918  0.00  0.00    -0.049 C 
ATOM      3  C   UNL     1      88.796  50.513  40.316  0.00  0.00    -0.043 C 
ATOM      4  C   UNL     1      88.458  51.434  41.488  0.00  0.00    -0.001 C 
ATOM      5  C   UNL     1      88.392  50.433  42.684  0.00  0.00    -0.016 C 
ATOM      6  C   UNL     1      87.137  49.488  42.592  0.00  0.00    -0.058 C 
ATOM      7  C   UNL     1      88.280  51.276  43.980  0.00  0.00    -0.028 C 
ATOM      8  C   UNL     1      87.135  52.273  43.883  0.00  0.00    -0.079 C 
ATOM      9  C   UNL     1      86.534  52.639  42.714  0.00  0.00    -0.042 C 
ATOM     10  C   UNL     1      87.159  52.218  41.421  0.00  0.00    -0.041 C 
ATOM     11  C   UNL     1      86.748  52.751  40.268  0.00  0.00    -0.080 C 
ATOM     12  C   UNL     1      85.731  53.840  40.234  0.00  0.00    -0.030 C 
ATOM     13  C   UNL     1      84.601  53.618  41.274  0.00  0.00    -0.021 C 
ATOM     14  C   UNL     1      85.221  53.463  42.733  0.00  0.00    -0.003 C 
ATOM     15  C   UNL     1      84.212  52.659  43.608  0.00  0.00    -0.055 C 
ATOM     16  C   UNL     1      85.530  54.851  43.395  0.00  0.00    -0.041 C 
ATOM     17  C   UNL     1      84.865  56.063  42.732  0.00  0.00    -0.026 C 
ATOM     18  C   UNL     1      83.428  55.765  42.291  0.00  0.00    +0.061 C 
ATOM     19  C   UNL     1      83.396  54.678  41.153  0.00  0.00    -0.005 C 
ATOM     20  C   UNL     1      82.037  53.927  41.164  0.00  0.00    -0.057 C 
ATOM     21  C   UNL     1      83.410  55.447  39.795  0.00  0.00    -0.057 C 
ATOM     22  C   UNL     1      89.594  52.507  41.587  0.00  0.00    -0.055 C 
ENDROOT
BRANCH   1  23
ATOM     23  C   UNL     1      89.830  48.202  43.206  0.00  0.00    -0.040 C 
ATOM     24  C   UNL     1      91.158  48.114  43.992  0.00  0.00    -0.062 C 
BRANCH  23  25
ATOM     25  C   UNL     1      89.789  46.988  42.222  0.00  0.00    -0.046 C 
BRANCH  25  26
ATOM     26  C   UNL     1      89.442  45.631  42.871  0.00  0.00    -0.031 C 
BRANCH  26  27
ATOM     27  C   UNL     1      87.975  45.228  42.832  0.00  0.00    -0.074 C 
ATOM     28  C   UNL     1      86.997  46.081  42.457  0.00  0.00    -0.099 C 
BRANCH  27  30
ATOM     29  C   UNL     1      88.788  43.258  44.198  0.00  0.00    -0.059 C 
ATOM     30  C   UNL     1      87.618  43.861  43.409  0.00  0.00    -0.026 C 
ATOM     31  C   UNL     1      86.337  43.921  44.257  0.00  0.00    -0.059 C 
ENDBRANCH  27  30
ENDBRANCH  26  27
ENDBRANCH  25  26
ENDBRANCH  23  25
ENDBRANCH   1  23
BRANCH  18  32
ATOM     32  O   UNL     1      82.648  55.404  43.406  0.00  0.00    -0.391 OA
ATOM     33  H   UNL     1      81.723  55.304  43.134  0.00  0.00    +0.000 HD
ENDBRANCH  18  32
TORSDOF 6
ENDMDL
MODEL 3
REMARK VINA RESULT:    -8.821      2.914      8.245
REMARK INTER + INTRA:         -12.130
REMARK INTER:                 -11.768
REMARK INTRA:                  -0.361
REMARK UNBOUND:                -0.472
REMARK  Name = 
REMARK  14 active torsions:
REMARK  status: ('A' for Active; 'I' for Inactive)
REMARK    1  A    between atoms: C_1  and  C_2
REMARK    2  A    between atoms: C_2  and  C_3
REMARK    3  A    between atoms: C_2  and  C_32
REMARK    4  A    between atoms: C_3  and  C_5
REMARK    5  A    between atoms: C_5  and  C_6
REMARK    6  A    between atoms: C_6  and  C_7
REMARK    7  A    between atoms: C_7  and  C_8
REMARK    8  A    between atoms: C_7  and  C_31
REMARK    9  A    between atoms: C_11  and  C_30
REMARK   10  A    between atoms: C_12  and  C_13
REMARK   11  A    between atoms: C_21  and  C_22
REMARK   12  A    between atoms: C_25  and  O_29
REMARK   13  A    between atoms: C_26  and  C_27
REMARK   14  A    between atoms: C_26  and  C_28
REMARK                            x       y       z     vdW  Elec       q    Type
REMARK                         _______ _______ _______ _____ _____    ______ ____
ROOT
ATOM      1  C   UNL     1      85.168  54.927  44.822  0.00  0.00    -0.032 C 
ATOM      2  C   UNL     1      86.213  55.823  44.094  0.00  0.00    -0.049 C 
ATOM      3  C   UNL     1      87.183  54.905  43.329  0.00  0.00    -0.043 C 
ATOM      4  C   UNL     1      86.501  53.537  43.345  0.00  0.00    -0.001 C 
ATOM      5  C   UNL     1      85.841  53.517  44.759  0.00  0.00    -0.016 C 
ATOM      6  C   UNL     1      86.911  53.400  45.907  0.00  0.00    -0.058 C 
ATOM      7  C   UNL     1      84.920  52.270  44.815  0.00  0.00    -0.028 C 
ATOM      8  C   UNL     1      85.681  51.014  44.418  0.00  0.00    -0.079 C 
ATOM      9  C   UNL     1      86.873  51.017  43.754  0.00  0.00    -0.042 C 
ATOM     10  C   UNL     1      87.376  52.307  43.184  0.00  0.00    -0.041 C 
ATOM     11  C   UNL     1      88.402  52.312  42.330  0.00  0.00    -0.080 C 
ATOM     12  C   UNL     1      89.016  51.043  41.846  0.00  0.00    -0.030 C 
ATOM     13  C   UNL     1      89.126  49.980  42.970  0.00  0.00    -0.021 C 
ATOM     14  C   UNL     1      87.694  49.710  43.613  0.00  0.00    -0.003 C 
ATOM     15  C   UNL     1      87.903  49.164  45.057  0.00  0.00    -0.055 C 
ATOM     16  C   UNL     1      86.847  48.697  42.765  0.00  0.00    -0.041 C 
ATOM     17  C   UNL     1      87.632  47.880  41.732  0.00  0.00    -0.026 C 
ATOM     18  C   UNL     1      88.996  47.429  42.266  0.00  0.00    +0.061 C 
ATOM     19  C   UNL     1      89.938  48.660  42.533  0.00  0.00    -0.005 C 
ATOM     20  C   UNL     1      90.988  48.309  43.622  0.00  0.00    -0.057 C 
ATOM     21  C   UNL     1      90.776  48.877  41.234  0.00  0.00    -0.057 C 
ATOM     22  C   UNL     1      85.495  53.500  42.146  0.00  0.00    -0.055 C 
ENDROOT
BRANCH   1  23
ATOM     23  C   UNL     1      84.727  55.500  46.223  0.00  0.00    -0.040 C 
ATOM     24  C   UNL     1      84.015  56.863  46.073  0.00  0.00    -0.062 C 
BRANCH  23  25
ATOM     25  C   UNL     1      85.933  55.708  47.196  0.00  0.00    -0.046 C 
BRANCH  25  26
ATOM     26  C   UNL     1      85.888  54.858  48.485  0.00  0.00    -0.031 C 
BRANCH  26  27
ATOM     27  C   UNL     1      84.550  54.210  48.811  0.00  0.00    -0.074 C 
ATOM     28  C   UNL     1      83.474  54.925  49.204  0.00  0.00    -0.099 C 
BRANCH  27  30
ATOM     29  C   UNL     1      85.912  52.090  49.059  0.00  0.00    -0.059 C 
ATOM     30  C   UNL     1      84.513  52.685  48.851  0.00  0.00    -0.026 C 
ATOM     31  C   UNL     1      83.519  52.171  49.905  0.00  0.00    -0.059 C 
ENDBRANCH  27  30
ENDBRANCH  26  27
ENDBRANCH  25  26
ENDBRANCH  23  25
ENDBRANCH   1  23
BRANCH  18  32
ATOM     32  O   UNL     1      88.822  46.624  43.408  0.00  0.00    -0.391 OA
ATOM     33  H   UNL     1      87.874  46.512  43.583  0.00  0.00    +0.000 HD
ENDBRANCH  18  32
TORSDOF 6
ENDMDL
MODEL 4
REMARK VINA RESULT:    -8.401      1.703      3.463
REMARK INTER + INTRA:         -11.575
REMARK INTER:                 -10.143
REMARK INTRA:                  -1.432
REMARK UNBOUND:                -0.472
REMARK  Name = 
REMARK  14 active torsions:
REMARK  status: ('A' for Active; 'I' for Inactive)
REMARK    1  A    between atoms: C_1  and  C_2
REMARK    2  A    between atoms: C_2  and  C_3
REMARK    3  A    between atoms: C_2  and  C_32
REMARK    4  A    between atoms: C_3  and  C_5
REMARK    5  A    between atoms: C_5  and  C_6
REMARK    6  A    between atoms: C_6  and  C_7
REMARK    7  A    between atoms: C_7  and  C_8
REMARK    8  A    between atoms: C_7  and  C_31
REMARK    9  A    between atoms: C_11  and  C_30
REMARK   10  A    between atoms: C_12  and  C_13
REMARK   11  A    between atoms: C_21  and  C_22
REMARK   12  A    between atoms: C_25  and  O_29
REMARK   13  A    between atoms: C_26  and  C_27
REMARK   14  A    between atoms: C_26  and  C_28
REMARK                            x       y       z     vdW  Elec       q    Type
REMARK                         _______ _______ _______ _____ _____    ______ ____
ROOT
ATOM      1  C   UNL     1      86.438  48.358  44.201  0.00  0.00    -0.032 C 
ATOM      2  C   UNL     1      87.956  48.569  44.479  0.00  0.00    -0.049 C 
ATOM      3  C   UNL     1      88.137  49.950  45.136  0.00  0.00    -0.043 C 
ATOM      4  C   UNL     1      86.722  50.368  45.533  0.00  0.00    -0.001 C 
ATOM      5  C   UNL     1      85.871  49.808  44.349  0.00  0.00    -0.016 C 
ATOM      6  C   UNL     1      86.123  50.603  43.015  0.00  0.00    -0.058 C 
ATOM      7  C   UNL     1      84.380  49.967  44.744  0.00  0.00    -0.028 C 
ATOM      8  C   UNL     1      84.078  51.398  45.162  0.00  0.00    -0.079 C 
ATOM      9  C   UNL     1      85.029  52.315  45.502  0.00  0.00    -0.042 C 
ATOM     10  C   UNL     1      86.440  51.851  45.692  0.00  0.00    -0.041 C 
ATOM     11  C   UNL     1      87.344  52.656  46.254  0.00  0.00    -0.080 C 
ATOM     12  C   UNL     1      86.966  53.994  46.793  0.00  0.00    -0.030 C 
ATOM     13  C   UNL     1      85.940  54.721  45.884  0.00  0.00    -0.021 C 
ATOM     14  C   UNL     1      84.652  53.809  45.671  0.00  0.00    -0.003 C 
ATOM     15  C   UNL     1      83.964  54.241  44.341  0.00  0.00    -0.055 C 
ATOM     16  C   UNL     1      83.642  53.921  46.867  0.00  0.00    -0.041 C 
ATOM     17  C   UNL     1      83.859  55.114  47.806  0.00  0.00    -0.026 C 
ATOM     18  C   UNL     1      84.238  56.388  47.045  0.00  0.00    +0.061 C 
ATOM     19  C   UNL     1      85.636  56.236  46.339  0.00  0.00    -0.005 C 
ATOM     20  C   UNL     1      85.724  57.178  45.107  0.00  0.00    -0.057 C 
ATOM     21  C   UNL     1      86.705  56.787  47.333  0.00  0.00    -0.057 C 
ATOM     22  C   UNL     1      86.415  49.727  46.927  0.00  0.00    -0.055 C 
ENDROOT
BRANCH   1  23
ATOM     23  C   UNL     1      86.156  47.561  42.872  0.00  0.00    -0.040 C 
ATOM     24  C   UNL     1      84.957  46.599  43.038  0.00  0.00    -0.062 C 
BRANCH  23  25
ATOM     25  C   UNL     1      87.380  46.705  42.409  0.00  0.00    -0.046 C 
BRANCH  25  26
ATOM     26  C   UNL     1      88.351  47.421  41.445  0.00  0.00    -0.031 C 
BRANCH  26  27
ATOM     27  C   UNL     1      89.807  47.477  41.884  0.00  0.00    -0.074 C 
ATOM     28  C   UNL     1      90.415  46.449  42.515  0.00  0.00    -0.099 C 
BRANCH  27  30
ATOM     29  C   UNL     1      89.535  49.951  41.422  0.00  0.00    -0.059 C 
ATOM     30  C   UNL     1      90.519  48.820  41.745  0.00  0.00    -0.026 C 
ATOM     31  C   UNL     1      91.362  49.144  42.989  0.00  0.00    -0.059 C 
ENDBRANCH  27  30
ENDBRANCH  26  27
ENDBRANCH  25  26
ENDBRANCH  23  25
ENDBRANCH   1  23
BRANCH  18  32
ATOM     32  O   UNL     1      83.212  56.732  46.143  0.00  0.00    -0.391 OA
ATOM     33  H   UNL     1      82.865  55.927  45.727  0.00  0.00    +0.000 HD
ENDBRANCH  18  32
TORSDOF 6
ENDMDL
MODEL 5
REMARK VINA RESULT:    -8.393      2.785      8.870
REMARK INTER + INTRA:         -11.564
REMARK INTER:                 -10.548
REMARK INTRA:                  -1.016
REMARK UNBOUND:                -0.472
REMARK  Name = 
REMARK  14 active torsions:
REMARK  status: ('A' for Active; 'I' for Inactive)
REMARK    1  A    between atoms: C_1  and  C_2
REMARK    2  A    between atoms: C_2  and  C_3
REMARK    3  A    between atoms: C_2  and  C_32
REMARK    4  A    between atoms: C_3  and  C_5
REMARK    5  A    between atoms: C_5  and  C_6
REMARK    6  A    between atoms: C_6  and  C_7
REMARK    7  A    between atoms: C_7  and  C_8
REMARK    8  A    between atoms: C_7  and  C_31
REMARK    9  A    between atoms: C_11  and  C_30
REMARK   10  A    between atoms: C_12  and  C_13
REMARK   11  A    between atoms: C_21  and  C_22
REMARK   12  A    between atoms: C_25  and  O_29
REMARK   13  A    between atoms: C_26  and  C_27
REMARK   14  A    between atoms: C_26  and  C_28
REMARK                            x       y       z     vdW  Elec       q    Type
REMARK                         _______ _______ _______ _____ _____    ______ ____
ROOT
ATOM      1  C   UNL     1      84.419  53.371  46.013  0.00  0.00    -0.032 C 
ATOM      2  C   UNL     1      84.531  54.340  44.799  0.00  0.00    -0.049 C 
ATOM      3  C   UNL     1      85.376  53.652  43.711  0.00  0.00    -0.043 C 
ATOM      4  C   UNL     1      85.453  52.193  44.159  0.00  0.00    -0.001 C 
ATOM      5  C   UNL     1      85.549  52.332  45.712  0.00  0.00    -0.016 C 
ATOM      6  C   UNL     1      86.934  52.925  46.166  0.00  0.00    -0.058 C 
ATOM      7  C   UNL     1      85.402  50.908  46.307  0.00  0.00    -0.028 C 
ATOM      8  C   UNL     1      86.389  49.946  45.663  0.00  0.00    -0.079 C 
ATOM      9  C   UNL     1      87.042  50.187  44.490  0.00  0.00    -0.042 C 
ATOM     10  C   UNL     1      86.620  51.360  43.660  0.00  0.00    -0.041 C 
ATOM     11  C   UNL     1      87.060  51.492  42.407  0.00  0.00    -0.080 C 
ATOM     12  C   UNL     1      87.900  50.442  41.764  0.00  0.00    -0.030 C 
ATOM     13  C   UNL     1      88.941  49.843  42.746  0.00  0.00    -0.021 C 
ATOM     14  C   UNL     1      88.209  49.271  44.040  0.00  0.00    -0.003 C 
ATOM     15  C   UNL     1      89.234  49.257  45.213  0.00  0.00    -0.055 C 
ATOM     16  C   UNL     1      87.630  47.832  43.805  0.00  0.00    -0.041 C 
ATOM     17  C   UNL     1      88.169  47.095  42.573  0.00  0.00    -0.026 C 
ATOM     18  C   UNL     1      89.671  47.323  42.373  0.00  0.00    +0.061 C 
ATOM     19  C   UNL     1      89.980  48.830  42.046  0.00  0.00    -0.005 C 
ATOM     20  C   UNL     1      91.428  49.190  42.476  0.00  0.00    -0.057 C 
ATOM     21  C   UNL     1      89.986  48.962  40.491  0.00  0.00    -0.057 C 
ATOM     22  C   UNL     1      84.166  51.472  43.639  0.00  0.00    -0.055 C 
ENDROOT
BRANCH   1  23
ATOM     23  C   UNL     1      84.417  54.113  47.403  0.00  0.00    -0.040 C 
ATOM     24  C   UNL     1      83.341  53.532  48.348  0.00  0.00    -0.062 C 
BRANCH  23  25
ATOM     25  C   UNL     1      84.140  55.646  47.268  0.00  0.00    -0.046 C 
BRANCH  25  26
ATOM     26  C   UNL     1      85.384  56.512  46.976  0.00  0.00    -0.031 C 
BRANCH  26  27
ATOM     27  C   UNL     1      85.168  57.702  46.052  0.00  0.00    -0.074 C 
ATOM     28  C   UNL     1      84.266  58.673  46.316  0.00  0.00    -0.099 C 
BRANCH  27  30
ATOM     29  C   UNL     1      86.984  56.599  44.676  0.00  0.00    -0.059 C 
ATOM     30  C   UNL     1      85.888  57.672  44.706  0.00  0.00    -0.026 C 
ATOM     31  C   UNL     1      84.901  57.504  43.540  0.00  0.00    -0.059 C 
ENDBRANCH  27  30
ENDBRANCH  26  27
ENDBRANCH  25  26
ENDBRANCH  23  25
ENDBRANCH   1  23
BRANCH  18  32
ATOM     32  O   UNL     1      90.381  46.857  43.497  0.00  0.00    -0.391 OA
ATOM     33  H   UNL     1      89.780  46.365  44.078  0.00  0.00    +0.000 HD
ENDBRANCH  18  32
TORSDOF 6
ENDMDL
MODEL 6
REMARK VINA RESULT:    -8.006      2.627      8.504
REMARK INTER + INTRA:         -11.052
REMARK INTER:                 -10.655
REMARK INTRA:                  -0.397
REMARK UNBOUND:                -0.472
REMARK  Name = 
REMARK  14 active torsions:
REMARK  status: ('A' for Active; 'I' for Inactive)
REMARK    1  A    between atoms: C_1  and  C_2
REMARK    2  A    between atoms: C_2  and  C_3
REMARK    3  A    between atoms: C_2  and  C_32
REMARK    4  A    between atoms: C_3  and  C_5
REMARK    5  A    between atoms: C_5  and  C_6
REMARK    6  A    between atoms: C_6  and  C_7
REMARK    7  A    between atoms: C_7  and  C_8
REMARK    8  A    between atoms: C_7  and  C_31
REMARK    9  A    between atoms: C_11  and  C_30
REMARK   10  A    between atoms: C_12  and  C_13
REMARK   11  A    between atoms: C_21  and  C_22
REMARK   12  A    between atoms: C_25  and  O_29
REMARK   13  A    between atoms: C_26  and  C_27
REMARK   14  A    between atoms: C_26  and  C_28
REMARK                            x       y       z     vdW  Elec       q    Type
REMARK                         _______ _______ _______ _____ _____    ______ ____
ROOT
ATOM      1  C   UNL     1      83.560  53.432  43.183  0.00  0.00    -0.032 C 
ATOM      2  C   UNL     1      82.538  52.305  42.850  0.00  0.00    -0.049 C 
ATOM      3  C   UNL     1      83.288  50.961  42.852  0.00  0.00    -0.043 C 
ATOM      4  C   UNL     1      84.632  51.279  43.507  0.00  0.00    -0.001 C 
ATOM      5  C   UNL     1      84.930  52.711  42.963  0.00  0.00    -0.016 C 
ATOM      6  C   UNL     1      85.270  52.699  41.427  0.00  0.00    -0.058 C 
ATOM      7  C   UNL     1      86.164  53.245  43.736  0.00  0.00    -0.028 C 
ATOM      8  C   UNL     1      87.317  52.255  43.671  0.00  0.00    -0.079 C 
ATOM      9  C   UNL     1      87.183  50.944  43.317  0.00  0.00    -0.042 C 
ATOM     10  C   UNL     1      85.806  50.370  43.191  0.00  0.00    -0.041 C 
ATOM     11  C   UNL     1      85.633  49.051  43.087  0.00  0.00    -0.080 C 
ATOM     12  C   UNL     1      86.782  48.106  43.186  0.00  0.00    -0.030 C 
ATOM     13  C   UNL     1      88.045  48.644  42.463  0.00  0.00    -0.021 C 
ATOM     14  C   UNL     1      88.437  50.077  43.036  0.00  0.00    -0.003 C 
ATOM     15  C   UNL     1      89.256  50.831  41.945  0.00  0.00    -0.055 C 
ATOM     16  C   UNL     1      89.264  49.978  44.366  0.00  0.00    -0.041 C 
ATOM     17  C   UNL     1      89.861  48.599  44.672  0.00  0.00    -0.026 C 
ATOM     18  C   UNL     1      90.408  47.914  43.415  0.00  0.00    +0.061 C 
ATOM     19  C   UNL     1      89.253  47.581  42.400  0.00  0.00    -0.005 C 
ATOM     20  C   UNL     1      89.812  47.512  40.952  0.00  0.00    -0.057 C 
ATOM     21  C   UNL     1      88.785  46.125  42.711  0.00  0.00    -0.057 C 
ATOM     22  C   UNL     1      84.433  51.189  45.057  0.00  0.00    -0.055 C 
ENDROOT
BRANCH   1  23
ATOM     23  C   UNL     1      83.274  54.777  42.414  0.00  0.00    -0.040 C 
ATOM     24  C   UNL     1      82.814  54.507  40.962  0.00  0.00    -0.062 C 
BRANCH  23  25
ATOM     25  C   UNL     1      84.527  55.709  42.339  0.00  0.00    -0.046 C 
BRANCH  25  26
ATOM     26  C   UNL     1      84.507  56.911  43.308  0.00  0.00    -0.031 C 
BRANCH  26  27
ATOM     27  C   UNL     1      85.457  56.830  44.494  0.00  0.00    -0.074 C 
ATOM     28  C   UNL     1      86.769  56.541  44.354  0.00  0.00    -0.099 C 
BRANCH  27  30
ATOM     29  C   UNL     1      85.736  56.267  46.946  0.00  0.00    -0.059 C 
ATOM     30  C   UNL     1      84.835  56.911  45.885  0.00  0.00    -0.026 C 
ATOM     31  C   UNL     1      84.470  58.357  46.257  0.00  0.00    -0.059 C 
ENDBRANCH  27  30
ENDBRANCH  26  27
ENDBRANCH  25  26
ENDBRANCH  23  25
ENDBRANCH   1  23
BRANCH  18  32
ATOM     32  O   UNL     1      91.422  48.704  42.840  0.00  0.00    -0.391 OA
ATOM     33  H   UNL     1      92.265  48.519  43.282  0.00  0.00    +0.000 HD
ENDBRANCH  18  32
TORSDOF 6
ENDMDL
MODEL 7
REMARK VINA RESULT:    -7.551      2.879      9.339
REMARK INTER + INTRA:         -10.451
REMARK INTER:                  -9.401
REMARK INTRA:                  -1.051
REMARK UNBOUND:                -0.472
REMARK  Name = 
REMARK  14 active torsions:
REMARK  status: ('A' for Active; 'I' for Inactive)
REMARK    1  A    between atoms: C_1  and  C_2
REMARK    2  A    between atoms: C_2  and  C_3
REMARK    3  A    between atoms: C_2  and  C_32
REMARK    4  A    between atoms: C_3  and  C_5
REMARK    5  A    between atoms: C_5  and  C_6
REMARK    6  A    between atoms: C_6  and  C_7
REMARK    7  A    between atoms: C_7  and  C_8
REMARK    8  A    between atoms: C_7  and  C_31
REMARK    9  A    between atoms: C_11  and  C_30
REMARK   10  A    between atoms: C_12  and  C_13
REMARK   11  A    between atoms: C_21  and  C_22
REMARK   12  A    between atoms: C_25  and  O_29
REMARK   13  A    between atoms: C_26  and  C_27
REMARK   14  A    between atoms: C_26  and  C_28
REMARK                            x       y       z     vdW  Elec       q    Type
REMARK                         _______ _______ _______ _____ _____    ______ ____
ROOT
ATOM      1  C   UNL     1      85.996  52.369  45.268  0.00  0.00    -0.032 C 
ATOM      2  C   UNL     1      87.475  52.454  44.787  0.00  0.00    -0.049 C 
ATOM      3  C   UNL     1      87.829  51.130  44.086  0.00  0.00    -0.043 C 
ATOM      4  C   UNL     1      86.480  50.444  43.871  0.00  0.00    -0.001 C 
ATOM      5  C   UNL     1      85.704  50.836  45.168  0.00  0.00    -0.016 C 
ATOM      6  C   UNL     1      86.280  50.113  46.441  0.00  0.00    -0.058 C 
ATOM      7  C   UNL     1      84.232  50.389  44.971  0.00  0.00    -0.028 C 
ATOM      8  C   UNL     1      84.158  48.924  44.568  0.00  0.00    -0.079 C 
ATOM      9  C   UNL     1      85.214  48.206  44.087  0.00  0.00    -0.042 C 
ATOM     10  C   UNL     1      86.470  48.933  43.721  0.00  0.00    -0.041 C 
ATOM     11  C   UNL     1      87.429  48.314  43.029  0.00  0.00    -0.080 C 
ATOM     12  C   UNL     1      87.247  46.926  42.519  0.00  0.00    -0.030 C 
ATOM     13  C   UNL     1      86.511  46.019  43.540  0.00  0.00    -0.021 C 
ATOM     14  C   UNL     1      85.112  46.666  43.940  0.00  0.00    -0.003 C 
ATOM     15  C   UNL     1      84.704  46.118  45.341  0.00  0.00    -0.055 C 
ATOM     16  C   UNL     1      83.992  46.354  42.886  0.00  0.00    -0.041 C 
ATOM     17  C   UNL     1      84.307  45.220  41.904  0.00  0.00    -0.026 C 
ATOM     18  C   UNL     1      85.022  44.047  42.582  0.00  0.00    +0.061 C 
ATOM     19  C   UNL     1      86.446  44.472  43.100  0.00  0.00    -0.005 C 
ATOM     20  C   UNL     1      86.877  43.572  44.290  0.00  0.00    -0.057 C 
ATOM     21  C   UNL     1      87.458  44.132  41.962  0.00  0.00    -0.057 C 
ATOM     22  C   UNL     1      85.873  51.004  42.543  0.00  0.00    -0.055 C 
ENDROOT
BRANCH   1  23
ATOM     23  C   UNL     1      85.746  53.105  46.639  0.00  0.00    -0.040 C 
ATOM     24  C   UNL     1      84.322  53.703  46.703  0.00  0.00    -0.062 C 
BRANCH  23  25
ATOM     25  C   UNL     1      86.754  54.273  46.891  0.00  0.00    -0.046 C 
BRANCH  25  26
ATOM     26  C   UNL     1      86.125  55.682  46.933  0.00  0.00    -0.031 C 
BRANCH  26  27
ATOM     27  C   UNL     1      85.868  56.340  45.586  0.00  0.00    -0.074 C 
ATOM     28  C   UNL     1      86.720  56.220  44.544  0.00  0.00    -0.099 C 
BRANCH  27  30
ATOM     29  C   UNL     1      83.924  57.380  46.830  0.00  0.00    -0.059 C 
ATOM     30  C   UNL     1      84.685  57.301  45.500  0.00  0.00    -0.026 C 
ATOM     31  C   UNL     1      85.122  58.693  45.017  0.00  0.00    -0.059 C 
ENDBRANCH  27  30
ENDBRANCH  26  27
ENDBRANCH  25  26
ENDBRANCH  23  25
ENDBRANCH   1  23
BRANCH  18  32
ATOM     32  O   UNL     1      84.211  43.518  43.605  0.00  0.00    -0.391 OA
ATOM     33  H   UNL     1      83.860  44.242  44.146  0.00  0.00    +0.000 HD
ENDBRANCH  18  32
TORSDOF 6
ENDMDL
MODEL 8
REMARK VINA RESULT:    -7.286      2.931      8.100
REMARK INTER + INTRA:         -10.101
REMARK INTER:                  -8.741
REMARK INTRA:                  -1.360
REMARK UNBOUND:                -0.472
REMARK  Name = 
REMARK  14 active torsions:
REMARK  status: ('A' for Active; 'I' for Inactive)
REMARK    1  A    between atoms: C_1  and  C_2
REMARK    2  A    between atoms: C_2  and  C_3
REMARK    3  A    between atoms: C_2  and  C_32
REMARK    4  A    between atoms: C_3  and  C_5
REMARK    5  A    between atoms: C_5  and  C_6
REMARK    6  A    between atoms: C_6  and  C_7
REMARK    7  A    between atoms: C_7  and  C_8
REMARK    8  A    between atoms: C_7  and  C_31
REMARK    9  A    between atoms: C_11  and  C_30
REMARK   10  A    between atoms: C_12  and  C_13
REMARK   11  A    between atoms: C_21  and  C_22
REMARK   12  A    between atoms: C_25  and  O_29
REMARK   13  A    between atoms: C_26  and  C_27
REMARK   14  A    between atoms: C_26  and  C_28
REMARK                            x       y       z     vdW  Elec       q    Type
REMARK                         _______ _______ _______ _____ _____    ______ ____
ROOT
ATOM      1  C   UNL     1      85.506  54.230  43.943  0.00  0.00    -0.032 C 
ATOM      2  C   UNL     1      84.361  53.483  44.688  0.00  0.00    -0.049 C 
ATOM      3  C   UNL     1      84.761  52.002  44.822  0.00  0.00    -0.043 C 
ATOM      4  C   UNL     1      86.247  51.979  44.465  0.00  0.00    -0.001 C 
ATOM      5  C   UNL     1      86.329  53.049  43.331  0.00  0.00    -0.016 C 
ATOM      6  C   UNL     1      85.631  52.559  42.009  0.00  0.00    -0.058 C 
ATOM      7  C   UNL     1      87.832  53.287  43.037  0.00  0.00    -0.028 C 
ATOM      8  C   UNL     1      88.548  51.973  42.764  0.00  0.00    -0.079 C 
ATOM      9  C   UNL     1      88.050  50.746  43.092  0.00  0.00    -0.042 C 
ATOM     10  C   UNL     1      86.834  50.672  43.962  0.00  0.00    -0.041 C 
ATOM     11  C   UNL     1      86.460  49.509  44.500  0.00  0.00    -0.080 C 
ATOM     12  C   UNL     1      87.281  48.277  44.334  0.00  0.00    -0.030 C 
ATOM     13  C   UNL     1      87.876  48.157  42.907  0.00  0.00    -0.021 C 
ATOM     14  C   UNL     1      88.725  49.458  42.555  0.00  0.00    -0.003 C 
ATOM     15  C   UNL     1      88.777  49.602  41.005  0.00  0.00    -0.055 C 
ATOM     16  C   UNL     1      90.178  49.393  43.144  0.00  0.00    -0.041 C 
ATOM     17  C   UNL     1      90.645  48.005  43.600  0.00  0.00    -0.026 C 
ATOM     18  C   UNL     1      90.193  46.898  42.642  0.00  0.00    +0.061 C 
ATOM     19  C   UNL     1      88.625  46.759  42.635  0.00  0.00    -0.005 C 
ATOM     20  C   UNL     1      88.144  46.163  41.284  0.00  0.00    -0.057 C 
ATOM     21  C   UNL     1      88.265  45.672  43.695  0.00  0.00    -0.057 C 
ATOM     22  C   UNL     1      87.048  52.330  45.763  0.00  0.00    -0.055 C 
ENDROOT
BRANCH   1  23
ATOM     23  C   UNL     1      84.985  55.370  42.988  0.00  0.00    -0.040 C 
ATOM     24  C   UNL     1      85.338  56.771  43.540  0.00  0.00    -0.062 C 
BRANCH  23  25
ATOM     25  C   UNL     1      83.435  55.327  42.785  0.00  0.00    -0.046 C 
BRANCH  25  26
ATOM     26  C   UNL     1      82.962  54.579  41.520  0.00  0.00    -0.031 C 
BRANCH  26  27
ATOM     27  C   UNL     1      81.654  53.811  41.648  0.00  0.00    -0.074 C 
ATOM     28  C   UNL     1      80.468  54.327  41.260  0.00  0.00    -0.099 C 
BRANCH  27  30
ATOM     29  C   UNL     1      80.295  51.980  42.748  0.00  0.00    -0.059 C 
ATOM     30  C   UNL     1      81.702  52.486  42.405  0.00  0.00    -0.026 C 
ATOM     31  C   UNL     1      82.512  51.427  41.639  0.00  0.00    -0.059 C 
ENDBRANCH  27  30
ENDBRANCH  26  27
ENDBRANCH  25  26
ENDBRANCH  23  25
ENDBRANCH   1  23
BRANCH  18  32
ATOM     32  O   UNL     1      90.721  47.130  41.357  0.00  0.00    -0.391 OA
ATOM     33  H   UNL     1      91.660  46.890  41.346  0.00  0.00    +0.000 HD
ENDBRANCH  18  32
TORSDOF 6
ENDMDL
MODEL 9
REMARK VINA RESULT:    -7.205      1.469      2.659
REMARK INTER + INTRA:          -9.994
REMARK INTER:                  -9.522
REMARK INTRA:                  -0.472
REMARK UNBOUND:                -0.472
REMARK  Name = 
REMARK  14 active torsions:
REMARK  status: ('A' for Active; 'I' for Inactive)
REMARK    1  A    between atoms: C_1  and  C_2
REMARK    2  A    between atoms: C_2  and  C_3
REMARK    3  A    between atoms: C_2  and  C_32
REMARK    4  A    between atoms: C_3  and  C_5
REMARK    5  A    between atoms: C_5  and  C_6
REMARK    6  A    between atoms: C_6  and  C_7
REMARK    7  A    between atoms: C_7  and  C_8
REMARK    8  A    between atoms: C_7  and  C_31
REMARK    9  A    between atoms: C_11  and  C_30
REMARK   10  A    between atoms: C_12  and  C_13
REMARK   11  A    between atoms: C_21  and  C_22
REMARK   12  A    between atoms: C_25  and  O_29
REMARK   13  A    between atoms: C_26  and  C_27
REMARK   14  A    between atoms: C_26  and  C_28
REMARK                            x       y       z     vdW  Elec       q    Type
REMARK                         _______ _______ _______ _____ _____    ______ ____
ROOT
ATOM      1  C   UNL     1      86.799  48.420  43.875  0.00  0.00    -0.032 C 
ATOM      2  C   UNL     1      88.310  48.765  44.036  0.00  0.00    -0.049 C 
ATOM      3  C   UNL     1      88.418  50.133  44.735  0.00  0.00    -0.043 C 
ATOM      4  C   UNL     1      87.010  50.399  45.266  0.00  0.00    -0.001 C 
ATOM      5  C   UNL     1      86.115  49.803  44.133  0.00  0.00    -0.016 C 
ATOM      6  C   UNL     1      86.176  50.666  42.819  0.00  0.00    -0.058 C 
ATOM      7  C   UNL     1      84.656  49.804  44.656  0.00  0.00    -0.028 C 
ATOM      8  C   UNL     1      84.260  51.183  45.160  0.00  0.00    -0.079 C 
ATOM      9  C   UNL     1      85.148  52.175  45.460  0.00  0.00    -0.042 C 
ATOM     10  C   UNL     1      86.606  51.842  45.513  0.00  0.00    -0.041 C 
ATOM     11  C   UNL     1      87.478  52.709  46.033  0.00  0.00    -0.080 C 
ATOM     12  C   UNL     1      87.025  53.984  46.658  0.00  0.00    -0.030 C 
ATOM     13  C   UNL     1      85.862  54.642  45.871  0.00  0.00    -0.021 C 
ATOM     14  C   UNL     1      84.650  53.619  45.725  0.00  0.00    -0.003 C 
ATOM     15  C   UNL     1      83.813  54.030  44.476  0.00  0.00    -0.055 C 
ATOM     16  C   UNL     1      83.742  53.590  47.004  0.00  0.00    -0.041 C 
ATOM     17  C   UNL     1      83.928  54.764  47.973  0.00  0.00    -0.026 C 
ATOM     18  C   UNL     1      84.120  56.095  47.240  0.00  0.00    +0.061 C 
ATOM     19  C   UNL     1      85.459  56.103  46.415  0.00  0.00    -0.005 C 
ATOM     20  C   UNL     1      85.353  57.092  45.223  0.00  0.00    -0.057 C 
ATOM     21  C   UNL     1      86.555  56.718  47.341  0.00  0.00    -0.057 C 
ATOM     22  C   UNL     1      86.885  49.682  46.651  0.00  0.00    -0.055 C 
ENDROOT
BRANCH   1  23
ATOM     23  C   UNL     1      86.478  47.648  42.540  0.00  0.00    -0.040 C 
ATOM     24  C   UNL     1      85.302  46.663  42.731  0.00  0.00    -0.062 C 
BRANCH  23  25
ATOM     25  C   UNL     1      87.696  46.822  42.011  0.00  0.00    -0.046 C 
BRANCH  25  26
ATOM     26  C   UNL     1      88.263  45.785  43.004  0.00  0.00    -0.031 C 
BRANCH  26  27
ATOM     27  C   UNL     1      87.597  44.417  42.994  0.00  0.00    -0.074 C 
ATOM     28  C   UNL     1      87.240  43.791  41.851  0.00  0.00    -0.099 C 
BRANCH  27  30
ATOM     29  C   UNL     1      85.655  43.659  44.431  0.00  0.00    -0.059 C 
ATOM     30  C   UNL     1      87.176  43.843  44.344  0.00  0.00    -0.026 C 
ATOM     31  C   UNL     1      87.921  42.536  44.660  0.00  0.00    -0.059 C 
ENDBRANCH  27  30
ENDBRANCH  26  27
ENDBRANCH  25  26
ENDBRANCH  23  25
ENDBRANCH   1  23
BRANCH  18  32
ATOM     32  O   UNL     1      82.992  56.371  46.442  0.00  0.00    -0.391 OA
ATOM     33  H   UNL     1      83.235  56.302  45.505  0.00  0.00    +0.000 HD
ENDBRANCH  18  32
TORSDOF 6
ENDMDL
