MODEL 1
REMARK VINA RESULT:    -8.396      0.000      0.000
REMARK INTER + INTRA:          -9.680
REMARK INTER:                  -9.381
REMARK INTRA:                  -0.299
REMARK UNBOUND:                -0.302
REMARK  Name = 
REMARK  6 active torsions:
REMARK  status: ('A' for Active; 'I' for Inactive)
REMARK    1  A    between atoms: C_1  and  C_2
REMARK    2  A    between atoms: C_2  and  C_3
REMARK    3  A    between atoms: C_12  and  C_16
REMARK    4  A    between atoms: C_16  and  C_17
REMARK    5  A    between atoms: C_19  and  C_20
REMARK    6  A    between atoms: C_19  and  C_21
REMARK                            x       y       z     vdW  Elec       q    Type
REMARK                         _______ _______ _______ _____ _____    ______ ____
ROOT
ATOM      1  C   UNL     1      83.685  54.525  47.617  0.00  0.00    -0.021 C 
ATOM      2  C   UNL     1      85.142  54.054  47.649  0.00  0.00    +0.124 C 
ATOM      3  C   UNL     1      86.076  55.258  47.835  0.00  0.00    -0.021 C 
ATOM      4  C   UNL     1      85.337  53.097  48.815  0.00  0.00    -0.041 C 
ATOM      5  C   UNL     1      86.077  51.988  48.707  0.00  0.00    -0.051 C 
ATOM      6  C   UNL     1      86.638  51.584  47.410  0.00  0.00    +0.019 A 
ATOM      7  C   UNL     1      86.285  52.327  46.270  0.00  0.00    +0.153 A 
ATOM      8  O   UNL     1      85.443  53.436  46.388  0.00  0.00    -0.480 OA
ATOM      9  C   UNL     1      86.777  51.912  45.034  0.00  0.00    +0.090 A 
ATOM     10  N   UNL     1      86.539  52.462  43.830  0.00  0.00    -0.358 N 
ATOM     11  C   UNL     1      87.213  51.705  42.933  0.00  0.00    +0.006 A 
ATOM     12  C   UNL     1      87.892  50.677  43.580  0.00  0.00    -0.020 A 
ATOM     13  C   UNL     1      87.594  50.816  44.921  0.00  0.00    +0.007 A 
ATOM     14  C   UNL     1      87.964  50.055  46.032  0.00  0.00    -0.052 A 
ATOM     15  C   UNL     1      87.475  50.448  47.292  0.00  0.00    -0.050 A 
ATOM     16  H   UNL     1      85.987  53.255  43.639  0.00  0.00    +0.000 HD
ENDROOT
BRANCH  12  17
ATOM     17  C   UNL     1      88.689  49.586  42.932  0.00  0.00    +0.003 C 
BRANCH  17  18
ATOM     18  C   UNL     1      87.795  48.367  42.673  0.00  0.00    +0.092 C 
ATOM     19  O   UNL     1      87.829  47.964  41.319  0.00  0.00    -0.365 OA
ATOM     20  C   UNL     1      88.435  47.091  42.245  0.00  0.00    +0.091 C 
ATOM     21  C   UNL     1      89.953  46.995  42.060  0.00  0.00    -0.034 C 
ATOM     22  C   UNL     1      87.636  45.803  42.438  0.00  0.00    -0.034 C 
ENDBRANCH  17  18
ENDBRANCH  12  17
TORSDOF 2
ENDMDL
MODEL 2
REMARK VINA RESULT:    -8.359      1.679      7.459
REMARK INTER + INTRA:          -9.639
REMARK INTER:                  -9.355
REMARK INTRA:                  -0.284
REMARK UNBOUND:                -0.302
REMARK  Name = 
REMARK  6 active torsions:
REMARK  status: ('A' for Active; 'I' for Inactive)
REMARK    1  A    between atoms: C_1  and  C_2
REMARK    2  A    between atoms: C_2  and  C_3
REMARK    3  A    between atoms: C_12  and  C_16
REMARK    4  A    between atoms: C_16  and  C_17
REMARK    5  A    between atoms: C_19  and  C_20
REMARK    6  A    between atoms: C_19  and  C_21
REMARK                            x       y       z     vdW  Elec       q    Type
REMARK                         _______ _______ _______ _____ _____    ______ ____
ROOT
ATOM      1  C   UNL     1      89.895  46.796  42.812  0.00  0.00    -0.021 C 
ATOM      2  C   UNL     1      90.131  48.303  42.965  0.00  0.00    +0.124 C 
ATOM      3  C   UNL     1      91.456  48.552  43.697  0.00  0.00    -0.021 C 
ATOM      4  C   UNL     1      90.203  48.944  41.587  0.00  0.00    -0.041 C 
ATOM      5  C   UNL     1      89.628  50.121  41.321  0.00  0.00    -0.051 C 
ATOM      6  C   UNL     1      88.791  50.792  42.326  0.00  0.00    +0.019 A 
ATOM      7  C   UNL     1      88.520  50.114  43.529  0.00  0.00    +0.153 A 
ATOM      8  O   UNL     1      89.063  48.847  43.757  0.00  0.00    -0.480 OA
ATOM      9  C   UNL     1      87.686  50.729  44.459  0.00  0.00    +0.090 A 
ATOM     10  N   UNL     1      87.283  50.244  45.647  0.00  0.00    -0.358 N 
ATOM     11  C   UNL     1      86.472  51.186  46.181  0.00  0.00    +0.006 A 
ATOM     12  C   UNL     1      86.373  52.281  45.327  0.00  0.00    -0.020 A 
ATOM     13  C   UNL     1      87.145  51.968  44.226  0.00  0.00    +0.007 A 
ATOM     14  C   UNL     1      87.392  52.669  43.043  0.00  0.00    -0.052 A 
ATOM     15  C   UNL     1      88.226  52.067  42.083  0.00  0.00    -0.050 A 
ATOM     16  H   UNL     1      87.529  49.379  46.048  0.00  0.00    +0.000 HD
ENDROOT
BRANCH  12  17
ATOM     17  C   UNL     1      85.515  53.493  45.524  0.00  0.00    +0.003 C 
BRANCH  17  18
ATOM     18  C   UNL     1      85.028  53.559  46.977  0.00  0.00    +0.092 C 
ATOM     19  O   UNL     1      85.937  54.251  47.809  0.00  0.00    -0.365 OA
ATOM     20  C   UNL     1      84.706  54.891  47.561  0.00  0.00    +0.091 C 
ATOM     21  C   UNL     1      84.862  56.173  46.735  0.00  0.00    -0.034 C 
ATOM     22  C   UNL     1      83.807  54.920  48.797  0.00  0.00    -0.034 C 
ENDBRANCH  17  18
ENDBRANCH  12  17
TORSDOF 2
ENDMDL
MODEL 3
REMARK VINA RESULT:    -8.152      1.963      2.368
REMARK INTER + INTRA:          -9.407
REMARK INTER:                  -9.088
REMARK INTRA:                  -0.320
REMARK UNBOUND:                -0.302
REMARK  Name = 
REMARK  6 active torsions:
REMARK  status: ('A' for Active; 'I' for Inactive)
REMARK    1  A    between atoms: C_1  and  C_2
REMARK    2  A    between atoms: C_2  and  C_3
REMARK    3  A    between atoms: C_12  and  C_16
REMARK    4  A    between atoms: C_16  and  C_17
REMARK    5  A    between atoms: C_19  and  C_20
REMARK    6  A    between atoms: C_19  and  C_21
REMARK                            x       y       z     vdW  Elec       q    Type
REMARK                         _______ _______ _______ _____ _____    ______ ____
ROOT
ATOM      1  C   UNL     1      84.147  56.287  43.543  0.00  0.00    -0.021 C 
ATOM      2  C   UNL     1      85.380  55.732  44.264  0.00  0.00    +0.124 C 
ATOM      3  C   UNL     1      86.461  56.817  44.360  0.00  0.00    -0.021 C 
ATOM      4  C   UNL     1      84.990  55.301  45.670  0.00  0.00    -0.041 C 
ATOM      5  C   UNL     1      85.456  54.176  46.222  0.00  0.00    -0.051 C 
ATOM      6  C   UNL     1      86.276  53.240  45.441  0.00  0.00    +0.019 A 
ATOM      7  C   UNL     1      86.463  53.500  44.071  0.00  0.00    +0.153 A 
ATOM      8  O   UNL     1      85.899  54.639  43.491  0.00  0.00    -0.480 OA
ATOM      9  C   UNL     1      87.198  52.585  43.320  0.00  0.00    +0.090 A 
ATOM     10  N   UNL     1      87.467  52.633  42.003  0.00  0.00    -0.358 N 
ATOM     11  C   UNL     1      88.190  51.523  41.729  0.00  0.00    +0.006 A 
ATOM     12  C   UNL     1      88.390  50.776  42.886  0.00  0.00    -0.020 A 
ATOM     13  C   UNL     1      87.740  51.462  43.892  0.00  0.00    +0.007 A 
ATOM     14  C   UNL     1      87.573  51.172  45.248  0.00  0.00    -0.052 A 
ATOM     15  C   UNL     1      86.828  52.077  46.028  0.00  0.00    -0.050 A 
ATOM     16  H   UNL     1      87.194  53.333  41.368  0.00  0.00    +0.000 HD
ENDROOT
BRANCH  12  17
ATOM     17  C   UNL     1      89.076  49.448  42.985  0.00  0.00    +0.003 C 
BRANCH  17  18
ATOM     18  C   UNL     1      88.074  48.319  42.713  0.00  0.00    +0.092 C 
ATOM     19  O   UNL     1      88.079  47.922  41.356  0.00  0.00    -0.365 OA
ATOM     20  C   UNL     1      88.595  46.991  42.281  0.00  0.00    +0.091 C 
ATOM     21  C   UNL     1      90.099  46.754  42.105  0.00  0.00    -0.034 C 
ATOM     22  C   UNL     1      87.678  45.782  42.461  0.00  0.00    -0.034 C 
ENDBRANCH  17  18
ENDBRANCH  12  17
TORSDOF 2
ENDMDL
MODEL 4
REMARK VINA RESULT:    -8.133      6.308      9.359
REMARK INTER + INTRA:          -9.386
REMARK INTER:                  -9.130
REMARK INTRA:                  -0.256
REMARK UNBOUND:                -0.302
REMARK  Name = 
REMARK  6 active torsions:
REMARK  status: ('A' for Active; 'I' for Inactive)
REMARK    1  A    between atoms: C_1  and  C_2
REMARK    2  A    between atoms: C_2  and  C_3
REMARK    3  A    between atoms: C_12  and  C_16
REMARK    4  A    between atoms: C_16  and  C_17
REMARK    5  A    between atoms: C_19  and  C_20
REMARK    6  A    between atoms: C_19  and  C_21
REMARK                            x       y       z     vdW  Elec       q    Type
REMARK                         _______ _______ _______ _____ _____    ______ ____
ROOT
ATOM      1  C   UNL     1      85.308  44.144  42.424  0.00  0.00    -0.021 C 
ATOM      2  C   UNL     1      85.027  45.156  43.540  0.00  0.00    +0.124 C 
ATOM      3  C   UNL     1      85.210  44.487  44.909  0.00  0.00    -0.021 C 
ATOM      4  C   UNL     1      86.004  46.316  43.426  0.00  0.00    -0.041 C 
ATOM      5  C   UNL     1      85.624  47.585  43.612  0.00  0.00    -0.051 C 
ATOM      6  C   UNL     1      84.208  47.922  43.817  0.00  0.00    +0.019 A 
ATOM      7  C   UNL     1      83.254  46.895  43.699  0.00  0.00    +0.153 A 
ATOM      8  O   UNL     1      83.662  45.587  43.423  0.00  0.00    -0.480 OA
ATOM      9  C   UNL     1      81.908  47.225  43.843  0.00  0.00    +0.090 A 
ATOM     10  N   UNL     1      80.847  46.405  43.741  0.00  0.00    -0.358 N 
ATOM     11  C   UNL     1      79.755  47.180  43.937  0.00  0.00    +0.006 A 
ATOM     12  C   UNL     1      80.133  48.498  44.178  0.00  0.00    -0.020 A 
ATOM     13  C   UNL     1      81.511  48.512  44.103  0.00  0.00    +0.007 A 
ATOM     14  C   UNL     1      82.431  49.556  44.224  0.00  0.00    -0.052 A 
ATOM     15  C   UNL     1      83.797  49.251  44.076  0.00  0.00    -0.050 A 
ATOM     16  H   UNL     1      80.861  45.437  43.561  0.00  0.00    +0.000 HD
ENDROOT
BRANCH  12  17
ATOM     17  C   UNL     1      79.218  49.669  44.369  0.00  0.00    +0.003 C 
BRANCH  17  18
ATOM     18  C   UNL     1      78.099  49.304  45.353  0.00  0.00    +0.092 C 
ATOM     19  O   UNL     1      77.856  50.339  46.285  0.00  0.00    -0.365 OA
ATOM     20  C   UNL     1      76.843  50.105  45.333  0.00  0.00    +0.091 C 
ATOM     21  C   UNL     1      76.669  51.274  44.357  0.00  0.00    -0.034 C 
ATOM     22  C   UNL     1      75.596  49.477  45.954  0.00  0.00    -0.034 C 
ENDBRANCH  17  18
ENDBRANCH  12  17
TORSDOF 2
ENDMDL
MODEL 5
REMARK VINA RESULT:    -7.855      2.227      7.142
REMARK INTER + INTRA:          -9.075
REMARK INTER:                  -8.767
REMARK INTRA:                  -0.308
REMARK UNBOUND:                -0.302
REMARK  Name = 
REMARK  6 active torsions:
REMARK  status: ('A' for Active; 'I' for Inactive)
REMARK    1  A    between atoms: C_1  and  C_2
REMARK    2  A    between atoms: C_2  and  C_3
REMARK    3  A    between atoms: C_12  and  C_16
REMARK    4  A    between atoms: C_16  and  C_17
REMARK    5  A    between atoms: C_19  and  C_20
REMARK    6  A    between atoms: C_19  and  C_21
REMARK                            x       y       z     vdW  Elec       q    Type
REMARK                         _______ _______ _______ _____ _____    ______ ____
ROOT
ATOM      1  C   UNL     1      89.433  46.485  42.603  0.00  0.00    -0.021 C 
ATOM      2  C   UNL     1      89.885  47.932  42.826  0.00  0.00    +0.124 C 
ATOM      3  C   UNL     1      91.230  47.950  43.566  0.00  0.00    -0.021 C 
ATOM      4  C   UNL     1      90.056  48.621  41.480  0.00  0.00    -0.041 C 
ATOM      5  C   UNL     1      89.659  49.881  41.273  0.00  0.00    -0.051 C 
ATOM      6  C   UNL     1      88.926  50.618  42.312  0.00  0.00    +0.019 A 
ATOM      7  C   UNL     1      88.554  49.930  43.481  0.00  0.00    +0.153 A 
ATOM      8  O   UNL     1      88.906  48.588  43.647  0.00  0.00    -0.480 OA
ATOM      9  C   UNL     1      87.815  50.616  44.443  0.00  0.00    +0.090 A 
ATOM     10  N   UNL     1      87.342  50.138  45.608  0.00  0.00    -0.358 N 
ATOM     11  C   UNL     1      86.675  51.162  46.188  0.00  0.00    +0.006 A 
ATOM     12  C   UNL     1      86.740  52.300  45.388  0.00  0.00    -0.020 A 
ATOM     13  C   UNL     1      87.463  51.930  44.271  0.00  0.00    +0.007 A 
ATOM     14  C   UNL     1      87.814  52.643  43.123  0.00  0.00    -0.052 A 
ATOM     15  C   UNL     1      88.555  51.972  42.132  0.00  0.00    -0.050 A 
ATOM     16  H   UNL     1      87.457  49.228  45.966  0.00  0.00    +0.000 HD
ENDROOT
BRANCH  12  17
ATOM     17  C   UNL     1      86.068  53.613  45.646  0.00  0.00    +0.003 C 
BRANCH  17  18
ATOM     18  C   UNL     1      85.116  53.950  44.492  0.00  0.00    +0.092 C 
ATOM     19  O   UNL     1      84.332  55.094  44.769  0.00  0.00    -0.365 OA
ATOM     20  C   UNL     1      85.307  55.233  43.760  0.00  0.00    +0.091 C 
ATOM     21  C   UNL     1      86.427  56.204  44.151  0.00  0.00    -0.034 C 
ATOM     22  C   UNL     1      84.689  55.349  42.367  0.00  0.00    -0.034 C 
ENDBRANCH  17  18
ENDBRANCH  12  17
TORSDOF 2
ENDMDL
MODEL 6
REMARK VINA RESULT:    -7.773      5.203      7.324
REMARK INTER + INTRA:          -8.984
REMARK INTER:                  -8.476
REMARK INTRA:                  -0.508
REMARK UNBOUND:                -0.302
REMARK  Name = 
REMARK  6 active torsions:
REMARK  status: ('A' for Active; 'I' for Inactive)
REMARK    1  A    between atoms: C_1  and  C_2
REMARK    2  A    between atoms: C_2  and  C_3
REMARK    3  A    between atoms: C_12  and  C_16
REMARK    4  A    between atoms: C_16  and  C_17
REMARK    5  A    between atoms: C_19  and  C_20
REMARK    6  A    between atoms: C_19  and  C_21
REMARK                            x       y       z     vdW  Elec       q    Type
REMARK                         _______ _______ _______ _____ _____    ______ ____
ROOT
ATOM      1  C   UNL     1      80.377  47.502  45.741  0.00  0.00    -0.021 C 
ATOM      2  C   UNL     1      80.814  47.983  44.353  0.00  0.00    +0.124 C 
ATOM      3  C   UNL     1      81.158  46.777  43.468  0.00  0.00    -0.021 C 
ATOM      4  C   UNL     1      79.674  48.757  43.707  0.00  0.00    -0.041 C 
ATOM      5  C   UNL     1      79.885  49.879  43.010  0.00  0.00    -0.051 C 
ATOM      6  C   UNL     1      81.224  50.481  42.943  0.00  0.00    +0.019 A 
ATOM      7  C   UNL     1      82.250  49.913  43.718  0.00  0.00    +0.153 A 
ATOM      8  O   UNL     1      81.993  48.788  44.506  0.00  0.00    -0.480 OA
ATOM      9  C   UNL     1      83.506  50.515  43.693  0.00  0.00    +0.090 A 
ATOM     10  N   UNL     1      84.605  50.149  44.376  0.00  0.00    -0.358 N 
ATOM     11  C   UNL     1      85.567  51.041  44.044  0.00  0.00    +0.006 A 
ATOM     12  C   UNL     1      85.073  51.970  43.132  0.00  0.00    -0.020 A 
ATOM     13  C   UNL     1      83.751  51.627  42.927  0.00  0.00    +0.007 A 
ATOM     14  C   UNL     1      82.755  52.217  42.146  0.00  0.00    -0.052 A 
ATOM     15  C   UNL     1      81.475  51.633  42.159  0.00  0.00    -0.050 A 
ATOM     16  H   UNL     1      84.693  49.387  44.993  0.00  0.00    +0.000 HD
ENDROOT
BRANCH  12  17
ATOM     17  C   UNL     1      85.803  53.156  42.580  0.00  0.00    +0.003 C 
BRANCH  17  18
ATOM     18  C   UNL     1      85.447  54.412  43.386  0.00  0.00    +0.092 C 
ATOM     19  O   UNL     1      86.120  55.558  42.905  0.00  0.00    -0.365 OA
ATOM     20  C   UNL     1      84.726  55.520  42.699  0.00  0.00    +0.091 C 
ATOM     21  C   UNL     1      84.350  55.415  41.216  0.00  0.00    -0.034 C 
ATOM     22  C   UNL     1      83.981  56.526  43.575  0.00  0.00    -0.034 C 
ENDBRANCH  17  18
ENDBRANCH  12  17
TORSDOF 2
ENDMDL
MODEL 7
REMARK VINA RESULT:    -7.629      4.367      5.276
REMARK INTER + INTRA:          -8.822
REMARK INTER:                  -8.566
REMARK INTRA:                  -0.256
REMARK UNBOUND:                -0.302
REMARK  Name = 
REMARK  6 active torsions:
REMARK  status: ('A' for Active; 'I' for Inactive)
REMARK    1  A    between atoms: C_1  and  C_2
REMARK    2  A    between atoms: C_2  and  C_3
REMARK    3  A    between atoms: C_12  and  C_16
REMARK    4  A    between atoms: C_16  and  C_17
REMARK    5  A    between atoms: C_19  and  C_20
REMARK    6  A    between atoms: C_19  and  C_21
REMARK                            x       y       z     vdW  Elec       q    Type
REMARK                         _______ _______ _______ _____ _____    ______ ____
ROOT
ATOM      1  C   UNL     1      79.644  49.690  43.323  0.00  0.00    -0.021 C 
ATOM      2  C   UNL     1      80.630  48.871  44.163  0.00  0.00    +0.124 C 
ATOM      3  C   UNL     1      80.178  48.854  45.629  0.00  0.00    -0.021 C 
ATOM      4  C   UNL     1      80.668  47.441  43.644  0.00  0.00    -0.041 C 
ATOM      5  C   UNL     1      81.811  46.756  43.536  0.00  0.00    -0.051 C 
ATOM      6  C   UNL     1      83.103  47.404  43.802  0.00  0.00    +0.019 A 
ATOM      7  C   UNL     1      83.115  48.786  44.062  0.00  0.00    +0.153 A 
ATOM      8  O   UNL     1      81.917  49.505  44.090  0.00  0.00    -0.480 OA
ATOM      9  C   UNL     1      84.345  49.408  44.264  0.00  0.00    +0.090 A 
ATOM     10  N   UNL     1      84.576  50.713  44.496  0.00  0.00    -0.358 N 
ATOM     11  C   UNL     1      85.919  50.841  44.605  0.00  0.00    +0.006 A 
ATOM     12  C   UNL     1      86.538  49.604  44.453  0.00  0.00    -0.020 A 
ATOM     13  C   UNL     1      85.520  48.701  44.223  0.00  0.00    +0.007 A 
ATOM     14  C   UNL     1      85.545  47.329  43.967  0.00  0.00    -0.052 A 
ATOM     15  C   UNL     1      84.316  46.676  43.753  0.00  0.00    -0.050 A 
ATOM     16  H   UNL     1      83.905  51.429  44.573  0.00  0.00    +0.000 HD
ENDROOT
BRANCH  12  17
ATOM     17  C   UNL     1      88.013  49.340  44.434  0.00  0.00    +0.003 C 
BRANCH  17  18
ATOM     18  C   UNL     1      88.488  49.123  42.992  0.00  0.00    +0.092 C 
ATOM     19  O   UNL     1      89.486  50.052  42.618  0.00  0.00    -0.365 OA
ATOM     20  C   UNL     1      89.901  48.713  42.760  0.00  0.00    +0.091 C 
ATOM     21  C   UNL     1      90.867  48.515  43.935  0.00  0.00    -0.034 C 
ATOM     22  C   UNL     1      90.235  48.062  41.419  0.00  0.00    -0.034 C 
ENDBRANCH  17  18
ENDBRANCH  12  17
TORSDOF 2
ENDMDL
MODEL 8
REMARK VINA RESULT:    -7.576      1.309      2.395
REMARK INTER + INTRA:          -8.764
REMARK INTER:                  -8.488
REMARK INTRA:                  -0.276
REMARK UNBOUND:                -0.302
REMARK  Name = 
REMARK  6 active torsions:
REMARK  status: ('A' for Active; 'I' for Inactive)
REMARK    1  A    between atoms: C_1  and  C_2
REMARK    2  A    between atoms: C_2  and  C_3
REMARK    3  A    between atoms: C_12  and  C_16
REMARK    4  A    between atoms: C_16  and  C_17
REMARK    5  A    between atoms: C_19  and  C_20
REMARK    6  A    between atoms: C_19  and  C_21
REMARK                            x       y       z     vdW  Elec       q    Type
REMARK                         _______ _______ _______ _____ _____    ______ ____
ROOT
ATOM      1  C   UNL     1      85.774  54.558  49.079  0.00  0.00    -0.021 C 
ATOM      2  C   UNL     1      85.307  54.160  47.675  0.00  0.00    +0.124 C 
ATOM      3  C   UNL     1      83.848  53.688  47.724  0.00  0.00    -0.021 C 
ATOM      4  C   UNL     1      85.402  55.366  46.751  0.00  0.00    -0.041 C 
ATOM      5  C   UNL     1      85.847  55.264  45.495  0.00  0.00    -0.051 C 
ATOM      6  C   UNL     1      86.382  53.991  44.989  0.00  0.00    +0.019 A 
ATOM      7  C   UNL     1      86.519  52.920  45.890  0.00  0.00    +0.153 A 
ATOM      8  O   UNL     1      86.124  53.069  47.222  0.00  0.00    -0.480 OA
ATOM      9  C   UNL     1      87.073  51.731  45.421  0.00  0.00    +0.090 A 
ATOM     10  N   UNL     1      87.313  50.607  46.120  0.00  0.00    -0.358 N 
ATOM     11  C   UNL     1      87.874  49.737  45.247  0.00  0.00    +0.006 A 
ATOM     12  C   UNL     1      87.975  50.314  43.984  0.00  0.00    -0.020 A 
ATOM     13  C   UNL     1      87.470  51.593  44.115  0.00  0.00    +0.007 A 
ATOM     14  C   UNL     1      87.350  52.636  43.195  0.00  0.00    -0.052 A 
ATOM     15  C   UNL     1      86.800  53.851  43.644  0.00  0.00    -0.050 A 
ATOM     16  H   UNL     1      87.120  50.448  47.072  0.00  0.00    +0.000 HD
ENDROOT
BRANCH  12  17
ATOM     17  C   UNL     1      88.604  49.703  42.770  0.00  0.00    +0.003 C 
BRANCH  17  18
ATOM     18  C   UNL     1      87.923  48.368  42.444  0.00  0.00    +0.092 C 
ATOM     19  O   UNL     1      88.038  48.037  41.074  0.00  0.00    -0.365 OA
ATOM     20  C   UNL     1      88.767  47.233  41.973  0.00  0.00    +0.091 C 
ATOM     21  C   UNL     1      90.283  47.392  41.813  0.00  0.00    -0.034 C 
ATOM     22  C   UNL     1      88.186  45.825  42.097  0.00  0.00    -0.034 C 
ENDBRANCH  17  18
ENDBRANCH  12  17
TORSDOF 2
ENDMDL
MODEL 9
REMARK VINA RESULT:    -7.464      1.998      7.438
REMARK INTER + INTRA:          -8.639
REMARK INTER:                  -8.337
REMARK INTRA:                  -0.302
REMARK UNBOUND:                -0.302
REMARK  Name = 
REMARK  6 active torsions:
REMARK  status: ('A' for Active; 'I' for Inactive)
REMARK    1  A    between atoms: C_1  and  C_2
REMARK    2  A    between atoms: C_2  and  C_3
REMARK    3  A    between atoms: C_12  and  C_16
REMARK    4  A    between atoms: C_16  and  C_17
REMARK    5  A    between atoms: C_19  and  C_20
REMARK    6  A    between atoms: C_19  and  C_21
REMARK                            x       y       z     vdW  Elec       q    Type
REMARK                         _______ _______ _______ _____ _____    ______ ____
ROOT
ATOM      1  C   UNL     1      85.144  44.024  42.354  0.00  0.00    -0.021 C 
ATOM      2  C   UNL     1      86.213  44.807  43.124  0.00  0.00    +0.124 C 
ATOM      3  C   UNL     1      86.562  44.073  44.426  0.00  0.00    -0.021 C 
ATOM      4  C   UNL     1      87.468  44.919  42.271  0.00  0.00    -0.041 C 
ATOM      5  C   UNL     1      88.183  46.047  42.206  0.00  0.00    -0.051 C 
ATOM      6  C   UNL     1      87.713  47.273  42.867  0.00  0.00    +0.019 A 
ATOM      7  C   UNL     1      86.443  47.261  43.471  0.00  0.00    +0.153 A 
ATOM      8  O   UNL     1      85.673  46.095  43.459  0.00  0.00    -0.480 OA
ATOM      9  C   UNL     1      85.978  48.438  44.053  0.00  0.00    +0.090 A 
ATOM     10  N   UNL     1      84.792  48.644  44.652  0.00  0.00    -0.358 N 
ATOM     11  C   UNL     1      84.788  49.940  45.039  0.00  0.00    +0.006 A 
ATOM     12  C   UNL     1      85.989  50.553  44.692  0.00  0.00    -0.020 A 
ATOM     13  C   UNL     1      86.733  49.583  44.052  0.00  0.00    +0.007 A 
ATOM     14  C   UNL     1      87.997  49.632  43.461  0.00  0.00    -0.052 A 
ATOM     15  C   UNL     1      88.489  48.457  42.859  0.00  0.00    -0.050 A 
ATOM     16  H   UNL     1      84.072  47.985  44.783  0.00  0.00    +0.000 HD
ENDROOT
BRANCH  12  17
ATOM     17  C   UNL     1      86.342  51.997  44.882  0.00  0.00    +0.003 C 
BRANCH  17  18
ATOM     18  C   UNL     1      86.665  52.267  46.357  0.00  0.00    +0.092 C 
ATOM     19  O   UNL     1      86.782  53.650  46.628  0.00  0.00    -0.365 OA
ATOM     20  C   UNL     1      85.663  52.997  47.184  0.00  0.00    +0.091 C 
ATOM     21  C   UNL     1      84.339  53.475  46.578  0.00  0.00    -0.034 C 
ATOM     22  C   UNL     1      85.767  52.858  48.702  0.00  0.00    -0.034 C 
ENDBRANCH  17  18
ENDBRANCH  12  17
TORSDOF 2
ENDMDL
