MODEL 1
REMARK VINA RESULT:    -8.732      0.000      0.000
REMARK INTER + INTRA:         -10.066
REMARK INTER:                  -9.764
REMARK INTRA:                  -0.302
REMARK UNBOUND:                -0.313
REMARK  Name = 
REMARK  6 active torsions:
REMARK  status: ('A' for Active; 'I' for Inactive)
REMARK    1  A    between atoms: C_1  and  C_2
REMARK    2  A    between atoms: C_2  and  C_3
REMARK    3  A    between atoms: C_12  and  C_16
REMARK    4  A    between atoms: C_16  and  C_17
REMARK    5  A    between atoms: C_19  and  C_20
REMARK    6  A    between atoms: C_19  and  C_21
REMARK                            x       y       z     vdW  Elec       q    Type
REMARK                         _______ _______ _______ _____ _____    ______ ____
ROOT
ATOM      1  C   UNL     1      83.602  54.621  47.417  0.00  0.00    -0.021 C 
ATOM      2  C   UNL     1      85.060  54.156  47.488  0.00  0.00    +0.124 C 
ATOM      3  C   UNL     1      85.979  55.359  47.735  0.00  0.00    -0.021 C 
ATOM      4  C   UNL     1      85.220  53.172  48.638  0.00  0.00    -0.041 C 
ATOM      5  C   UNL     1      85.969  52.070  48.529  0.00  0.00    -0.051 C 
ATOM      6  C   UNL     1      86.577  51.699  47.243  0.00  0.00    +0.019 A 
ATOM      7  C   UNL     1      86.260  52.467  46.109  0.00  0.00    +0.153 A 
ATOM      8  O   UNL     1      85.407  53.569  46.224  0.00  0.00    -0.480 OA
ATOM      9  C   UNL     1      86.796  52.084  44.881  0.00  0.00    +0.090 A 
ATOM     10  N   UNL     1      86.596  52.662  43.683  0.00  0.00    -0.358 N 
ATOM     11  C   UNL     1      87.305  51.930  42.793  0.00  0.00    +0.006 A 
ATOM     12  C   UNL     1      87.968  50.889  43.438  0.00  0.00    -0.020 A 
ATOM     13  C   UNL     1      87.622  50.995  44.771  0.00  0.00    +0.007 A 
ATOM     14  C   UNL     1      87.958  50.210  45.876  0.00  0.00    -0.052 A 
ATOM     15  C   UNL     1      87.423  50.571  47.127  0.00  0.00    -0.050 A 
ATOM     16  H   UNL     1      86.047  53.456  43.492  0.00  0.00    +0.000 HD
ENDROOT
BRANCH  12  17
ATOM     17  C   UNL     1      88.793  49.819  42.793  0.00  0.00    +0.003 C 
BRANCH  17  18
ATOM     18  C   UNL     1      87.911  48.609  42.458  0.00  0.00    +0.092 C 
ATOM     19  O   UNL     1      87.904  48.326  41.073  0.00  0.00    -0.365 OA
ATOM     20  C   UNL     1      88.557  47.388  41.898  0.00  0.00    +0.091 C 
ATOM     21  C   UNL     1      90.070  47.339  41.654  0.00  0.00    -0.034 C 
ATOM     22  C   UNL     1      87.788  46.072  42.004  0.00  0.00    -0.034 C 
ENDBRANCH  17  18
ENDBRANCH  12  17
TORSDOF 2
ENDMDL
MODEL 2
REMARK VINA RESULT:    -8.305      1.668      7.407
REMARK INTER + INTRA:          -9.589
REMARK INTER:                  -9.352
REMARK INTRA:                  -0.237
REMARK UNBOUND:                -0.313
REMARK  Name = 
REMARK  6 active torsions:
REMARK  status: ('A' for Active; 'I' for Inactive)
REMARK    1  A    between atoms: C_1  and  C_2
REMARK    2  A    between atoms: C_2  and  C_3
REMARK    3  A    between atoms: C_12  and  C_16
REMARK    4  A    between atoms: C_16  and  C_17
REMARK    5  A    between atoms: C_19  and  C_20
REMARK    6  A    between atoms: C_19  and  C_21
REMARK                            x       y       z     vdW  Elec       q    Type
REMARK                         _______ _______ _______ _____ _____    ______ ____
ROOT
ATOM      1  C   UNL     1      90.168  46.966  42.437  0.00  0.00    -0.021 C 
ATOM      2  C   UNL     1      90.332  48.459  42.742  0.00  0.00    +0.124 C 
ATOM      3  C   UNL     1      91.589  48.683  43.593  0.00  0.00    -0.021 C 
ATOM      4  C   UNL     1      90.479  49.227  41.436  0.00  0.00    -0.041 C 
ATOM      5  C   UNL     1      89.879  50.404  41.234  0.00  0.00    -0.051 C 
ATOM      6  C   UNL     1      88.945  50.951  42.228  0.00  0.00    +0.019 A 
ATOM      7  C   UNL     1      88.613  50.157  43.340  0.00  0.00    +0.153 A 
ATOM      8  O   UNL     1      89.188  48.892  43.495  0.00  0.00    -0.480 OA
ATOM      9  C   UNL     1      87.689  50.656  44.256  0.00  0.00    +0.090 A 
ATOM     10  N   UNL     1      87.220  50.049  45.361  0.00  0.00    -0.358 N 
ATOM     11  C   UNL     1      86.335  50.911  45.913  0.00  0.00    +0.006 A 
ATOM     12  C   UNL     1      86.256  52.077  45.156  0.00  0.00    -0.020 A 
ATOM     13  C   UNL     1      87.119  51.892  44.094  0.00  0.00    +0.007 A 
ATOM     14  C   UNL     1      87.424  52.707  43.002  0.00  0.00    -0.052 A 
ATOM     15  C   UNL     1      88.349  52.224  42.057  0.00  0.00    -0.050 A 
ATOM     16  H   UNL     1      87.470  49.160  45.700  0.00  0.00    +0.000 HD
ENDROOT
BRANCH  12  17
ATOM     17  C   UNL     1      85.339  53.237  45.395  0.00  0.00    +0.003 C 
BRANCH  17  18
ATOM     18  C   UNL     1      84.924  53.281  46.871  0.00  0.00    +0.092 C 
ATOM     19  O   UNL     1      85.989  53.685  47.708  0.00  0.00    -0.365 OA
ATOM     20  C   UNL     1      84.921  54.595  47.572  0.00  0.00    +0.091 C 
ATOM     21  C   UNL     1      85.328  55.879  46.841  0.00  0.00    -0.034 C 
ATOM     22  C   UNL     1      84.090  54.711  48.849  0.00  0.00    -0.034 C 
ENDBRANCH  17  18
ENDBRANCH  12  17
TORSDOF 2
ENDMDL
MODEL 3
REMARK VINA RESULT:    -8.201      2.021      2.440
REMARK INTER + INTRA:          -9.473
REMARK INTER:                  -9.154
REMARK INTRA:                  -0.320
REMARK UNBOUND:                -0.313
REMARK  Name = 
REMARK  6 active torsions:
REMARK  status: ('A' for Active; 'I' for Inactive)
REMARK    1  A    between atoms: C_1  and  C_2
REMARK    2  A    between atoms: C_2  and  C_3
REMARK    3  A    between atoms: C_12  and  C_16
REMARK    4  A    between atoms: C_16  and  C_17
REMARK    5  A    between atoms: C_19  and  C_20
REMARK    6  A    between atoms: C_19  and  C_21
REMARK                            x       y       z     vdW  Elec       q    Type
REMARK                         _______ _______ _______ _____ _____    ______ ____
ROOT
ATOM      1  C   UNL     1      84.067  56.462  43.302  0.00  0.00    -0.021 C 
ATOM      2  C   UNL     1      85.295  55.914  44.037  0.00  0.00    +0.124 C 
ATOM      3  C   UNL     1      86.357  57.013  44.171  0.00  0.00    -0.021 C 
ATOM      4  C   UNL     1      84.886  55.453  45.428  0.00  0.00    -0.041 C 
ATOM      5  C   UNL     1      85.360  54.326  45.969  0.00  0.00    -0.051 C 
ATOM      6  C   UNL     1      86.208  53.416  45.187  0.00  0.00    +0.019 A 
ATOM      7  C   UNL     1      86.416  53.702  43.826  0.00  0.00    +0.153 A 
ATOM      8  O   UNL     1      85.845  54.842  43.254  0.00  0.00    -0.480 OA
ATOM      9  C   UNL     1      87.178  52.811  43.073  0.00  0.00    +0.090 A 
ATOM     10  N   UNL     1      87.470  52.886  41.763  0.00  0.00    -0.358 N 
ATOM     11  C   UNL     1      88.215  51.791  41.483  0.00  0.00    +0.006 A 
ATOM     12  C   UNL     1      88.406  51.028  42.631  0.00  0.00    -0.020 A 
ATOM     13  C   UNL     1      87.727  51.687  43.636  0.00  0.00    +0.007 A 
ATOM     14  C   UNL     1      87.540  51.371  44.983  0.00  0.00    -0.052 A 
ATOM     15  C   UNL     1      86.767  52.251  45.765  0.00  0.00    -0.050 A 
ATOM     16  H   UNL     1      87.198  53.593  41.134  0.00  0.00    +0.000 HD
ENDROOT
BRANCH  12  17
ATOM     17  C   UNL     1      89.111  49.709  42.720  0.00  0.00    +0.003 C 
BRANCH  17  18
ATOM     18  C   UNL     1      88.131  48.570  42.411  0.00  0.00    +0.092 C 
ATOM     19  O   UNL     1      88.166  48.196  41.048  0.00  0.00    -0.365 OA
ATOM     20  C   UNL     1      88.679  47.258  41.966  0.00  0.00    +0.091 C 
ATOM     21  C   UNL     1      90.190  47.047  41.812  0.00  0.00    -0.034 C 
ATOM     22  C   UNL     1      87.778  46.032  42.109  0.00  0.00    -0.034 C 
ENDBRANCH  17  18
ENDBRANCH  12  17
TORSDOF 2
ENDMDL
MODEL 4
REMARK VINA RESULT:    -8.078      6.385      9.464
REMARK INTER + INTRA:          -9.335
REMARK INTER:                  -9.079
REMARK INTRA:                  -0.256
REMARK UNBOUND:                -0.313
REMARK  Name = 
REMARK  6 active torsions:
REMARK  status: ('A' for Active; 'I' for Inactive)
REMARK    1  A    between atoms: C_1  and  C_2
REMARK    2  A    between atoms: C_2  and  C_3
REMARK    3  A    between atoms: C_12  and  C_16
REMARK    4  A    between atoms: C_16  and  C_17
REMARK    5  A    between atoms: C_19  and  C_20
REMARK    6  A    between atoms: C_19  and  C_21
REMARK                            x       y       z     vdW  Elec       q    Type
REMARK                         _______ _______ _______ _____ _____    ______ ____
ROOT
ATOM      1  C   UNL     1      85.234  44.221  42.076  0.00  0.00    -0.021 C 
ATOM      2  C   UNL     1      84.986  45.272  43.163  0.00  0.00    +0.124 C 
ATOM      3  C   UNL     1      85.221  44.655  44.548  0.00  0.00    -0.021 C 
ATOM      4  C   UNL     1      85.951  46.433  42.972  0.00  0.00    -0.041 C 
ATOM      5  C   UNL     1      85.569  47.705  43.124  0.00  0.00    -0.051 C 
ATOM      6  C   UNL     1      84.159  48.042  43.365  0.00  0.00    +0.019 A 
ATOM      7  C   UNL     1      83.209  47.007  43.320  0.00  0.00    +0.153 A 
ATOM      8  O   UNL     1      83.615  45.692  43.078  0.00  0.00    -0.480 OA
ATOM      9  C   UNL     1      81.867  47.336  43.499  0.00  0.00    +0.090 A 
ATOM     10  N   UNL     1      80.808  46.507  43.465  0.00  0.00    -0.358 N 
ATOM     11  C   UNL     1      79.719  47.283  43.670  0.00  0.00    +0.006 A 
ATOM     12  C   UNL     1      80.096  48.611  43.849  0.00  0.00    -0.020 A 
ATOM     13  C   UNL     1      81.471  48.629  43.724  0.00  0.00    +0.007 A 
ATOM     14  C   UNL     1      82.388  49.682  43.775  0.00  0.00    -0.052 A 
ATOM     15  C   UNL     1      83.750  49.378  43.590  0.00  0.00    -0.050 A 
ATOM     16  H   UNL     1      80.822  45.533  43.320  0.00  0.00    +0.000 HD
ENDROOT
BRANCH  12  17
ATOM     17  C   UNL     1      79.181  49.784  44.028  0.00  0.00    +0.003 C 
BRANCH  17  18
ATOM     18  C   UNL     1      78.082  49.440  45.042  0.00  0.00    +0.092 C 
ATOM     19  O   UNL     1      77.849  50.499  45.949  0.00  0.00    -0.365 OA
ATOM     20  C   UNL     1      76.821  50.233  45.022  0.00  0.00    +0.091 C 
ATOM     21  C   UNL     1      76.622  51.372  44.016  0.00  0.00    -0.034 C 
ATOM     22  C   UNL     1      75.589  49.614  45.682  0.00  0.00    -0.034 C 
ENDBRANCH  17  18
ENDBRANCH  12  17
TORSDOF 2
ENDMDL
MODEL 5
REMARK VINA RESULT:    -8.036      2.030      2.916
REMARK INTER + INTRA:          -9.289
REMARK INTER:                  -8.980
REMARK INTRA:                  -0.309
REMARK UNBOUND:                -0.313
REMARK  Name = 
REMARK  6 active torsions:
REMARK  status: ('A' for Active; 'I' for Inactive)
REMARK    1  A    between atoms: C_1  and  C_2
REMARK    2  A    between atoms: C_2  and  C_3
REMARK    3  A    between atoms: C_12  and  C_16
REMARK    4  A    between atoms: C_16  and  C_17
REMARK    5  A    between atoms: C_19  and  C_20
REMARK    6  A    between atoms: C_19  and  C_21
REMARK                            x       y       z     vdW  Elec       q    Type
REMARK                         _______ _______ _______ _____ _____    ______ ____
ROOT
ATOM      1  C   UNL     1      83.691  53.120  48.589  0.00  0.00    -0.021 C 
ATOM      2  C   UNL     1      85.152  53.039  48.133  0.00  0.00    +0.124 C 
ATOM      3  C   UNL     1      85.867  54.362  48.437  0.00  0.00    -0.021 C 
ATOM      4  C   UNL     1      85.853  51.917  48.884  0.00  0.00    -0.041 C 
ATOM      5  C   UNL     1      86.713  51.089  48.282  0.00  0.00    -0.051 C 
ATOM      6  C   UNL     1      86.925  51.154  46.829  0.00  0.00    +0.019 A 
ATOM      7  C   UNL     1      86.121  52.028  46.076  0.00  0.00    +0.153 A 
ATOM      8  O   UNL     1      85.168  52.828  46.713  0.00  0.00    -0.480 OA
ATOM      9  C   UNL     1      86.288  52.051  44.693  0.00  0.00    +0.090 A 
ATOM     10  N   UNL     1      85.607  52.788  43.797  0.00  0.00    -0.358 N 
ATOM     11  C   UNL     1      86.107  52.457  42.584  0.00  0.00    +0.006 A 
ATOM     12  C   UNL     1      87.121  51.512  42.718  0.00  0.00    -0.020 A 
ATOM     13  C   UNL     1      87.215  51.255  44.071  0.00  0.00    +0.007 A 
ATOM     14  C   UNL     1      88.029  50.375  44.787  0.00  0.00    -0.052 A 
ATOM     15  C   UNL     1      87.876  50.326  46.186  0.00  0.00    -0.050 A 
ATOM     16  H   UNL     1      84.891  53.437  43.985  0.00  0.00    +0.000 HD
ENDROOT
BRANCH  12  17
ATOM     17  C   UNL     1      87.869  50.842  41.607  0.00  0.00    +0.003 C 
BRANCH  17  18
ATOM     18  C   UNL     1      89.212  51.548  41.380  0.00  0.00    +0.092 C 
ATOM     19  O   UNL     1      89.847  51.108  40.195  0.00  0.00    -0.365 OA
ATOM     20  C   UNL     1      89.360  52.431  40.189  0.00  0.00    +0.091 C 
ATOM     21  C   UNL     1      88.201  52.629  39.206  0.00  0.00    -0.034 C 
ATOM     22  C   UNL     1      90.486  53.464  40.214  0.00  0.00    -0.034 C 
ENDBRANCH  17  18
ENDBRANCH  12  17
TORSDOF 2
ENDMDL
MODEL 6
REMARK VINA RESULT:    -8.004      4.560      7.620
REMARK INTER + INTRA:          -9.253
REMARK INTER:                  -8.980
REMARK INTRA:                  -0.274
REMARK UNBOUND:                -0.313
REMARK  Name = 
REMARK  6 active torsions:
REMARK  status: ('A' for Active; 'I' for Inactive)
REMARK    1  A    between atoms: C_1  and  C_2
REMARK    2  A    between atoms: C_2  and  C_3
REMARK    3  A    between atoms: C_12  and  C_16
REMARK    4  A    between atoms: C_16  and  C_17
REMARK    5  A    between atoms: C_19  and  C_20
REMARK    6  A    between atoms: C_19  and  C_21
REMARK                            x       y       z     vdW  Elec       q    Type
REMARK                         _______ _______ _______ _____ _____    ______ ____
ROOT
ATOM      1  C   UNL     1      91.250  48.598  43.590  0.00  0.00    -0.021 C 
ATOM      2  C   UNL     1      90.234  48.065  42.573  0.00  0.00    +0.124 C 
ATOM      3  C   UNL     1      90.421  48.776  41.227  0.00  0.00    -0.021 C 
ATOM      4  C   UNL     1      90.455  46.572  42.376  0.00  0.00    -0.041 C 
ATOM      5  C   UNL     1      89.437  45.712  42.272  0.00  0.00    -0.051 C 
ATOM      6  C   UNL     1      88.051  46.162  42.469  0.00  0.00    +0.019 A 
ATOM      7  C   UNL     1      87.832  47.490  42.879  0.00  0.00    +0.153 A 
ATOM      8  O   UNL     1      88.915  48.354  43.062  0.00  0.00    -0.480 OA
ATOM      9  C   UNL     1      86.522  47.900  43.114  0.00  0.00    +0.090 A 
ATOM     10  N   UNL     1      86.104  49.107  43.534  0.00  0.00    -0.358 N 
ATOM     11  C   UNL     1      84.757  49.022  43.635  0.00  0.00    +0.006 A 
ATOM     12  C   UNL     1      84.322  47.752  43.263  0.00  0.00    -0.020 A 
ATOM     13  C   UNL     1      85.464  47.044  42.945  0.00  0.00    +0.007 A 
ATOM     14  C   UNL     1      85.644  45.720  42.540  0.00  0.00    -0.052 A 
ATOM     15  C   UNL     1      86.959  45.277  42.302  0.00  0.00    -0.050 A 
ATOM     16  H   UNL     1      86.663  49.894  43.727  0.00  0.00    +0.000 HD
ENDROOT
BRANCH  12  17
ATOM     17  C   UNL     1      82.915  47.241  43.310  0.00  0.00    +0.003 C 
BRANCH  17  18
ATOM     18  C   UNL     1      81.993  48.301  43.926  0.00  0.00    +0.092 C 
ATOM     19  O   UNL     1      80.971  48.697  43.032  0.00  0.00    -0.365 OA
ATOM     20  C   UNL     1      80.562  47.953  44.158  0.00  0.00    +0.091 C 
ATOM     21  C   UNL     1      80.017  46.570  43.786  0.00  0.00    -0.034 C 
ATOM     22  C   UNL     1      79.786  48.802  45.164  0.00  0.00    -0.034 C 
ENDBRANCH  17  18
ENDBRANCH  12  17
TORSDOF 2
ENDMDL
MODEL 7
REMARK VINA RESULT:    -7.833      4.140      7.366
REMARK INTER + INTRA:          -9.062
REMARK INTER:                  -8.780
REMARK INTRA:                  -0.282
REMARK UNBOUND:                -0.313
REMARK  Name = 
REMARK  6 active torsions:
REMARK  status: ('A' for Active; 'I' for Inactive)
REMARK    1  A    between atoms: C_1  and  C_2
REMARK    2  A    between atoms: C_2  and  C_3
REMARK    3  A    between atoms: C_12  and  C_16
REMARK    4  A    between atoms: C_16  and  C_17
REMARK    5  A    between atoms: C_19  and  C_20
REMARK    6  A    between atoms: C_19  and  C_21
REMARK                            x       y       z     vdW  Elec       q    Type
REMARK                         _______ _______ _______ _____ _____    ______ ____
ROOT
ATOM      1  C   UNL     1      84.747  45.126  44.622  0.00  0.00    -0.021 C 
ATOM      2  C   UNL     1      84.191  46.069  43.550  0.00  0.00    +0.124 C 
ATOM      3  C   UNL     1      84.649  45.608  42.161  0.00  0.00    -0.021 C 
ATOM      4  C   UNL     1      82.670  46.046  43.599  0.00  0.00    -0.041 C 
ATOM      5  C   UNL     1      81.939  47.157  43.467  0.00  0.00    -0.051 C 
ATOM      6  C   UNL     1      82.585  48.476  43.390  0.00  0.00    +0.019 A 
ATOM      7  C   UNL     1      83.977  48.548  43.572  0.00  0.00    +0.153 A 
ATOM      8  O   UNL     1      84.717  47.383  43.792  0.00  0.00    -0.480 OA
ATOM      9  C   UNL     1      84.581  49.804  43.549  0.00  0.00    +0.090 A 
ATOM     10  N   UNL     1      85.882  50.091  43.729  0.00  0.00    -0.358 N 
ATOM     11  C   UNL     1      85.984  51.438  43.639  0.00  0.00    +0.006 A 
ATOM     12  C   UNL     1      84.736  52.002  43.388  0.00  0.00    -0.020 A 
ATOM     13  C   UNL     1      83.849  50.946  43.345  0.00  0.00    +0.007 A 
ATOM     14  C   UNL     1      82.465  50.911  43.162  0.00  0.00    -0.052 A 
ATOM     15  C   UNL     1      81.829  49.655  43.188  0.00  0.00    -0.050 A 
ATOM     16  H   UNL     1      86.613  49.452  43.891  0.00  0.00    +0.000 HD
ENDROOT
BRANCH  12  17
ATOM     17  C   UNL     1      84.419  53.463  43.295  0.00  0.00    +0.003 C 
BRANCH  17  18
ATOM     18  C   UNL     1      85.641  54.292  43.714  0.00  0.00    +0.092 C 
ATOM     19  O   UNL     1      86.306  54.854  42.600  0.00  0.00    -0.365 OA
ATOM     20  C   UNL     1      85.634  55.758  43.447  0.00  0.00    +0.091 C 
ATOM     21  C   UNL     1      84.436  56.429  42.765  0.00  0.00    -0.034 C 
ATOM     22  C   UNL     1      86.599  56.625  44.254  0.00  0.00    -0.034 C 
ENDBRANCH  17  18
ENDBRANCH  12  17
TORSDOF 2
ENDMDL
MODEL 8
REMARK VINA RESULT:    -7.774      1.524      2.672
REMARK INTER + INTRA:          -8.996
REMARK INTER:                  -8.713
REMARK INTRA:                  -0.283
REMARK UNBOUND:                -0.313
REMARK  Name = 
REMARK  6 active torsions:
REMARK  status: ('A' for Active; 'I' for Inactive)
REMARK    1  A    between atoms: C_1  and  C_2
REMARK    2  A    between atoms: C_2  and  C_3
REMARK    3  A    between atoms: C_12  and  C_16
REMARK    4  A    between atoms: C_16  and  C_17
REMARK    5  A    between atoms: C_19  and  C_20
REMARK    6  A    between atoms: C_19  and  C_21
REMARK                            x       y       z     vdW  Elec       q    Type
REMARK                         _______ _______ _______ _____ _____    ______ ____
ROOT
ATOM      1  C   UNL     1      85.991  55.355  47.718  0.00  0.00    -0.021 C 
ATOM      2  C   UNL     1      85.540  54.630  46.446  0.00  0.00    +0.124 C 
ATOM      3  C   UNL     1      84.091  54.150  46.605  0.00  0.00    -0.021 C 
ATOM      4  C   UNL     1      85.613  55.590  45.267  0.00  0.00    -0.041 C 
ATOM      5  C   UNL     1      86.066  55.207  44.069  0.00  0.00    -0.051 C 
ATOM      6  C   UNL     1      86.631  53.865  43.873  0.00  0.00    +0.019 A 
ATOM      7  C   UNL     1      86.787  53.036  44.999  0.00  0.00    +0.153 A 
ATOM      8  O   UNL     1      86.383  53.483  46.259  0.00  0.00    -0.480 OA
ATOM      9  C   UNL     1      87.370  51.783  44.820  0.00  0.00    +0.090 A 
ATOM     10  N   UNL     1      87.631  50.858  45.761  0.00  0.00    -0.358 N 
ATOM     11  C   UNL     1      88.215  49.822  45.115  0.00  0.00    +0.006 A 
ATOM     12  C   UNL     1      88.309  50.092  43.752  0.00  0.00    -0.020 A 
ATOM     13  C   UNL     1      87.776  51.353  43.582  0.00  0.00    +0.007 A 
ATOM     14  C   UNL     1      87.638  52.150  42.444  0.00  0.00    -0.052 A 
ATOM     15  C   UNL     1      87.058  53.424  42.597  0.00  0.00    -0.050 A 
ATOM     16  H   UNL     1      87.437  50.922  46.724  0.00  0.00    +0.000 HD
ENDROOT
BRANCH  12  17
ATOM     17  C   UNL     1      88.958  49.228  42.714  0.00  0.00    +0.003 C 
BRANCH  17  18
ATOM     18  C   UNL     1      88.037  48.054  42.359  0.00  0.00    +0.092 C 
ATOM     19  O   UNL     1      88.261  47.583  41.045  0.00  0.00    -0.365 OA
ATOM     20  C   UNL     1      88.649  46.722  42.091  0.00  0.00    +0.091 C 
ATOM     21  C   UNL     1      90.168  46.526  42.162  0.00  0.00    -0.034 C 
ATOM     22  C   UNL     1      87.745  45.496  42.200  0.00  0.00    -0.034 C 
ENDBRANCH  17  18
ENDBRANCH  12  17
TORSDOF 2
ENDMDL
MODEL 9
REMARK VINA RESULT:    -7.681      2.344      7.075
REMARK INTER + INTRA:          -8.892
REMARK INTER:                  -8.579
REMARK INTRA:                  -0.313
REMARK UNBOUND:                -0.313
REMARK  Name = 
REMARK  6 active torsions:
REMARK  status: ('A' for Active; 'I' for Inactive)
REMARK    1  A    between atoms: C_1  and  C_2
REMARK    2  A    between atoms: C_2  and  C_3
REMARK    3  A    between atoms: C_12  and  C_16
REMARK    4  A    between atoms: C_16  and  C_17
REMARK    5  A    between atoms: C_19  and  C_20
REMARK    6  A    between atoms: C_19  and  C_21
REMARK                            x       y       z     vdW  Elec       q    Type
REMARK                         _______ _______ _______ _____ _____    ______ ____
ROOT
ATOM      1  C   UNL     1      90.476  53.878  40.055  0.00  0.00    -0.021 C 
ATOM      2  C   UNL     1      89.433  52.794  40.346  0.00  0.00    +0.124 C 
ATOM      3  C   UNL     1      88.591  52.530  39.091  0.00  0.00    -0.021 C 
ATOM      4  C   UNL     1      90.141  51.507  40.742  0.00  0.00    -0.041 C 
ATOM      5  C   UNL     1      89.695  50.728  41.734  0.00  0.00    -0.051 C 
ATOM      6  C   UNL     1      88.562  51.151  42.568  0.00  0.00    +0.019 A 
ATOM      7  C   UNL     1      88.033  52.439  42.372  0.00  0.00    +0.153 A 
ATOM      8  O   UNL     1      88.565  53.273  41.385  0.00  0.00    -0.480 OA
ATOM      9  C   UNL     1      86.992  52.857  43.199  0.00  0.00    +0.090 A 
ATOM     10  N   UNL     1      86.370  54.050  43.194  0.00  0.00    -0.358 N 
ATOM     11  C   UNL     1      85.447  53.994  44.183  0.00  0.00    +0.006 A 
ATOM     12  C   UNL     1      85.480  52.751  44.807  0.00  0.00    -0.020 A 
ATOM     13  C   UNL     1      86.481  52.040  44.174  0.00  0.00    +0.007 A 
ATOM     14  C   UNL     1      86.982  50.756  44.397  0.00  0.00    -0.052 A 
ATOM     15  C   UNL     1      88.039  50.311  43.581  0.00  0.00    -0.050 A 
ATOM     16  H   UNL     1      86.548  54.809  42.593  0.00  0.00    +0.000 HD
ENDROOT
BRANCH  12  17
ATOM     17  C   UNL     1      84.668  52.324  45.991  0.00  0.00    +0.003 C 
BRANCH  17  18
ATOM     18  C   UNL     1      84.219  53.555  46.789  0.00  0.00    +0.092 C 
ATOM     19  O   UNL     1      83.369  53.207  47.865  0.00  0.00    -0.365 OA
ATOM     20  C   UNL     1      84.652  53.681  48.209  0.00  0.00    +0.091 C 
ATOM     21  C   UNL     1      85.523  52.604  48.866  0.00  0.00    -0.034 C 
ATOM     22  C   UNL     1      84.607  55.073  48.838  0.00  0.00    -0.034 C 
ENDBRANCH  17  18
ENDBRANCH  12  17
TORSDOF 2
ENDMDL
