MODEL 1
REMARK VINA RESULT:    -8.219      0.000      0.000
REMARK INTER + INTRA:         -10.550
REMARK INTER:                 -10.046
REMARK INTRA:                  -0.503
REMARK UNBOUND:                -0.409
REMARK  Name = 
REMARK  9 active torsions:
REMARK  status: ('A' for Active; 'I' for Inactive)
REMARK    1  A    between atoms: O_1  and  C_2
REMARK    2  A    between atoms: C_2  and  C_3
REMARK    3  A    between atoms: C_2  and  C_7
REMARK    4  A    between atoms: C_3  and  O_4
REMARK    5  A    between atoms: C_3  and  C_5
REMARK    6  A    between atoms: C_3  and  C_6
REMARK    7  A    between atoms: C_7  and  C_8
REMARK    8  A    between atoms: C_18  and  C_21
REMARK    9  A    between atoms: C_18  and  C_22
REMARK                            x       y       z     vdW  Elec       q    Type
REMARK                         _______ _______ _______ _____ _____    ______ ____
ROOT
ATOM      1  C   UNL     1      86.105  52.057  42.607  0.00  0.00    -0.020 A 
ATOM      2  C   UNL     1      85.017  52.915  42.745  0.00  0.00    +0.006 A 
ATOM      3  N   UNL     1      84.735  53.112  44.053  0.00  0.00    -0.358 N 
ATOM      4  C   UNL     1      85.626  52.376  44.740  0.00  0.00    +0.090 A 
ATOM      5  C   UNL     1      86.476  51.714  43.893  0.00  0.00    +0.007 A 
ATOM      6  C   UNL     1      87.477  50.864  44.369  0.00  0.00    -0.052 A 
ATOM      7  C   UNL     1      87.597  50.704  45.763  0.00  0.00    -0.050 A 
ATOM      8  C   UNL     1      86.726  51.393  46.638  0.00  0.00    +0.019 A 
ATOM      9  C   UNL     1      85.728  52.242  46.124  0.00  0.00    +0.153 A 
ATOM     10  O   UNL     1      84.857  52.906  46.991  0.00  0.00    -0.480 OA
ATOM     11  C   UNL     1      85.096  53.015  48.403  0.00  0.00    +0.124 C 
ATOM     12  C   UNL     1      86.009  51.910  48.914  0.00  0.00    -0.041 C 
ATOM     13  C   UNL     1      86.800  51.208  48.095  0.00  0.00    -0.051 C 
ATOM     14  C   UNL     1      85.753  54.371  48.684  0.00  0.00    -0.021 C 
ATOM     15  C   UNL     1      83.746  52.929  49.126  0.00  0.00    -0.021 C 
ATOM     16  H   UNL     1      84.022  53.679  44.426  0.00  0.00    +0.000 HD
ENDROOT
BRANCH   1  17
ATOM     17  C   UNL     1      86.673  51.541  41.317  0.00  0.00    +0.003 C 
BRANCH  17  18
ATOM     18  C   UNL     1      87.635  52.573  40.688  0.00  0.00    +0.087 C 
BRANCH  18  19
ATOM     19  C   UNL     1      89.042  52.005  40.318  0.00  0.00    +0.087 C 
ATOM     20  C   UNL     1      89.427  50.817  41.229  0.00  0.00    -0.034 C 
ATOM     21  C   UNL     1      90.124  53.104  40.413  0.00  0.00    -0.034 C 
BRANCH  19  22
ATOM     22  O   UNL     1      88.972  51.558  38.982  0.00  0.00    -0.387 OA
ATOM     23  H   UNL     1      88.086  51.206  38.805  0.00  0.00    +0.000 HD
ENDBRANCH  19  22
ENDBRANCH  18  19
BRANCH  18  24
ATOM     24  O   UNL     1      87.026  53.116  39.540  0.00  0.00    -0.389 OA
ATOM     25  H   UNL     1      87.088  54.083  39.568  0.00  0.00    +0.000 HD
ENDBRANCH  18  24
ENDBRANCH  17  18
ENDBRANCH   1  17
TORSDOF 5
ENDMDL
MODEL 2
REMARK VINA RESULT:    -7.987      2.760      6.606
REMARK INTER + INTRA:         -10.263
REMARK INTER:                  -9.744
REMARK INTRA:                  -0.520
REMARK UNBOUND:                -0.409
REMARK  Name = 
REMARK  9 active torsions:
REMARK  status: ('A' for Active; 'I' for Inactive)
REMARK    1  A    between atoms: O_1  and  C_2
REMARK    2  A    between atoms: C_2  and  C_3
REMARK    3  A    between atoms: C_2  and  C_7
REMARK    4  A    between atoms: C_3  and  O_4
REMARK    5  A    between atoms: C_3  and  C_5
REMARK    6  A    between atoms: C_3  and  C_6
REMARK    7  A    between atoms: C_7  and  C_8
REMARK    8  A    between atoms: C_18  and  C_21
REMARK    9  A    between atoms: C_18  and  C_22
REMARK                            x       y       z     vdW  Elec       q    Type
REMARK                         _______ _______ _______ _____ _____    ______ ____
ROOT
ATOM      1  C   UNL     1      86.410  51.996  45.731  0.00  0.00    -0.020 A 
ATOM      2  C   UNL     1      86.680  50.903  46.549  0.00  0.00    +0.006 A 
ATOM      3  N   UNL     1      87.516  50.042  45.925  0.00  0.00    -0.358 N 
ATOM      4  C   UNL     1      87.765  50.577  44.716  0.00  0.00    +0.090 A 
ATOM      5  C   UNL     1      87.104  51.767  44.559  0.00  0.00    +0.007 A 
ATOM      6  C   UNL     1      87.184  52.504  43.375  0.00  0.00    -0.052 A 
ATOM      7  C   UNL     1      87.978  51.990  42.333  0.00  0.00    -0.050 A 
ATOM      8  C   UNL     1      88.668  50.766  42.496  0.00  0.00    +0.019 A 
ATOM      9  C   UNL     1      88.564  50.050  43.703  0.00  0.00    +0.153 A 
ATOM     10  O   UNL     1      89.231  48.831  43.855  0.00  0.00    -0.480 OA
ATOM     11  C   UNL     1      90.266  48.393  42.960  0.00  0.00    +0.124 C 
ATOM     12  C   UNL     1      90.159  49.057  41.596  0.00  0.00    -0.041 C 
ATOM     13  C   UNL     1      89.465  50.184  41.407  0.00  0.00    -0.051 C 
ATOM     14  C   UNL     1      91.625  48.745  43.578  0.00  0.00    -0.021 C 
ATOM     15  C   UNL     1      90.145  46.874  42.795  0.00  0.00    -0.021 C 
ATOM     16  H   UNL     1      87.872  49.196  46.282  0.00  0.00    +0.000 HD
ENDROOT
BRANCH   1  17
ATOM     17  C   UNL     1      85.470  53.126  46.039  0.00  0.00    +0.003 C 
BRANCH  17  18
ATOM     18  C   UNL     1      86.252  54.399  46.433  0.00  0.00    +0.087 C 
BRANCH  18  19
ATOM     19  C   UNL     1      85.827  55.686  45.656  0.00  0.00    +0.087 C 
ATOM     20  C   UNL     1      86.881  56.077  44.595  0.00  0.00    -0.034 C 
ATOM     21  C   UNL     1      85.603  56.868  46.625  0.00  0.00    -0.034 C 
BRANCH  19  22
ATOM     22  O   UNL     1      84.608  55.397  45.009  0.00  0.00    -0.387 OA
ATOM     23  H   UNL     1      84.436  56.067  44.328  0.00  0.00    +0.000 HD
ENDBRANCH  19  22
ENDBRANCH  18  19
BRANCH  18  24
ATOM     24  O   UNL     1      86.103  54.610  47.817  0.00  0.00    -0.389 OA
ATOM     25  H   UNL     1      85.167  54.759  48.022  0.00  0.00    +0.000 HD
ENDBRANCH  18  24
ENDBRANCH  17  18
ENDBRANCH   1  17
TORSDOF 5
ENDMDL
MODEL 3
REMARK VINA RESULT:    -7.933      2.343      3.000
REMARK INTER + INTRA:         -10.196
REMARK INTER:                  -9.825
REMARK INTRA:                  -0.371
REMARK UNBOUND:                -0.409
REMARK  Name = 
REMARK  9 active torsions:
REMARK  status: ('A' for Active; 'I' for Inactive)
REMARK    1  A    between atoms: O_1  and  C_2
REMARK    2  A    between atoms: C_2  and  C_3
REMARK    3  A    between atoms: C_2  and  C_7
REMARK    4  A    between atoms: C_3  and  O_4
REMARK    5  A    between atoms: C_3  and  C_5
REMARK    6  A    between atoms: C_3  and  C_6
REMARK    7  A    between atoms: C_7  and  C_8
REMARK    8  A    between atoms: C_18  and  C_21
REMARK    9  A    between atoms: C_18  and  C_22
REMARK                            x       y       z     vdW  Elec       q    Type
REMARK                         _______ _______ _______ _____ _____    ______ ____
ROOT
ATOM      1  C   UNL     1      87.039  50.063  44.059  0.00  0.00    -0.020 A 
ATOM      2  C   UNL     1      86.446  51.026  43.247  0.00  0.00    +0.006 A 
ATOM      3  N   UNL     1      85.971  52.047  43.996  0.00  0.00    -0.358 N 
ATOM      4  C   UNL     1      86.248  51.731  45.273  0.00  0.00    +0.090 A 
ATOM      5  C   UNL     1      86.894  50.525  45.353  0.00  0.00    +0.007 A 
ATOM      6  C   UNL     1      87.267  49.969  46.579  0.00  0.00    -0.052 A 
ATOM      7  C   UNL     1      86.961  50.690  47.749  0.00  0.00    -0.050 A 
ATOM      8  C   UNL     1      86.301  51.938  47.667  0.00  0.00    +0.019 A 
ATOM      9  C   UNL     1      85.941  52.469  46.416  0.00  0.00    +0.153 A 
ATOM     10  O   UNL     1      85.272  53.694  46.339  0.00  0.00    -0.480 OA
ATOM     11  C   UNL     1      85.183  54.603  47.447  0.00  0.00    +0.124 C 
ATOM     12  C   UNL     1      85.359  53.894  48.782  0.00  0.00    -0.041 C 
ATOM     13  C   UNL     1      85.929  52.688  48.876  0.00  0.00    -0.051 C 
ATOM     14  C   UNL     1      86.283  55.661  47.299  0.00  0.00    -0.021 C 
ATOM     15  C   UNL     1      83.805  55.273  47.408  0.00  0.00    -0.021 C 
ATOM     16  H   UNL     1      85.516  52.858  43.672  0.00  0.00    +0.000 HD
ENDROOT
BRANCH   1  17
ATOM     17  C   UNL     1      87.614  48.752  43.609  0.00  0.00    +0.003 C 
BRANCH  17  18
ATOM     18  C   UNL     1      88.490  48.938  42.351  0.00  0.00    +0.087 C 
BRANCH  18  19
ATOM     19  C   UNL     1      89.863  48.195  42.402  0.00  0.00    +0.087 C 
ATOM     20  C   UNL     1      89.673  46.661  42.402  0.00  0.00    -0.034 C 
ATOM     21  C   UNL     1      90.674  48.617  43.646  0.00  0.00    -0.034 C 
BRANCH  19  22
ATOM     22  O   UNL     1      90.582  48.571  41.248  0.00  0.00    -0.387 OA
ATOM     23  H   UNL     1      91.308  49.162  41.498  0.00  0.00    +0.000 HD
ENDBRANCH  19  22
ENDBRANCH  18  19
BRANCH  18  24
ATOM     24  O   UNL     1      87.760  48.509  41.226  0.00  0.00    -0.389 OA
ATOM     25  H   UNL     1      88.176  48.853  40.421  0.00  0.00    +0.000 HD
ENDBRANCH  18  24
ENDBRANCH  17  18
ENDBRANCH   1  17
TORSDOF 5
ENDMDL
MODEL 4
REMARK VINA RESULT:    -7.782      3.059      4.133
REMARK INTER + INTRA:         -10.010
REMARK INTER:                  -9.643
REMARK INTRA:                  -0.367
REMARK UNBOUND:                -0.409
REMARK  Name = 
REMARK  9 active torsions:
REMARK  status: ('A' for Active; 'I' for Inactive)
REMARK    1  A    between atoms: O_1  and  C_2
REMARK    2  A    between atoms: C_2  and  C_3
REMARK    3  A    between atoms: C_2  and  C_7
REMARK    4  A    between atoms: C_3  and  O_4
REMARK    5  A    between atoms: C_3  and  C_5
REMARK    6  A    between atoms: C_3  and  C_6
REMARK    7  A    between atoms: C_7  and  C_8
REMARK    8  A    between atoms: C_18  and  C_21
REMARK    9  A    between atoms: C_18  and  C_22
REMARK                            x       y       z     vdW  Elec       q    Type
REMARK                         _______ _______ _______ _____ _____    ______ ____
ROOT
ATOM      1  C   UNL     1      87.948  50.859  43.871  0.00  0.00    -0.020 A 
ATOM      2  C   UNL     1      87.795  51.430  42.610  0.00  0.00    +0.006 A 
ATOM      3  N   UNL     1      87.145  52.612  42.704  0.00  0.00    -0.358 N 
ATOM      4  C   UNL     1      86.876  52.786  44.009  0.00  0.00    +0.090 A 
ATOM      5  C   UNL     1      87.345  51.735  44.754  0.00  0.00    +0.007 A 
ATOM      6  C   UNL     1      87.165  51.673  46.137  0.00  0.00    -0.052 A 
ATOM      7  C   UNL     1      86.483  52.735  46.760  0.00  0.00    -0.050 A 
ATOM      8  C   UNL     1      86.005  53.824  45.995  0.00  0.00    +0.019 A 
ATOM      9  C   UNL     1      86.204  53.854  44.603  0.00  0.00    +0.153 A 
ATOM     10  O   UNL     1      85.714  54.923  43.847  0.00  0.00    -0.480 OA
ATOM     11  C   UNL     1      85.269  56.154  44.436  0.00  0.00    +0.124 C 
ATOM     12  C   UNL     1      84.855  55.974  45.889  0.00  0.00    -0.041 C 
ATOM     13  C   UNL     1      85.249  54.923  46.614  0.00  0.00    -0.051 C 
ATOM     14  C   UNL     1      86.417  57.169  44.369  0.00  0.00    -0.021 C 
ATOM     15  C   UNL     1      84.071  56.667  43.628  0.00  0.00    -0.021 C 
ATOM     16  H   UNL     1      86.916  53.222  41.965  0.00  0.00    +0.000 HD
ENDROOT
BRANCH   1  17
ATOM     17  C   UNL     1      88.551  49.518  44.173  0.00  0.00    +0.003 C 
BRANCH  17  18
ATOM     18  C   UNL     1      88.617  48.646  42.901  0.00  0.00    +0.087 C 
BRANCH  18  19
ATOM     19  C   UNL     1      90.051  48.147  42.532  0.00  0.00    +0.087 C 
ATOM     20  C   UNL     1      90.073  46.618  42.299  0.00  0.00    -0.034 C 
ATOM     21  C   UNL     1      91.067  48.519  43.634  0.00  0.00    -0.034 C 
BRANCH  19  22
ATOM     22  O   UNL     1      90.423  48.800  41.338  0.00  0.00    -0.387 OA
ATOM     23  H   UNL     1      89.635  49.174  40.915  0.00  0.00    +0.000 HD
ENDBRANCH  19  22
ENDBRANCH  18  19
BRANCH  18  24
ATOM     24  O   UNL     1      87.759  47.542  43.067  0.00  0.00    -0.389 OA
ATOM     25  H   UNL     1      88.029  47.037  43.850  0.00  0.00    +0.000 HD
ENDBRANCH  18  24
ENDBRANCH  17  18
ENDBRANCH   1  17
TORSDOF 5
ENDMDL
MODEL 5
REMARK VINA RESULT:    -7.357      3.266      5.756
REMARK INTER + INTRA:          -9.486
REMARK INTER:                  -9.017
REMARK INTRA:                  -0.469
REMARK UNBOUND:                -0.409
REMARK  Name = 
REMARK  9 active torsions:
REMARK  status: ('A' for Active; 'I' for Inactive)
REMARK    1  A    between atoms: O_1  and  C_2
REMARK    2  A    between atoms: C_2  and  C_3
REMARK    3  A    between atoms: C_2  and  C_7
REMARK    4  A    between atoms: C_3  and  O_4
REMARK    5  A    between atoms: C_3  and  C_5
REMARK    6  A    between atoms: C_3  and  C_6
REMARK    7  A    between atoms: C_7  and  C_8
REMARK    8  A    between atoms: C_18  and  C_21
REMARK    9  A    between atoms: C_18  and  C_22
REMARK                            x       y       z     vdW  Elec       q    Type
REMARK                         _______ _______ _______ _____ _____    ______ ____
ROOT
ATOM      1  C   UNL     1      86.396  54.815  43.927  0.00  0.00    -0.020 A 
ATOM      2  C   UNL     1      86.069  54.378  42.647  0.00  0.00    +0.006 A 
ATOM      3  N   UNL     1      85.939  53.031  42.626  0.00  0.00    -0.358 N 
ATOM      4  C   UNL     1      86.194  52.615  43.880  0.00  0.00    +0.090 A 
ATOM      5  C   UNL     1      86.481  53.674  44.702  0.00  0.00    +0.007 A 
ATOM      6  C   UNL     1      86.804  53.494  46.048  0.00  0.00    -0.052 A 
ATOM      7  C   UNL     1      86.823  52.180  46.552  0.00  0.00    -0.050 A 
ATOM      8  C   UNL     1      86.518  51.087  45.706  0.00  0.00    +0.019 A 
ATOM      9  C   UNL     1      86.198  51.304  44.354  0.00  0.00    +0.153 A 
ATOM     10  O   UNL     1      85.915  50.221  43.517  0.00  0.00    -0.480 OA
ATOM     11  C   UNL     1      85.641  48.903  44.016  0.00  0.00    +0.124 C 
ATOM     12  C   UNL     1      86.229  48.683  45.401  0.00  0.00    -0.041 C 
ATOM     13  C   UNL     1      86.577  49.702  46.195  0.00  0.00    -0.051 C 
ATOM     14  C   UNL     1      84.121  48.716  44.087  0.00  0.00    -0.021 C 
ATOM     15  C   UNL     1      86.247  47.886  43.041  0.00  0.00    -0.021 C 
ATOM     16  H   UNL     1      85.706  52.470  41.852  0.00  0.00    +0.000 HD
ENDROOT
BRANCH   1  17
ATOM     17  C   UNL     1      86.694  56.228  44.336  0.00  0.00    +0.003 C 
BRANCH  17  18
ATOM     18  C   UNL     1      85.409  57.086  44.325  0.00  0.00    +0.087 C 
BRANCH  18  19
ATOM     19  C   UNL     1      84.777  57.324  45.733  0.00  0.00    +0.087 C 
ATOM     20  C   UNL     1      84.449  58.818  45.958  0.00  0.00    -0.034 C 
ATOM     21  C   UNL     1      85.718  56.825  46.852  0.00  0.00    -0.034 C 
BRANCH  19  22
ATOM     22  O   UNL     1      83.582  56.577  45.784  0.00  0.00    -0.387 OA
ATOM     23  H   UNL     1      83.793  55.632  45.847  0.00  0.00    +0.000 HD
ENDBRANCH  19  22
ENDBRANCH  18  19
BRANCH  18  24
ATOM     24  O   UNL     1      85.699  58.324  43.720  0.00  0.00    -0.389 OA
ATOM     25  H   UNL     1      86.475  58.719  44.148  0.00  0.00    +0.000 HD
ENDBRANCH  18  24
ENDBRANCH  17  18
ENDBRANCH   1  17
TORSDOF 5
ENDMDL
MODEL 6
REMARK VINA RESULT:    -7.347      2.964      6.314
REMARK INTER + INTRA:          -9.474
REMARK INTER:                  -9.056
REMARK INTRA:                  -0.418
REMARK UNBOUND:                -0.409
REMARK  Name = 
REMARK  9 active torsions:
REMARK  status: ('A' for Active; 'I' for Inactive)
REMARK    1  A    between atoms: O_1  and  C_2
REMARK    2  A    between atoms: C_2  and  C_3
REMARK    3  A    between atoms: C_2  and  C_7
REMARK    4  A    between atoms: C_3  and  O_4
REMARK    5  A    between atoms: C_3  and  C_5
REMARK    6  A    between atoms: C_3  and  C_6
REMARK    7  A    between atoms: C_7  and  C_8
REMARK    8  A    between atoms: C_18  and  C_21
REMARK    9  A    between atoms: C_18  and  C_22
REMARK                            x       y       z     vdW  Elec       q    Type
REMARK                         _______ _______ _______ _____ _____    ______ ____
ROOT
ATOM      1  C   UNL     1      85.625  54.135  44.569  0.00  0.00    -0.020 A 
ATOM      2  C   UNL     1      85.881  54.378  43.223  0.00  0.00    +0.006 A 
ATOM      3  N   UNL     1      86.652  53.395  42.704  0.00  0.00    -0.358 N 
ATOM      4  C   UNL     1      86.895  52.542  43.715  0.00  0.00    +0.090 A 
ATOM      5  C   UNL     1      86.289  52.962  44.870  0.00  0.00    +0.007 A 
ATOM      6  C   UNL     1      86.415  52.254  46.068  0.00  0.00    -0.052 A 
ATOM      7  C   UNL     1      87.187  51.077  46.058  0.00  0.00    -0.050 A 
ATOM      8  C   UNL     1      87.806  50.638  44.865  0.00  0.00    +0.019 A 
ATOM      9  C   UNL     1      87.659  51.377  43.676  0.00  0.00    +0.153 A 
ATOM     10  O   UNL     1      88.287  50.950  42.503  0.00  0.00    -0.480 OA
ATOM     11  C   UNL     1      88.843  49.635  42.351  0.00  0.00    +0.124 C 
ATOM     12  C   UNL     1      89.187  49.003  43.691  0.00  0.00    -0.041 C 
ATOM     13  C   UNL     1      88.656  49.439  44.839  0.00  0.00    -0.051 C 
ATOM     14  C   UNL     1      87.816  48.751  41.634  0.00  0.00    -0.021 C 
ATOM     15  C   UNL     1      90.116  49.748  41.503  0.00  0.00    -0.021 C 
ATOM     16  H   UNL     1      86.970  53.320  41.776  0.00  0.00    +0.000 HD
ENDROOT
BRANCH   1  17
ATOM     17  C   UNL     1      84.869  55.032  45.507  0.00  0.00    +0.003 C 
BRANCH  17  18
ATOM     18  C   UNL     1      85.643  56.344  45.757  0.00  0.00    +0.087 C 
BRANCH  18  19
ATOM     19  C   UNL     1      84.991  57.612  45.119  0.00  0.00    +0.087 C 
ATOM     20  C   UNL     1      85.974  58.333  44.167  0.00  0.00    -0.034 C 
ATOM     21  C   UNL     1      84.512  58.595  46.210  0.00  0.00    -0.034 C 
BRANCH  19  22
ATOM     22  O   UNL     1      83.871  57.177  44.382  0.00  0.00    -0.387 OA
ATOM     23  H   UNL     1      83.166  56.910  44.992  0.00  0.00    +0.000 HD
ENDBRANCH  19  22
ENDBRANCH  18  19
BRANCH  18  24
ATOM     24  O   UNL     1      85.781  56.530  47.146  0.00  0.00    -0.389 OA
ATOM     25  H   UNL     1      84.911  56.458  47.569  0.00  0.00    +0.000 HD
ENDBRANCH  18  24
ENDBRANCH  17  18
ENDBRANCH   1  17
TORSDOF 5
ENDMDL
MODEL 7
REMARK VINA RESULT:    -7.093      4.669      5.466
REMARK INTER + INTRA:          -9.161
REMARK INTER:                  -8.835
REMARK INTRA:                  -0.326
REMARK UNBOUND:                -0.409
REMARK  Name = 
REMARK  9 active torsions:
REMARK  status: ('A' for Active; 'I' for Inactive)
REMARK    1  A    between atoms: O_1  and  C_2
REMARK    2  A    between atoms: C_2  and  C_3
REMARK    3  A    between atoms: C_2  and  C_7
REMARK    4  A    between atoms: C_3  and  O_4
REMARK    5  A    between atoms: C_3  and  C_5
REMARK    6  A    between atoms: C_3  and  C_6
REMARK    7  A    between atoms: C_7  and  C_8
REMARK    8  A    between atoms: C_18  and  C_21
REMARK    9  A    between atoms: C_18  and  C_22
REMARK                            x       y       z     vdW  Elec       q    Type
REMARK                         _______ _______ _______ _____ _____    ______ ____
ROOT
ATOM      1  C   UNL     1      85.954  49.377  44.281  0.00  0.00    -0.020 A 
ATOM      2  C   UNL     1      85.435  50.641  44.545  0.00  0.00    +0.006 A 
ATOM      3  N   UNL     1      84.084  50.604  44.559  0.00  0.00    -0.358 N 
ATOM      4  C   UNL     1      83.745  49.330  44.293  0.00  0.00    +0.090 A 
ATOM      5  C   UNL     1      84.859  48.551  44.112  0.00  0.00    +0.007 A 
ATOM      6  C   UNL     1      84.766  47.193  43.800  0.00  0.00    -0.052 A 
ATOM      7  C   UNL     1      83.481  46.632  43.678  0.00  0.00    -0.050 A 
ATOM      8  C   UNL     1      82.331  47.432  43.872  0.00  0.00    +0.019 A 
ATOM      9  C   UNL     1      82.461  48.797  44.186  0.00  0.00    +0.153 A 
ATOM     10  O   UNL     1      81.323  49.589  44.359  0.00  0.00    -0.480 OA
ATOM     11  C   UNL     1      80.008  49.037  44.529  0.00  0.00    +0.124 C 
ATOM     12  C   UNL     1      79.900  47.634  43.949  0.00  0.00    -0.041 C 
ATOM     13  C   UNL     1      80.978  46.882  43.705  0.00  0.00    -0.051 C 
ATOM     14  C   UNL     1      79.694  48.980  46.028  0.00  0.00    -0.021 C 
ATOM     15  C   UNL     1      79.006  49.956  43.820  0.00  0.00    -0.021 C 
ATOM     16  H   UNL     1      83.471  51.356  44.729  0.00  0.00    +0.000 HD
ENDROOT
BRANCH   1  17
ATOM     17  C   UNL     1      87.404  49.027  44.112  0.00  0.00    +0.003 C 
BRANCH  17  18
ATOM     18  C   UNL     1      87.718  48.674  42.642  0.00  0.00    +0.087 C 
BRANCH  18  19
ATOM     19  C   UNL     1      88.629  49.708  41.908  0.00  0.00    +0.087 C 
ATOM     20  C   UNL     1      90.057  49.154  41.700  0.00  0.00    -0.034 C 
ATOM     21  C   UNL     1      88.697  51.038  42.690  0.00  0.00    -0.034 C 
BRANCH  19  22
ATOM     22  O   UNL     1      88.044  49.957  40.649  0.00  0.00    -0.387 OA
ATOM     23  H   UNL     1      88.695  50.378  40.067  0.00  0.00    +0.000 HD
ENDBRANCH  19  22
ENDBRANCH  18  19
BRANCH  18  24
ATOM     24  O   UNL     1      88.319  47.401  42.603  0.00  0.00    -0.389 OA
ATOM     25  H   UNL     1      88.391  47.106  41.682  0.00  0.00    +0.000 HD
ENDBRANCH  18  24
ENDBRANCH  17  18
ENDBRANCH   1  17
TORSDOF 5
ENDMDL
MODEL 8
REMARK VINA RESULT:    -7.076      2.890      6.124
REMARK INTER + INTRA:          -9.140
REMARK INTER:                  -8.818
REMARK INTRA:                  -0.322
REMARK UNBOUND:                -0.409
REMARK  Name = 
REMARK  9 active torsions:
REMARK  status: ('A' for Active; 'I' for Inactive)
REMARK    1  A    between atoms: O_1  and  C_2
REMARK    2  A    between atoms: C_2  and  C_3
REMARK    3  A    between atoms: C_2  and  C_7
REMARK    4  A    between atoms: C_3  and  O_4
REMARK    5  A    between atoms: C_3  and  C_5
REMARK    6  A    between atoms: C_3  and  C_6
REMARK    7  A    between atoms: C_7  and  C_8
REMARK    8  A    between atoms: C_18  and  C_21
REMARK    9  A    between atoms: C_18  and  C_22
REMARK                            x       y       z     vdW  Elec       q    Type
REMARK                         _______ _______ _______ _____ _____    ______ ____
ROOT
ATOM      1  C   UNL     1      86.360  52.119  44.533  0.00  0.00    -0.020 A 
ATOM      2  C   UNL     1      86.076  50.973  45.271  0.00  0.00    +0.006 A 
ATOM      3  N   UNL     1      86.840  49.940  44.850  0.00  0.00    -0.358 N 
ATOM      4  C   UNL     1      87.594  50.420  43.846  0.00  0.00    +0.090 A 
ATOM      5  C   UNL     1      87.327  51.745  43.619  0.00  0.00    +0.007 A 
ATOM      6  C   UNL     1      87.967  52.464  42.608  0.00  0.00    -0.052 A 
ATOM      7  C   UNL     1      88.914  51.786  41.817  0.00  0.00    -0.050 A 
ATOM      8  C   UNL     1      89.197  50.421  42.054  0.00  0.00    +0.019 A 
ATOM      9  C   UNL     1      88.532  49.727  43.082  0.00  0.00    +0.153 A 
ATOM     10  O   UNL     1      88.801  48.374  43.303  0.00  0.00    -0.480 OA
ATOM     11  C   UNL     1      89.936  47.702  42.735  0.00  0.00    +0.124 C 
ATOM     12  C   UNL     1      90.448  48.403  41.486  0.00  0.00    -0.041 C 
ATOM     13  C   UNL     1      90.146  49.677  41.213  0.00  0.00    -0.051 C 
ATOM     14  C   UNL     1      91.057  47.672  43.781  0.00  0.00    -0.021 C 
ATOM     15  C   UNL     1      89.518  46.271  42.377  0.00  0.00    -0.021 C 
ATOM     16  H   UNL     1      86.844  49.022  45.207  0.00  0.00    +0.000 HD
ENDROOT
BRANCH   1  17
ATOM     17  C   UNL     1      85.671  53.448  44.652  0.00  0.00    +0.003 C 
BRANCH  17  18
ATOM     18  C   UNL     1      84.528  53.569  43.620  0.00  0.00    +0.087 C 
BRANCH  18  19
ATOM     19  C   UNL     1      84.792  54.605  42.481  0.00  0.00    +0.087 C 
ATOM     20  C   UNL     1      83.680  55.678  42.428  0.00  0.00    -0.034 C 
ATOM     21  C   UNL     1      84.900  53.902  41.110  0.00  0.00    -0.034 C 
BRANCH  19  22
ATOM     22  O   UNL     1      86.023  55.230  42.764  0.00  0.00    -0.387 OA
ATOM     23  H   UNL     1      86.228  55.128  43.707  0.00  0.00    +0.000 HD
ENDBRANCH  19  22
ENDBRANCH  18  19
BRANCH  18  24
ATOM     24  O   UNL     1      84.290  52.299  43.060  0.00  0.00    -0.389 OA
ATOM     25  H   UNL     1      84.233  52.377  42.095  0.00  0.00    +0.000 HD
ENDBRANCH  18  24
ENDBRANCH  17  18
ENDBRANCH   1  17
TORSDOF 5
ENDMDL
MODEL 9
REMARK VINA RESULT:    -6.978      3.724      5.368
REMARK INTER + INTRA:          -9.018
REMARK INTER:                  -8.609
REMARK INTRA:                  -0.409
REMARK UNBOUND:                -0.409
REMARK  Name = 
REMARK  9 active torsions:
REMARK  status: ('A' for Active; 'I' for Inactive)
REMARK    1  A    between atoms: O_1  and  C_2
REMARK    2  A    between atoms: C_2  and  C_3
REMARK    3  A    between atoms: C_2  and  C_7
REMARK    4  A    between atoms: C_3  and  O_4
REMARK    5  A    between atoms: C_3  and  C_5
REMARK    6  A    between atoms: C_3  and  C_6
REMARK    7  A    between atoms: C_7  and  C_8
REMARK    8  A    between atoms: C_18  and  C_21
REMARK    9  A    between atoms: C_18  and  C_22
REMARK                            x       y       z     vdW  Elec       q    Type
REMARK                         _______ _______ _______ _____ _____    ______ ____
ROOT
ATOM      1  C   UNL     1      88.018  50.826  43.026  0.00  0.00    -0.020 A 
ATOM      2  C   UNL     1      88.702  51.822  42.335  0.00  0.00    +0.006 A 
ATOM      3  N   UNL     1      87.835  52.746  41.860  0.00  0.00    -0.358 N 
ATOM      4  C   UNL     1      86.611  52.334  42.235  0.00  0.00    +0.090 A 
ATOM      5  C   UNL     1      86.681  51.163  42.944  0.00  0.00    +0.007 A 
ATOM      6  C   UNL     1      85.536  50.522  43.422  0.00  0.00    -0.052 A 
ATOM      7  C   UNL     1      84.289  51.119  43.159  0.00  0.00    -0.050 A 
ATOM      8  C   UNL     1      84.216  52.331  42.434  0.00  0.00    +0.019 A 
ATOM      9  C   UNL     1      85.390  52.950  41.967  0.00  0.00    +0.153 A 
ATOM     10  O   UNL     1      85.313  54.138  41.235  0.00  0.00    -0.480 OA
ATOM     11  C   UNL     1      84.123  54.940  41.174  0.00  0.00    +0.124 C 
ATOM     12  C   UNL     1      82.872  54.127  41.471  0.00  0.00    -0.041 C 
ATOM     13  C   UNL     1      82.924  52.950  42.105  0.00  0.00    -0.051 C 
ATOM     14  C   UNL     1      84.240  56.066  42.208  0.00  0.00    -0.021 C 
ATOM     15  C   UNL     1      84.017  55.534  39.765  0.00  0.00    -0.021 C 
ATOM     16  H   UNL     1      88.056  53.556  41.346  0.00  0.00    +0.000 HD
ENDROOT
BRANCH   1  17
ATOM     17  C   UNL     1      88.620  49.593  43.635  0.00  0.00    +0.003 C 
BRANCH  17  18
ATOM     18  C   UNL     1      88.849  48.505  42.563  0.00  0.00    +0.087 C 
BRANCH  18  19
ATOM     19  C   UNL     1      90.330  48.027  42.430  0.00  0.00    +0.087 C 
ATOM     20  C   UNL     1      90.568  46.709  43.202  0.00  0.00    -0.034 C 
ATOM     21  C   UNL     1      91.307  49.110  42.938  0.00  0.00    -0.034 C 
BRANCH  19  22
ATOM     22  O   UNL     1      90.574  47.808  41.059  0.00  0.00    -0.387 OA
ATOM     23  H   UNL     1      90.947  46.921  40.934  0.00  0.00    +0.000 HD
ENDBRANCH  19  22
ENDBRANCH  18  19
BRANCH  18  24
ATOM     24  O   UNL     1      88.020  47.404  42.853  0.00  0.00    -0.389 OA
ATOM     25  H   UNL     1      87.254  47.703  43.369  0.00  0.00    +0.000 HD
ENDBRANCH  18  24
ENDBRANCH  17  18
ENDBRANCH   1  17
TORSDOF 5
ENDMDL
