MODEL 1
REMARK VINA RESULT:   -11.138      0.000      0.000
REMARK INTER + INTRA:         -19.353
REMARK INTER:                 -17.547
REMARK INTRA:                  -1.806
REMARK UNBOUND:                -1.378
REMARK  Name = 
REMARK  13 active torsions:
REMARK  status: ('A' for Active; 'I' for Inactive)
REMARK    1  A    between atoms: O_1  and  C_2
REMARK    2  A    between atoms: C_5  and  C_8
REMARK    3  A    between atoms: C_9  and  C_10
REMARK    4  A    between atoms: C_10  and  C_12
REMARK    5  A    between atoms: C_14  and  O_15
REMARK    6  A    between atoms: O_15  and  C_16
REMARK    7  A    between atoms: C_19  and  C_22
REMARK    8  A    between atoms: C_23  and  C_24
REMARK    9  A    between atoms: C_24  and  C_26
REMARK   10  A    between atoms: C_29  and  O_33
REMARK   11  A    between atoms: C_31  and  O_32
REMARK   12  A    between atoms: C_34  and  O_38
REMARK   13  A    between atoms: C_36  and  O_37
REMARK                            x       y       z     vdW  Elec       q    Type
REMARK                         _______ _______ _______ _____ _____    ______ ____
ROOT
ATOM      1  C   UNL     1      86.620  45.455  42.427  0.00  0.00    +0.067 A 
ATOM      2  C   UNL     1      86.860  46.827  42.235  0.00  0.00    -0.001 A 
ATOM      3  C   UNL     1      88.164  47.323  42.134  0.00  0.00    +0.170 A 
ATOM      4  C   UNL     1      89.255  46.445  42.282  0.00  0.00    +0.163 A 
ATOM      5  C   UNL     1      89.024  45.080  42.488  0.00  0.00    +0.026 A 
ATOM      6  C   UNL     1      87.717  44.580  42.568  0.00  0.00    +0.131 A 
ENDROOT
BRANCH   1   7
ATOM      7  C   UNL     1      85.221  44.972  42.499  0.00  0.00    +0.190 C 
ATOM      8  O   UNL     1      84.916  43.891  41.924  0.00  0.00    -0.287 OA
BRANCH   7  10
ATOM      9  C   UNL     1      83.196  46.372  42.681  0.00  0.00    -0.051 C 
ATOM     10  C   UNL     1      84.200  45.711  43.273  0.00  0.00    -0.014 C 
BRANCH   9  14
ATOM     11  C   UNL     1      80.107  48.429  44.856  0.00  0.00    +0.117 A 
ATOM     12  C   UNL     1      80.889  49.137  43.939  0.00  0.00    -0.020 A 
ATOM     13  C   UNL     1      81.899  48.487  43.222  0.00  0.00    -0.051 A 
ATOM     14  C   UNL     1      82.145  47.112  43.422  0.00  0.00    -0.025 A 
ATOM     15  C   UNL     1      81.340  46.407  44.333  0.00  0.00    -0.051 A 
ATOM     16  C   UNL     1      80.332  47.060  45.048  0.00  0.00    -0.020 A 
BRANCH  11  17
ATOM     17  O   UNL     1      79.109  49.093  45.566  0.00  0.00    -0.507 OA
ATOM     18  H   UNL     1      79.128  49.100  46.502  0.00  0.00    +0.000 HD
ENDBRANCH  11  17
ENDBRANCH   9  14
ENDBRANCH   7  10
ENDBRANCH   1   7
BRANCH   6  19
ATOM     19  O   UNL     1      87.514  43.223  42.822  0.00  0.00    -0.506 OA
ATOM     20  H   UNL     1      87.030  42.954  43.578  0.00  0.00    +0.000 HD
ENDBRANCH   6  19
BRANCH   4  21
ATOM     21  O   UNL     1      90.559  46.936  42.254  0.00  0.00    -0.503 OA
ATOM     22  H   UNL     1      90.955  47.168  41.437  0.00  0.00    +0.000 HD
ENDBRANCH   4  21
BRANCH   3  23
ATOM     23  O   UNL     1      88.345  48.697  41.926  0.00  0.00    -0.452 OA
BRANCH  23  24
ATOM     24  C   UNL     1      87.817  49.709  42.741  0.00  0.00    +0.129 A 
ATOM     25  C   UNL     1      86.789  50.560  42.299  0.00  0.00    -0.019 A 
ATOM     26  C   UNL     1      86.282  51.550  43.143  0.00  0.00    -0.051 A 
ATOM     27  C   UNL     1      86.790  51.713  44.442  0.00  0.00    -0.025 A 
ATOM     28  C   UNL     1      87.798  50.837  44.891  0.00  0.00    -0.051 A 
ATOM     29  C   UNL     1      88.301  49.843  44.046  0.00  0.00    -0.019 A 
BRANCH  27  30
ATOM     30  C   UNL     1      86.219  52.775  45.304  0.00  0.00    -0.051 C 
ATOM     31  C   UNL     1      86.403  52.831  46.631  0.00  0.00    -0.014 C 
BRANCH  31  32
ATOM     32  C   UNL     1      85.822  53.909  47.459  0.00  0.00    +0.190 C 
ATOM     33  O   UNL     1      85.709  53.751  48.707  0.00  0.00    -0.287 OA
BRANCH  32  34
ATOM     34  C   UNL     1      85.420  55.203  46.859  0.00  0.00    +0.063 A 
ATOM     35  C   UNL     1      86.298  55.845  45.970  0.00  0.00    -0.044 A 
ATOM     36  C   UNL     1      85.948  57.062  45.379  0.00  0.00    -0.019 A 
ATOM     37  C   UNL     1      84.722  57.660  45.674  0.00  0.00    +0.120 A 
ATOM     38  C   UNL     1      83.845  57.040  46.574  0.00  0.00    +0.022 A 
ATOM     39  C   UNL     1      84.191  55.821  47.178  0.00  0.00    +0.131 A 
BRANCH  39  40
ATOM     40  O   UNL     1      83.324  55.244  48.107  0.00  0.00    -0.506 OA
ATOM     41  H   UNL     1      82.423  55.114  47.889  0.00  0.00    +0.000 HD
ENDBRANCH  39  40
BRANCH  37  42
ATOM     42  O   UNL     1      84.384  58.871  45.073  0.00  0.00    -0.507 OA
ATOM     43  H   UNL     1      84.505  59.674  45.538  0.00  0.00    +0.000 HD
ENDBRANCH  37  42
ENDBRANCH  32  34
ENDBRANCH  31  32
ENDBRANCH  27  30
ENDBRANCH  23  24
ENDBRANCH   3  23
TORSDOF 13
ENDMDL
MODEL 2
REMARK VINA RESULT:   -10.648      2.113      5.238
REMARK INTER + INTRA:         -18.561
REMARK INTER:                 -16.814
REMARK INTRA:                  -1.748
REMARK UNBOUND:                -1.378
REMARK  Name = 
REMARK  13 active torsions:
REMARK  status: ('A' for Active; 'I' for Inactive)
REMARK    1  A    between atoms: O_1  and  C_2
REMARK    2  A    between atoms: C_5  and  C_8
REMARK    3  A    between atoms: C_9  and  C_10
REMARK    4  A    between atoms: C_10  and  C_12
REMARK    5  A    between atoms: C_14  and  O_15
REMARK    6  A    between atoms: O_15  and  C_16
REMARK    7  A    between atoms: C_19  and  C_22
REMARK    8  A    between atoms: C_23  and  C_24
REMARK    9  A    between atoms: C_24  and  C_26
REMARK   10  A    between atoms: C_29  and  O_33
REMARK   11  A    between atoms: C_31  and  O_32
REMARK   12  A    between atoms: C_34  and  O_38
REMARK   13  A    between atoms: C_36  and  O_37
REMARK                            x       y       z     vdW  Elec       q    Type
REMARK                         _______ _______ _______ _____ _____    ______ ____
ROOT
ATOM      1  C   UNL     1      87.516  45.997  42.504  0.00  0.00    +0.067 A 
ATOM      2  C   UNL     1      86.450  46.912  42.564  0.00  0.00    -0.001 A 
ATOM      3  C   UNL     1      85.171  46.503  42.957  0.00  0.00    +0.170 A 
ATOM      4  C   UNL     1      84.933  45.145  43.242  0.00  0.00    +0.163 A 
ATOM      5  C   UNL     1      85.987  44.225  43.171  0.00  0.00    +0.026 A 
ATOM      6  C   UNL     1      87.272  44.639  42.797  0.00  0.00    +0.131 A 
ENDROOT
BRANCH   1   7
ATOM      7  C   UNL     1      88.860  46.482  42.110  0.00  0.00    +0.190 C 
ATOM      8  O   UNL     1      89.825  45.669  42.098  0.00  0.00    -0.287 OA
BRANCH   7  10
ATOM      9  C   UNL     1      88.783  48.921  42.486  0.00  0.00    -0.051 C 
ATOM     10  C   UNL     1      89.069  47.884  41.687  0.00  0.00    -0.014 C 
BRANCH   9  14
ATOM     11  C   UNL     1      89.485  53.011  41.353  0.00  0.00    +0.117 A 
ATOM     12  C   UNL     1      88.368  52.696  42.132  0.00  0.00    -0.020 A 
ATOM     13  C   UNL     1      88.122  51.373  42.511  0.00  0.00    -0.051 A 
ATOM     14  C   UNL     1      88.992  50.339  42.104  0.00  0.00    -0.025 A 
ATOM     15  C   UNL     1      90.121  50.670  41.336  0.00  0.00    -0.051 A 
ATOM     16  C   UNL     1      90.364  51.994  40.958  0.00  0.00    -0.020 A 
BRANCH  11  17
ATOM     17  O   UNL     1      89.713  54.333  40.979  0.00  0.00    -0.507 OA
ATOM     18  H   UNL     1      89.015  54.956  41.011  0.00  0.00    +0.000 HD
ENDBRANCH  11  17
ENDBRANCH   9  14
ENDBRANCH   7  10
ENDBRANCH   1   7
BRANCH   6  19
ATOM     19  O   UNL     1      88.294  43.695  42.687  0.00  0.00    -0.506 OA
ATOM     20  H   UNL     1      88.442  43.082  43.379  0.00  0.00    +0.000 HD
ENDBRANCH   6  19
BRANCH   4  21
ATOM     21  O   UNL     1      83.649  44.711  43.567  0.00  0.00    -0.503 OA
ATOM     22  H   UNL     1      83.009  44.597  42.893  0.00  0.00    +0.000 HD
ENDBRANCH   4  21
BRANCH   3  23
ATOM     23  O   UNL     1      84.149  47.459  43.015  0.00  0.00    -0.452 OA
BRANCH  23  24
ATOM     24  C   UNL     1      84.273  48.733  43.590  0.00  0.00    +0.129 A 
ATOM     25  C   UNL     1      85.384  49.091  44.373  0.00  0.00    -0.019 A 
ATOM     26  C   UNL     1      85.475  50.373  44.921  0.00  0.00    -0.051 A 
ATOM     27  C   UNL     1      84.462  51.320  44.701  0.00  0.00    -0.025 A 
ATOM     28  C   UNL     1      83.367  50.966  43.889  0.00  0.00    -0.051 A 
ATOM     29  C   UNL     1      83.279  49.684  43.337  0.00  0.00    -0.019 A 
BRANCH  27  30
ATOM     30  C   UNL     1      84.604  52.669  45.299  0.00  0.00    -0.051 C 
ATOM     31  C   UNL     1      85.319  52.917  46.406  0.00  0.00    -0.014 C 
BRANCH  31  32
ATOM     32  C   UNL     1      85.443  54.277  46.973  0.00  0.00    +0.190 C 
ATOM     33  O   UNL     1      85.476  54.435  48.225  0.00  0.00    -0.287 OA
BRANCH  32  34
ATOM     34  C   UNL     1      85.588  55.461  46.094  0.00  0.00    +0.063 A 
ATOM     35  C   UNL     1      86.625  55.485  45.146  0.00  0.00    -0.044 A 
ATOM     36  C   UNL     1      86.787  56.582  44.296  0.00  0.00    -0.019 A 
ATOM     37  C   UNL     1      85.922  57.674  44.385  0.00  0.00    +0.120 A 
ATOM     38  C   UNL     1      84.896  57.672  45.338  0.00  0.00    +0.022 A 
ATOM     39  C   UNL     1      84.730  56.578  46.201  0.00  0.00    +0.131 A 
BRANCH  39  40
ATOM     40  O   UNL     1      83.731  56.616  47.175  0.00  0.00    -0.506 OA
ATOM     41  H   UNL     1      83.015  57.213  47.089  0.00  0.00    +0.000 HD
ENDBRANCH  39  40
BRANCH  37  42
ATOM     42  O   UNL     1      86.092  58.758  43.526  0.00  0.00    -0.507 OA
ATOM     43  H   UNL     1      86.693  58.699  42.810  0.00  0.00    +0.000 HD
ENDBRANCH  37  42
ENDBRANCH  32  34
ENDBRANCH  31  32
ENDBRANCH  27  30
ENDBRANCH  23  24
ENDBRANCH   3  23
TORSDOF 13
ENDMDL
MODEL 3
REMARK VINA RESULT:   -10.324      1.490      2.427
REMARK INTER + INTRA:         -18.039
REMARK INTER:                 -15.936
REMARK INTRA:                  -2.103
REMARK UNBOUND:                -1.378
REMARK  Name = 
REMARK  13 active torsions:
REMARK  status: ('A' for Active; 'I' for Inactive)
REMARK    1  A    between atoms: O_1  and  C_2
REMARK    2  A    between atoms: C_5  and  C_8
REMARK    3  A    between atoms: C_9  and  C_10
REMARK    4  A    between atoms: C_10  and  C_12
REMARK    5  A    between atoms: C_14  and  O_15
REMARK    6  A    between atoms: O_15  and  C_16
REMARK    7  A    between atoms: C_19  and  C_22
REMARK    8  A    between atoms: C_23  and  C_24
REMARK    9  A    between atoms: C_24  and  C_26
REMARK   10  A    between atoms: C_29  and  O_33
REMARK   11  A    between atoms: C_31  and  O_32
REMARK   12  A    between atoms: C_34  and  O_38
REMARK   13  A    between atoms: C_36  and  O_37
REMARK                            x       y       z     vdW  Elec       q    Type
REMARK                         _______ _______ _______ _____ _____    ______ ____
ROOT
ATOM      1  C   UNL     1      86.442  45.469  42.801  0.00  0.00    +0.067 A 
ATOM      2  C   UNL     1      86.916  46.739  42.427  0.00  0.00    -0.001 A 
ATOM      3  C   UNL     1      88.273  46.951  42.159  0.00  0.00    +0.170 A 
ATOM      4  C   UNL     1      89.186  45.892  42.319  0.00  0.00    +0.163 A 
ATOM      5  C   UNL     1      88.724  44.628  42.705  0.00  0.00    +0.026 A 
ATOM      6  C   UNL     1      87.362  44.411  42.954  0.00  0.00    +0.131 A 
ENDROOT
BRANCH   1   7
ATOM      7  C   UNL     1      84.993  45.286  43.047  0.00  0.00    +0.190 C 
ATOM      8  O   UNL     1      84.591  44.206  43.563  0.00  0.00    -0.287 OA
BRANCH   7  10
ATOM      9  C   UNL     1      83.841  47.408  43.564  0.00  0.00    -0.051 C 
ATOM     10  C   UNL     1      84.027  46.364  42.744  0.00  0.00    -0.014 C 
BRANCH   9  14
ATOM     11  C   UNL     1      81.165  50.685  42.786  0.00  0.00    +0.117 A 
ATOM     12  C   UNL     1      80.642  49.405  42.988  0.00  0.00    -0.020 A 
ATOM     13  C   UNL     1      81.496  48.326  43.242  0.00  0.00    -0.051 A 
ATOM     14  C   UNL     1      82.893  48.515  43.288  0.00  0.00    -0.025 A 
ATOM     15  C   UNL     1      83.406  49.810  43.101  0.00  0.00    -0.051 A 
ATOM     16  C   UNL     1      82.550  50.886  42.847  0.00  0.00    -0.020 A 
BRANCH  11  17
ATOM     17  O   UNL     1      80.303  51.748  42.528  0.00  0.00    -0.507 OA
ATOM     18  H   UNL     1      80.593  52.470  42.008  0.00  0.00    +0.000 HD
ENDBRANCH  11  17
ENDBRANCH   9  14
ENDBRANCH   7  10
ENDBRANCH   1   7
BRANCH   6  19
ATOM     19  O   UNL     1      86.933  43.155  43.384  0.00  0.00    -0.506 OA
ATOM     20  H   UNL     1      86.683  43.025  44.278  0.00  0.00    +0.000 HD
ENDBRANCH   6  19
BRANCH   4  21
ATOM     21  O   UNL     1      90.550  46.106  42.123  0.00  0.00    -0.503 OA
ATOM     22  H   UNL     1      91.174  45.507  42.481  0.00  0.00    +0.000 HD
ENDBRANCH   4  21
BRANCH   3  23
ATOM     23  O   UNL     1      88.688  48.233  41.774  0.00  0.00    -0.452 OA
BRANCH  23  24
ATOM     24  C   UNL     1      88.153  49.432  42.267  0.00  0.00    +0.129 A 
ATOM     25  C   UNL     1      87.248  50.205  41.520  0.00  0.00    -0.019 A 
ATOM     26  C   UNL     1      86.729  51.390  42.049  0.00  0.00    -0.051 A 
ATOM     27  C   UNL     1      87.105  51.827  43.329  0.00  0.00    -0.025 A 
ATOM     28  C   UNL     1      87.988  51.032  44.086  0.00  0.00    -0.051 A 
ATOM     29  C   UNL     1      88.502  49.844  43.556  0.00  0.00    -0.019 A 
BRANCH  27  30
ATOM     30  C   UNL     1      86.526  53.088  43.851  0.00  0.00    -0.051 C 
ATOM     31  C   UNL     1      87.048  54.299  43.606  0.00  0.00    -0.014 C 
BRANCH  31  32
ATOM     32  C   UNL     1      86.441  55.537  44.139  0.00  0.00    +0.190 C 
ATOM     33  O   UNL     1      86.491  56.602  43.463  0.00  0.00    -0.287 OA
BRANCH  32  34
ATOM     34  C   UNL     1      85.720  55.540  45.434  0.00  0.00    +0.063 A 
ATOM     35  C   UNL     1      86.328  54.951  46.555  0.00  0.00    -0.044 A 
ATOM     36  C   UNL     1      85.680  54.944  47.793  0.00  0.00    -0.019 A 
ATOM     37  C   UNL     1      84.413  55.514  47.928  0.00  0.00    +0.120 A 
ATOM     38  C   UNL     1      83.788  56.088  46.814  0.00  0.00    +0.022 A 
ATOM     39  C   UNL     1      84.427  56.095  45.564  0.00  0.00    +0.131 A 
BRANCH  39  40
ATOM     40  O   UNL     1      83.767  56.628  44.457  0.00  0.00    -0.506 OA
ATOM     41  H   UNL     1      83.068  56.153  44.055  0.00  0.00    +0.000 HD
ENDBRANCH  39  40
BRANCH  37  42
ATOM     42  O   UNL     1      83.782  55.504  49.170  0.00  0.00    -0.507 OA
ATOM     43  H   UNL     1      84.209  55.117  49.909  0.00  0.00    +0.000 HD
ENDBRANCH  37  42
ENDBRANCH  32  34
ENDBRANCH  31  32
ENDBRANCH  27  30
ENDBRANCH  23  24
ENDBRANCH   3  23
TORSDOF 13
ENDMDL
MODEL 4
REMARK VINA RESULT:    -9.881      3.852      7.219
REMARK INTER + INTRA:         -17.324
REMARK INTER:                 -15.080
REMARK INTRA:                  -2.244
REMARK UNBOUND:                -1.378
REMARK  Name = 
REMARK  13 active torsions:
REMARK  status: ('A' for Active; 'I' for Inactive)
REMARK    1  A    between atoms: O_1  and  C_2
REMARK    2  A    between atoms: C_5  and  C_8
REMARK    3  A    between atoms: C_9  and  C_10
REMARK    4  A    between atoms: C_10  and  C_12
REMARK    5  A    between atoms: C_14  and  O_15
REMARK    6  A    between atoms: O_15  and  C_16
REMARK    7  A    between atoms: C_19  and  C_22
REMARK    8  A    between atoms: C_23  and  C_24
REMARK    9  A    between atoms: C_24  and  C_26
REMARK   10  A    between atoms: C_29  and  O_33
REMARK   11  A    between atoms: C_31  and  O_32
REMARK   12  A    between atoms: C_34  and  O_38
REMARK   13  A    between atoms: C_36  and  O_37
REMARK                            x       y       z     vdW  Elec       q    Type
REMARK                         _______ _______ _______ _____ _____    ______ ____
ROOT
ATOM      1  C   UNL     1      88.266  51.400  42.022  0.00  0.00    +0.067 A 
ATOM      2  C   UNL     1      87.495  50.574  42.857  0.00  0.00    -0.001 A 
ATOM      3  C   UNL     1      87.810  49.221  43.022  0.00  0.00    +0.170 A 
ATOM      4  C   UNL     1      88.882  48.664  42.298  0.00  0.00    +0.163 A 
ATOM      5  C   UNL     1      89.646  49.478  41.453  0.00  0.00    +0.026 A 
ATOM      6  C   UNL     1      89.342  50.838  41.304  0.00  0.00    +0.131 A 
ENDROOT
BRANCH   1   7
ATOM      7  C   UNL     1      87.910  52.834  41.900  0.00  0.00    +0.190 C 
ATOM      8  O   UNL     1      88.831  53.681  41.735  0.00  0.00    -0.287 OA
BRANCH   7  10
ATOM      9  C   UNL     1      85.537  52.616  41.253  0.00  0.00    -0.051 C 
ATOM     10  C   UNL     1      86.498  53.272  41.920  0.00  0.00    -0.014 C 
BRANCH   9  14
ATOM     11  C   UNL     1      81.369  53.676  41.277  0.00  0.00    +0.117 A 
ATOM     12  C   UNL     1      82.316  54.624  40.879  0.00  0.00    -0.020 A 
ATOM     13  C   UNL     1      83.676  54.299  40.864  0.00  0.00    -0.051 A 
ATOM     14  C   UNL     1      84.109  53.016  41.260  0.00  0.00    -0.025 A 
ATOM     15  C   UNL     1      83.146  52.066  41.641  0.00  0.00    -0.051 A 
ATOM     16  C   UNL     1      81.787  52.394  41.655  0.00  0.00    -0.020 A 
BRANCH  11  17
ATOM     17  O   UNL     1      80.018  54.016  41.292  0.00  0.00    -0.507 OA
ATOM     18  H   UNL     1      79.755  54.878  41.546  0.00  0.00    +0.000 HD
ENDBRANCH  11  17
ENDBRANCH   9  14
ENDBRANCH   7  10
ENDBRANCH   1   7
BRANCH   6  19
ATOM     19  O   UNL     1      90.089  51.617  40.419  0.00  0.00    -0.506 OA
ATOM     20  H   UNL     1      91.010  51.728  40.554  0.00  0.00    +0.000 HD
ENDBRANCH   6  19
BRANCH   4  21
ATOM     21  O   UNL     1      89.165  47.303  42.399  0.00  0.00    -0.503 OA
ATOM     22  H   UNL     1      89.572  46.855  41.684  0.00  0.00    +0.000 HD
ENDBRANCH   4  21
BRANCH   3  23
ATOM     23  O   UNL     1      87.018  48.447  43.880  0.00  0.00    -0.452 OA
BRANCH  23  24
ATOM     24  C   UNL     1      85.618  48.371  43.831  0.00  0.00    +0.129 A 
ATOM     25  C   UNL     1      84.805  49.505  44.002  0.00  0.00    -0.019 A 
ATOM     26  C   UNL     1      83.414  49.391  43.937  0.00  0.00    -0.051 A 
ATOM     27  C   UNL     1      82.808  48.147  43.702  0.00  0.00    -0.025 A 
ATOM     28  C   UNL     1      83.628  47.020  43.500  0.00  0.00    -0.051 A 
ATOM     29  C   UNL     1      85.020  47.136  43.561  0.00  0.00    -0.019 A 
BRANCH  27  30
ATOM     30  C   UNL     1      81.329  48.075  43.638  0.00  0.00    -0.051 C 
ATOM     31  C   UNL     1      80.522  48.565  44.590  0.00  0.00    -0.014 C 
BRANCH  31  32
ATOM     32  C   UNL     1      79.049  48.480  44.490  0.00  0.00    +0.190 C 
ATOM     33  O   UNL     1      78.470  47.371  44.665  0.00  0.00    -0.287 OA
BRANCH  32  34
ATOM     34  C   UNL     1      78.227  49.689  44.245  0.00  0.00    +0.063 A 
ATOM     35  C   UNL     1      78.724  50.691  43.394  0.00  0.00    -0.044 A 
ATOM     36  C   UNL     1      77.973  51.840  43.134  0.00  0.00    -0.019 A 
ATOM     37  C   UNL     1      76.721  52.010  43.726  0.00  0.00    +0.120 A 
ATOM     38  C   UNL     1      76.221  51.028  44.591  0.00  0.00    +0.022 A 
ATOM     39  C   UNL     1      76.971  49.873  44.864  0.00  0.00    +0.131 A 
BRANCH  39  40
ATOM     40  O   UNL     1      76.477  48.930  45.765  0.00  0.00    -0.506 OA
ATOM     41  H   UNL     1      77.004  48.652  46.489  0.00  0.00    +0.000 HD
ENDBRANCH  39  40
BRANCH  37  42
ATOM     42  O   UNL     1      75.981  53.159  43.453  0.00  0.00    -0.507 OA
ATOM     43  H   UNL     1      75.695  53.334  42.578  0.00  0.00    +0.000 HD
ENDBRANCH  37  42
ENDBRANCH  32  34
ENDBRANCH  31  32
ENDBRANCH  27  30
ENDBRANCH  23  24
ENDBRANCH   3  23
TORSDOF 13
ENDMDL
MODEL 5
REMARK VINA RESULT:    -9.570      2.250      7.564
REMARK INTER + INTRA:         -16.823
REMARK INTER:                 -16.279
REMARK INTRA:                  -0.544
REMARK UNBOUND:                -1.378
REMARK  Name = 
REMARK  13 active torsions:
REMARK  status: ('A' for Active; 'I' for Inactive)
REMARK    1  A    between atoms: O_1  and  C_2
REMARK    2  A    between atoms: C_5  and  C_8
REMARK    3  A    between atoms: C_9  and  C_10
REMARK    4  A    between atoms: C_10  and  C_12
REMARK    5  A    between atoms: C_14  and  O_15
REMARK    6  A    between atoms: O_15  and  C_16
REMARK    7  A    between atoms: C_19  and  C_22
REMARK    8  A    between atoms: C_23  and  C_24
REMARK    9  A    between atoms: C_24  and  C_26
REMARK   10  A    between atoms: C_29  and  O_33
REMARK   11  A    between atoms: C_31  and  O_32
REMARK   12  A    between atoms: C_34  and  O_38
REMARK   13  A    between atoms: C_36  and  O_37
REMARK                            x       y       z     vdW  Elec       q    Type
REMARK                         _______ _______ _______ _____ _____    ______ ____
ROOT
ATOM      1  C   UNL     1      88.288  51.014  42.214  0.00  0.00    +0.067 A 
ATOM      2  C   UNL     1      87.611  49.841  42.591  0.00  0.00    -0.001 A 
ATOM      3  C   UNL     1      88.224  48.589  42.481  0.00  0.00    +0.170 A 
ATOM      4  C   UNL     1      89.517  48.495  41.933  0.00  0.00    +0.163 A 
ATOM      5  C   UNL     1      90.192  49.657  41.542  0.00  0.00    +0.026 A 
ATOM      6  C   UNL     1      89.585  50.914  41.672  0.00  0.00    +0.131 A 
ENDROOT
BRANCH   1   7
ATOM      7  C   UNL     1      87.608  52.321  42.376  0.00  0.00    +0.190 C 
ATOM      8  O   UNL     1      87.556  53.110  41.392  0.00  0.00    -0.287 OA
BRANCH   7  10
ATOM      9  C   UNL     1      86.603  53.948  43.939  0.00  0.00    -0.051 C 
ATOM     10  C   UNL     1      86.953  52.686  43.651  0.00  0.00    -0.014 C 
BRANCH   9  14
ATOM     11  C   UNL     1      84.581  55.056  47.570  0.00  0.00    +0.117 A 
ATOM     12  C   UNL     1      85.636  55.845  47.103  0.00  0.00    -0.020 A 
ATOM     13  C   UNL     1      86.307  55.502  45.925  0.00  0.00    -0.051 A 
ATOM     14  C   UNL     1      85.933  54.351  45.199  0.00  0.00    -0.025 A 
ATOM     15  C   UNL     1      84.859  53.576  45.668  0.00  0.00    -0.051 A 
ATOM     16  C   UNL     1      84.191  53.921  46.846  0.00  0.00    -0.020 A 
BRANCH  11  17
ATOM     17  O   UNL     1      83.927  55.407  48.748  0.00  0.00    -0.507 OA
ATOM     18  H   UNL     1      83.294  56.097  48.744  0.00  0.00    +0.000 HD
ENDBRANCH  11  17
ENDBRANCH   9  14
ENDBRANCH   7  10
ENDBRANCH   1   7
BRANCH   6  19
ATOM     19  O   UNL     1      90.260  52.053  41.231  0.00  0.00    -0.506 OA
ATOM     20  H   UNL     1      90.161  52.343  40.345  0.00  0.00    +0.000 HD
ENDBRANCH   6  19
BRANCH   4  21
ATOM     21  O   UNL     1      90.114  47.248  41.752  0.00  0.00    -0.503 OA
ATOM     22  H   UNL     1      90.912  47.176  41.267  0.00  0.00    +0.000 HD
ENDBRANCH   4  21
BRANCH   3  23
ATOM     23  O   UNL     1      87.510  47.454  42.886  0.00  0.00    -0.452 OA
BRANCH  23  24
ATOM     24  C   UNL     1      86.114  47.383  43.005  0.00  0.00    +0.129 A 
ATOM     25  C   UNL     1      85.385  46.265  42.563  0.00  0.00    -0.019 A 
ATOM     26  C   UNL     1      83.996  46.228  42.708  0.00  0.00    -0.051 A 
ATOM     27  C   UNL     1      83.308  47.303  43.293  0.00  0.00    -0.025 A 
ATOM     28  C   UNL     1      84.046  48.406  43.763  0.00  0.00    -0.051 A 
ATOM     29  C   UNL     1      85.437  48.440  43.621  0.00  0.00    -0.019 A 
BRANCH  27  30
ATOM     30  C   UNL     1      81.834  47.217  43.429  0.00  0.00    -0.051 C 
ATOM     31  C   UNL     1      81.122  47.988  44.263  0.00  0.00    -0.014 C 
BRANCH  31  32
ATOM     32  C   UNL     1      79.651  47.879  44.370  0.00  0.00    +0.190 C 
ATOM     33  O   UNL     1      79.114  46.745  44.519  0.00  0.00    -0.287 OA
BRANCH  32  34
ATOM     34  C   UNL     1      78.791  49.086  44.364  0.00  0.00    +0.063 A 
ATOM     35  C   UNL     1      77.695  49.148  45.241  0.00  0.00    -0.044 A 
ATOM     36  C   UNL     1      76.869  50.275  45.268  0.00  0.00    -0.019 A 
ATOM     37  C   UNL     1      77.119  51.351  44.415  0.00  0.00    +0.120 A 
ATOM     38  C   UNL     1      78.197  51.294  43.522  0.00  0.00    +0.022 A 
ATOM     39  C   UNL     1      79.029  50.164  43.483  0.00  0.00    +0.131 A 
BRANCH  39  40
ATOM     40  O   UNL     1      80.068  50.108  42.554  0.00  0.00    -0.506 OA
ATOM     41  H   UNL     1      80.509  50.893  42.296  0.00  0.00    +0.000 HD
ENDBRANCH  39  40
BRANCH  37  42
ATOM     42  O   UNL     1      76.290  52.470  44.457  0.00  0.00    -0.507 OA
ATOM     43  H   UNL     1      76.564  53.238  44.918  0.00  0.00    +0.000 HD
ENDBRANCH  37  42
ENDBRANCH  32  34
ENDBRANCH  31  32
ENDBRANCH  27  30
ENDBRANCH  23  24
ENDBRANCH   3  23
TORSDOF 13
ENDMDL
MODEL 6
REMARK VINA RESULT:    -9.557      2.778     10.247
REMARK INTER + INTRA:         -16.801
REMARK INTER:                 -14.417
REMARK INTRA:                  -2.384
REMARK UNBOUND:                -1.378
REMARK  Name = 
REMARK  13 active torsions:
REMARK  status: ('A' for Active; 'I' for Inactive)
REMARK    1  A    between atoms: O_1  and  C_2
REMARK    2  A    between atoms: C_5  and  C_8
REMARK    3  A    between atoms: C_9  and  C_10
REMARK    4  A    between atoms: C_10  and  C_12
REMARK    5  A    between atoms: C_14  and  O_15
REMARK    6  A    between atoms: O_15  and  C_16
REMARK    7  A    between atoms: C_19  and  C_22
REMARK    8  A    between atoms: C_23  and  C_24
REMARK    9  A    between atoms: C_24  and  C_26
REMARK   10  A    between atoms: C_29  and  O_33
REMARK   11  A    between atoms: C_31  and  O_32
REMARK   12  A    between atoms: C_34  and  O_38
REMARK   13  A    between atoms: C_36  and  O_37
REMARK                            x       y       z     vdW  Elec       q    Type
REMARK                         _______ _______ _______ _____ _____    ______ ____
ROOT
ATOM      1  C   UNL     1      84.936  56.313  45.169  0.00  0.00    +0.067 A 
ATOM      2  C   UNL     1      85.181  54.999  45.603  0.00  0.00    -0.001 A 
ATOM      3  C   UNL     1      84.758  54.565  46.863  0.00  0.00    +0.170 A 
ATOM      4  C   UNL     1      84.127  55.473  47.734  0.00  0.00    +0.163 A 
ATOM      5  C   UNL     1      83.892  56.788  47.315  0.00  0.00    +0.026 A 
ATOM      6  C   UNL     1      84.298  57.217  46.044  0.00  0.00    +0.131 A 
ENDROOT
BRANCH   1   7
ATOM      7  C   UNL     1      85.378  56.719  43.814  0.00  0.00    +0.190 C 
ATOM      8  O   UNL     1      85.305  57.935  43.485  0.00  0.00    -0.287 OA
BRANCH   7  10
ATOM      9  C   UNL     1      86.614  54.648  43.288  0.00  0.00    -0.051 C 
ATOM     10  C   UNL     1      85.944  55.731  42.871  0.00  0.00    -0.014 C 
BRANCH   9  14
ATOM     11  C   UNL     1      88.354  51.745  40.634  0.00  0.00    +0.117 A 
ATOM     12  C   UNL     1      86.972  51.741  40.845  0.00  0.00    -0.020 A 
ATOM     13  C   UNL     1      86.387  52.676  41.704  0.00  0.00    -0.051 A 
ATOM     14  C   UNL     1      87.185  53.628  42.375  0.00  0.00    -0.025 A 
ATOM     15  C   UNL     1      88.570  53.633  42.141  0.00  0.00    -0.051 A 
ATOM     16  C   UNL     1      89.152  52.696  41.281  0.00  0.00    -0.020 A 
BRANCH  11  17
ATOM     17  O   UNL     1      88.923  50.803  39.779  0.00  0.00    -0.507 OA
ATOM     18  H   UNL     1      89.693  50.339  40.040  0.00  0.00    +0.000 HD
ENDBRANCH  11  17
ENDBRANCH   9  14
ENDBRANCH   7  10
ENDBRANCH   1   7
BRANCH   6  19
ATOM     19  O   UNL     1      84.095  58.545  45.669  0.00  0.00    -0.506 OA
ATOM     20  H   UNL     1      83.731  58.745  44.828  0.00  0.00    +0.000 HD
ENDBRANCH   6  19
BRANCH   4  21
ATOM     21  O   UNL     1      83.763  55.075  49.020  0.00  0.00    -0.503 OA
ATOM     22  H   UNL     1      83.321  55.674  49.588  0.00  0.00    +0.000 HD
ENDBRANCH   4  21
BRANCH   3  23
ATOM     23  O   UNL     1      85.014  53.240  47.238  0.00  0.00    -0.452 OA
BRANCH  23  24
ATOM     24  C   UNL     1      85.594  52.268  46.409  0.00  0.00    +0.129 A 
ATOM     25  C   UNL     1      84.851  51.583  45.432  0.00  0.00    -0.019 A 
ATOM     26  C   UNL     1      85.467  50.629  44.619  0.00  0.00    -0.051 A 
ATOM     27  C   UNL     1      86.832  50.338  44.764  0.00  0.00    -0.025 A 
ATOM     28  C   UNL     1      87.580  51.050  45.722  0.00  0.00    -0.051 A 
ATOM     29  C   UNL     1      86.963  52.009  46.533  0.00  0.00    -0.019 A 
BRANCH  27  30
ATOM     30  C   UNL     1      87.444  49.321  43.876  0.00  0.00    -0.051 C 
ATOM     31  C   UNL     1      88.585  49.517  43.201  0.00  0.00    -0.014 C 
BRANCH  31  32
ATOM     32  C   UNL     1      89.169  48.477  42.327  0.00  0.00    +0.190 C 
ATOM     33  O   UNL     1      90.133  48.766  41.565  0.00  0.00    -0.287 OA
BRANCH  32  34
ATOM     34  C   UNL     1      88.681  47.078  42.371  0.00  0.00    +0.063 A 
ATOM     35  C   UNL     1      87.311  46.827  42.186  0.00  0.00    -0.044 A 
ATOM     36  C   UNL     1      86.818  45.520  42.212  0.00  0.00    -0.019 A 
ATOM     37  C   UNL     1      87.682  44.446  42.434  0.00  0.00    +0.120 A 
ATOM     38  C   UNL     1      89.047  44.684  42.639  0.00  0.00    +0.022 A 
ATOM     39  C   UNL     1      89.551  45.994  42.620  0.00  0.00    +0.131 A 
BRANCH  39  40
ATOM     40  O   UNL     1      90.906  46.213  42.874  0.00  0.00    -0.506 OA
ATOM     41  H   UNL     1      91.202  46.349  43.752  0.00  0.00    +0.000 HD
ENDBRANCH  39  40
BRANCH  37  42
ATOM     42  O   UNL     1      87.176  43.148  42.452  0.00  0.00    -0.507 OA
ATOM     43  H   UNL     1      87.364  42.583  43.175  0.00  0.00    +0.000 HD
ENDBRANCH  37  42
ENDBRANCH  32  34
ENDBRANCH  31  32
ENDBRANCH  27  30
ENDBRANCH  23  24
ENDBRANCH   3  23
TORSDOF 13
ENDMDL
MODEL 7
REMARK VINA RESULT:    -9.308      2.447     10.198
REMARK INTER + INTRA:         -16.400
REMARK INTER:                 -14.621
REMARK INTRA:                  -1.779
REMARK UNBOUND:                -1.378
REMARK  Name = 
REMARK  13 active torsions:
REMARK  status: ('A' for Active; 'I' for Inactive)
REMARK    1  A    between atoms: O_1  and  C_2
REMARK    2  A    between atoms: C_5  and  C_8
REMARK    3  A    between atoms: C_9  and  C_10
REMARK    4  A    between atoms: C_10  and  C_12
REMARK    5  A    between atoms: C_14  and  O_15
REMARK    6  A    between atoms: O_15  and  C_16
REMARK    7  A    between atoms: C_19  and  C_22
REMARK    8  A    between atoms: C_23  and  C_24
REMARK    9  A    between atoms: C_24  and  C_26
REMARK   10  A    between atoms: C_29  and  O_33
REMARK   11  A    between atoms: C_31  and  O_32
REMARK   12  A    between atoms: C_34  and  O_38
REMARK   13  A    between atoms: C_36  and  O_37
REMARK                            x       y       z     vdW  Elec       q    Type
REMARK                         _______ _______ _______ _____ _____    ______ ____
ROOT
ATOM      1  C   UNL     1      85.550  55.911  45.344  0.00  0.00    +0.067 A 
ATOM      2  C   UNL     1      85.836  54.648  45.890  0.00  0.00    -0.001 A 
ATOM      3  C   UNL     1      85.321  54.266  47.132  0.00  0.00    +0.170 A 
ATOM      4  C   UNL     1      84.549  55.180  47.874  0.00  0.00    +0.163 A 
ATOM      5  C   UNL     1      84.271  56.445  47.344  0.00  0.00    +0.026 A 
ATOM      6  C   UNL     1      84.771  56.820  46.090  0.00  0.00    +0.131 A 
ENDROOT
BRANCH   1   7
ATOM      7  C   UNL     1      86.096  56.260  44.011  0.00  0.00    +0.190 C 
ATOM      8  O   UNL     1      85.916  57.426  43.563  0.00  0.00    -0.287 OA
BRANCH   7  10
ATOM      9  C   UNL     1      86.586  53.975  43.216  0.00  0.00    -0.051 C 
ATOM     10  C   UNL     1      86.884  55.282  43.231  0.00  0.00    -0.014 C 
BRANCH   9  14
ATOM     11  C   UNL     1      88.711  50.978  40.978  0.00  0.00    +0.117 A 
ATOM     12  C   UNL     1      89.367  52.158  41.340  0.00  0.00    -0.020 A 
ATOM     13  C   UNL     1      88.693  53.144  42.068  0.00  0.00    -0.051 A 
ATOM     14  C   UNL     1      87.343  52.965  42.436  0.00  0.00    -0.025 A 
ATOM     15  C   UNL     1      86.700  51.767  42.082  0.00  0.00    -0.051 A 
ATOM     16  C   UNL     1      87.375  50.783  41.355  0.00  0.00    -0.020 A 
BRANCH  11  17
ATOM     17  O   UNL     1      89.392  50.007  40.249  0.00  0.00    -0.507 OA
ATOM     18  H   UNL     1      88.925  49.285  39.879  0.00  0.00    +0.000 HD
ENDBRANCH  11  17
ENDBRANCH   9  14
ENDBRANCH   7  10
ENDBRANCH   1   7
BRANCH   6  19
ATOM     19  O   UNL     1      84.520  58.104  45.604  0.00  0.00    -0.506 OA
ATOM     20  H   UNL     1      83.646  58.441  45.601  0.00  0.00    +0.000 HD
ENDBRANCH   6  19
BRANCH   4  21
ATOM     21  O   UNL     1      84.086  54.839  49.144  0.00  0.00    -0.503 OA
ATOM     22  H   UNL     1      83.210  55.053  49.397  0.00  0.00    +0.000 HD
ENDBRANCH   4  21
BRANCH   3  23
ATOM     23  O   UNL     1      85.624  52.988  47.621  0.00  0.00    -0.452 OA
BRANCH  23  24
ATOM     24  C   UNL     1      85.725  51.830  46.836  0.00  0.00    +0.129 A 
ATOM     25  C   UNL     1      86.665  50.822  47.114  0.00  0.00    -0.019 A 
ATOM     26  C   UNL     1      86.728  49.678  46.315  0.00  0.00    -0.051 A 
ATOM     27  C   UNL     1      85.859  49.519  45.224  0.00  0.00    -0.025 A 
ATOM     28  C   UNL     1      84.898  50.517  44.969  0.00  0.00    -0.051 A 
ATOM     29  C   UNL     1      84.833  51.659  45.773  0.00  0.00    -0.019 A 
BRANCH  27  30
ATOM     30  C   UNL     1      85.960  48.286  44.405  0.00  0.00    -0.051 C 
ATOM     31  C   UNL     1      84.984  47.854  43.594  0.00  0.00    -0.014 C 
BRANCH  31  32
ATOM     32  C   UNL     1      85.121  46.622  42.788  0.00  0.00    +0.190 C 
ATOM     33  O   UNL     1      84.261  46.350  41.906  0.00  0.00    -0.287 OA
BRANCH  32  34
ATOM     34  C   UNL     1      86.288  45.724  42.956  0.00  0.00    +0.063 A 
ATOM     35  C   UNL     1      86.177  44.611  43.807  0.00  0.00    -0.044 A 
ATOM     36  C   UNL     1      87.254  43.739  43.982  0.00  0.00    -0.019 A 
ATOM     37  C   UNL     1      88.461  43.970  43.319  0.00  0.00    +0.120 A 
ATOM     38  C   UNL     1      88.592  45.086  42.483  0.00  0.00    +0.022 A 
ATOM     39  C   UNL     1      87.517  45.971  42.306  0.00  0.00    +0.131 A 
BRANCH  39  40
ATOM     40  O   UNL     1      87.684  47.103  41.506  0.00  0.00    -0.506 OA
ATOM     41  H   UNL     1      87.116  47.840  41.614  0.00  0.00    +0.000 HD
ENDBRANCH  39  40
BRANCH  37  42
ATOM     42  O   UNL     1      89.525  43.088  43.499  0.00  0.00    -0.507 OA
ATOM     43  H   UNL     1      89.970  43.054  44.323  0.00  0.00    +0.000 HD
ENDBRANCH  37  42
ENDBRANCH  32  34
ENDBRANCH  31  32
ENDBRANCH  27  30
ENDBRANCH  23  24
ENDBRANCH   3  23
TORSDOF 13
ENDMDL
MODEL 8
REMARK VINA RESULT:    -9.228      2.149      9.265
REMARK INTER + INTRA:         -16.271
REMARK INTER:                 -14.139
REMARK INTRA:                  -2.132
REMARK UNBOUND:                -1.378
REMARK  Name = 
REMARK  13 active torsions:
REMARK  status: ('A' for Active; 'I' for Inactive)
REMARK    1  A    between atoms: O_1  and  C_2
REMARK    2  A    between atoms: C_5  and  C_8
REMARK    3  A    between atoms: C_9  and  C_10
REMARK    4  A    between atoms: C_10  and  C_12
REMARK    5  A    between atoms: C_14  and  O_15
REMARK    6  A    between atoms: O_15  and  C_16
REMARK    7  A    between atoms: C_19  and  C_22
REMARK    8  A    between atoms: C_23  and  C_24
REMARK    9  A    between atoms: C_24  and  C_26
REMARK   10  A    between atoms: C_29  and  O_33
REMARK   11  A    between atoms: C_31  and  O_32
REMARK   12  A    between atoms: C_34  and  O_38
REMARK   13  A    between atoms: C_36  and  O_37
REMARK                            x       y       z     vdW  Elec       q    Type
REMARK                         _______ _______ _______ _____ _____    ______ ____
ROOT
ATOM      1  C   UNL     1      84.699  54.912  45.968  0.00  0.00    +0.067 A 
ATOM      2  C   UNL     1      85.175  54.641  44.673  0.00  0.00    -0.001 A 
ATOM      3  C   UNL     1      85.475  55.679  43.785  0.00  0.00    +0.170 A 
ATOM      4  C   UNL     1      85.246  57.013  44.171  0.00  0.00    +0.163 A 
ATOM      5  C   UNL     1      84.758  57.290  45.454  0.00  0.00    +0.026 A 
ATOM      6  C   UNL     1      84.476  56.250  46.351  0.00  0.00    +0.131 A 
ENDROOT
BRANCH   1   7
ATOM      7  C   UNL     1      84.421  53.781  46.884  0.00  0.00    +0.190 C 
ATOM      8  O   UNL     1      84.140  54.024  48.090  0.00  0.00    -0.287 OA
BRANCH   7  10
ATOM      9  C   UNL     1      84.449  52.089  45.086  0.00  0.00    -0.051 C 
ATOM     10  C   UNL     1      84.420  52.385  46.393  0.00  0.00    -0.014 C 
BRANCH   9  14
ATOM     11  C   UNL     1      84.389  48.072  43.550  0.00  0.00    +0.117 A 
ATOM     12  C   UNL     1      85.584  48.598  44.048  0.00  0.00    -0.020 A 
ATOM     13  C   UNL     1      85.624  49.902  44.552  0.00  0.00    -0.051 A 
ATOM     14  C   UNL     1      84.463  50.704  44.554  0.00  0.00    -0.025 A 
ATOM     15  C   UNL     1      83.264  50.157  44.067  0.00  0.00    -0.051 A 
ATOM     16  C   UNL     1      83.227  48.854  43.564  0.00  0.00    -0.020 A 
BRANCH  11  17
ATOM     17  O   UNL     1      84.366  46.773  43.046  0.00  0.00    -0.507 OA
ATOM     18  H   UNL     1      85.157  46.276  42.997  0.00  0.00    +0.000 HD
ENDBRANCH  11  17
ENDBRANCH   9  14
ENDBRANCH   7  10
ENDBRANCH   1   7
BRANCH   6  19
ATOM     19  O   UNL     1      83.946  56.550  47.607  0.00  0.00    -0.506 OA
ATOM     20  H   UNL     1      83.645  55.861  48.165  0.00  0.00    +0.000 HD
ENDBRANCH   6  19
BRANCH   4  21
ATOM     21  O   UNL     1      85.474  58.053  43.272  0.00  0.00    -0.503 OA
ATOM     22  H   UNL     1      84.881  58.777  43.232  0.00  0.00    +0.000 HD
ENDBRANCH   4  21
BRANCH   3  23
ATOM     23  O   UNL     1      85.962  55.352  42.512  0.00  0.00    -0.452 OA
BRANCH  23  24
ATOM     24  C   UNL     1      86.586  54.142  42.176  0.00  0.00    +0.129 A 
ATOM     25  C   UNL     1      87.933  53.887  42.488  0.00  0.00    -0.019 A 
ATOM     26  C   UNL     1      88.516  52.665  42.145  0.00  0.00    -0.051 A 
ATOM     27  C   UNL     1      87.770  51.675  41.486  0.00  0.00    -0.025 A 
ATOM     28  C   UNL     1      86.412  51.923  41.205  0.00  0.00    -0.051 A 
ATOM     29  C   UNL     1      85.829  53.146  41.552  0.00  0.00    -0.019 A 
BRANCH  27  30
ATOM     30  C   UNL     1      88.430  50.392  41.146  0.00  0.00    -0.051 C 
ATOM     31  C   UNL     1      89.143  49.671  42.023  0.00  0.00    -0.014 C 
BRANCH  31  32
ATOM     32  C   UNL     1      89.785  48.392  41.650  0.00  0.00    +0.190 C 
ATOM     33  O   UNL     1      90.887  48.398  41.035  0.00  0.00    -0.287 OA
BRANCH  32  34
ATOM     34  C   UNL     1      89.184  47.094  42.038  0.00  0.00    +0.063 A 
ATOM     35  C   UNL     1      87.850  46.826  41.687  0.00  0.00    -0.044 A 
ATOM     36  C   UNL     1      87.255  45.609  42.029  0.00  0.00    -0.019 A 
ATOM     37  C   UNL     1      87.979  44.646  42.734  0.00  0.00    +0.120 A 
ATOM     38  C   UNL     1      89.304  44.907  43.106  0.00  0.00    +0.022 A 
ATOM     39  C   UNL     1      89.908  46.129  42.773  0.00  0.00    +0.131 A 
BRANCH  39  40
ATOM     40  O   UNL     1      91.213  46.388  43.194  0.00  0.00    -0.506 OA
ATOM     41  H   UNL     1      91.609  47.217  43.010  0.00  0.00    +0.000 HD
ENDBRANCH  39  40
BRANCH  37  42
ATOM     42  O   UNL     1      87.374  43.435  43.063  0.00  0.00    -0.507 OA
ATOM     43  H   UNL     1      87.876  42.644  43.057  0.00  0.00    +0.000 HD
ENDBRANCH  37  42
ENDBRANCH  32  34
ENDBRANCH  31  32
ENDBRANCH  27  30
ENDBRANCH  23  24
ENDBRANCH   3  23
TORSDOF 13
ENDMDL
MODEL 9
REMARK VINA RESULT:    -9.013      2.446      7.211
REMARK INTER + INTRA:         -15.924
REMARK INTER:                 -14.546
REMARK INTRA:                  -1.378
REMARK UNBOUND:                -1.378
REMARK  Name = 
REMARK  13 active torsions:
REMARK  status: ('A' for Active; 'I' for Inactive)
REMARK    1  A    between atoms: O_1  and  C_2
REMARK    2  A    between atoms: C_5  and  C_8
REMARK    3  A    between atoms: C_9  and  C_10
REMARK    4  A    between atoms: C_10  and  C_12
REMARK    5  A    between atoms: C_14  and  O_15
REMARK    6  A    between atoms: O_15  and  C_16
REMARK    7  A    between atoms: C_19  and  C_22
REMARK    8  A    between atoms: C_23  and  C_24
REMARK    9  A    between atoms: C_24  and  C_26
REMARK   10  A    between atoms: C_29  and  O_33
REMARK   11  A    between atoms: C_31  and  O_32
REMARK   12  A    between atoms: C_34  and  O_38
REMARK   13  A    between atoms: C_36  and  O_37
REMARK                            x       y       z     vdW  Elec       q    Type
REMARK                         _______ _______ _______ _____ _____    ______ ____
ROOT
ATOM      1  C   UNL     1      87.937  48.943  43.064  0.00  0.00    +0.067 A 
ATOM      2  C   UNL     1      86.715  48.288  42.837  0.00  0.00    -0.001 A 
ATOM      3  C   UNL     1      86.679  46.951  42.428  0.00  0.00    +0.170 A 
ATOM      4  C   UNL     1      87.885  46.266  42.187  0.00  0.00    +0.163 A 
ATOM      5  C   UNL     1      89.107  46.916  42.398  0.00  0.00    +0.026 A 
ATOM      6  C   UNL     1      89.142  48.250  42.827  0.00  0.00    +0.131 A 
ENDROOT
BRANCH   1   7
ATOM      7  C   UNL     1      87.925  50.352  43.524  0.00  0.00    +0.190 C 
ATOM      8  O   UNL     1      88.601  51.209  42.891  0.00  0.00    -0.287 OA
BRANCH   7  10
ATOM      9  C   UNL     1      86.909  52.059  44.991  0.00  0.00    -0.051 C 
ATOM     10  C   UNL     1      87.096  50.769  44.676  0.00  0.00    -0.014 C 
BRANCH   9  14
ATOM     11  C   UNL     1      84.528  53.313  48.347  0.00  0.00    +0.117 A 
ATOM     12  C   UNL     1      84.210  53.777  47.067  0.00  0.00    -0.020 A 
ATOM     13  C   UNL     1      84.972  53.381  45.963  0.00  0.00    -0.051 A 
ATOM     14  C   UNL     1      86.075  52.517  46.129  0.00  0.00    -0.025 A 
ATOM     15  C   UNL     1      86.375  52.043  47.417  0.00  0.00    -0.051 A 
ATOM     16  C   UNL     1      85.611  52.441  48.519  0.00  0.00    -0.020 A 
BRANCH  11  17
ATOM     17  O   UNL     1      83.764  53.721  49.437  0.00  0.00    -0.507 OA
ATOM     18  H   UNL     1      82.829  53.711  49.384  0.00  0.00    +0.000 HD
ENDBRANCH  11  17
ENDBRANCH   9  14
ENDBRANCH   7  10
ENDBRANCH   1   7
BRANCH   6  19
ATOM     19  O   UNL     1      90.372  48.890  42.984  0.00  0.00    -0.506 OA
ATOM     20  H   UNL     1      91.159  48.385  43.045  0.00  0.00    +0.000 HD
ENDBRANCH   6  19
BRANCH   4  21
ATOM     21  O   UNL     1      87.865  44.955  41.712  0.00  0.00    -0.503 OA
ATOM     22  H   UNL     1      87.609  44.781  40.828  0.00  0.00    +0.000 HD
ENDBRANCH   4  21
BRANCH   3  23
ATOM     23  O   UNL     1      85.433  46.342  42.231  0.00  0.00    -0.452 OA
BRANCH  23  24
ATOM     24  C   UNL     1      84.241  46.730  42.860  0.00  0.00    +0.129 A 
ATOM     25  C   UNL     1      83.787  48.060  42.839  0.00  0.00    -0.019 A 
ATOM     26  C   UNL     1      82.589  48.405  43.470  0.00  0.00    -0.051 A 
ATOM     27  C   UNL     1      81.823  47.434  44.134  0.00  0.00    -0.025 A 
ATOM     28  C   UNL     1      82.266  46.097  44.125  0.00  0.00    -0.051 A 
ATOM     29  C   UNL     1      83.464  45.752  43.489  0.00  0.00    -0.019 A 
BRANCH  27  30
ATOM     30  C   UNL     1      80.557  47.846  44.785  0.00  0.00    -0.051 C 
ATOM     31  C   UNL     1      80.095  49.105  44.776  0.00  0.00    -0.014 C 
BRANCH  31  32
ATOM     32  C   UNL     1      78.824  49.480  45.432  0.00  0.00    +0.190 C 
ATOM     33  O   UNL     1      78.616  49.149  46.633  0.00  0.00    -0.287 OA
BRANCH  32  34
ATOM     34  C   UNL     1      77.808  50.293  44.724  0.00  0.00    +0.063 A 
ATOM     35  C   UNL     1      78.221  51.163  43.701  0.00  0.00    -0.044 A 
ATOM     36  C   UNL     1      77.288  51.937  43.006  0.00  0.00    -0.019 A 
ATOM     37  C   UNL     1      75.932  51.863  43.328  0.00  0.00    +0.120 A 
ATOM     38  C   UNL     1      75.509  51.014  44.359  0.00  0.00    +0.022 A 
ATOM     39  C   UNL     1      76.439  50.237  45.067  0.00  0.00    +0.131 A 
BRANCH  39  40
ATOM     40  O   UNL     1      76.002  49.434  46.122  0.00  0.00    -0.506 OA
ATOM     41  H   UNL     1      76.596  48.836  46.532  0.00  0.00    +0.000 HD
ENDBRANCH  39  40
BRANCH  37  42
ATOM     42  O   UNL     1      75.014  52.637  42.623  0.00  0.00    -0.507 OA
ATOM     43  H   UNL     1      74.097  52.549  42.795  0.00  0.00    +0.000 HD
ENDBRANCH  37  42
ENDBRANCH  32  34
ENDBRANCH  31  32
ENDBRANCH  27  30
ENDBRANCH  23  24
ENDBRANCH   3  23
TORSDOF 13
ENDMDL
