MODEL 1
REMARK VINA RESULT:   -11.212      0.000      0.000
REMARK INTER + INTRA:         -19.233
REMARK INTER:                 -17.535
REMARK INTRA:                  -1.698
REMARK UNBOUND:                -1.138
REMARK  Name = 
REMARK  13 active torsions:
REMARK  status: ('A' for Active; 'I' for Inactive)
REMARK    1  A    between atoms: O_1  and  C_2
REMARK    2  A    between atoms: C_5  and  C_8
REMARK    3  A    between atoms: C_9  and  C_10
REMARK    4  A    between atoms: C_10  and  C_12
REMARK    5  A    between atoms: C_14  and  O_15
REMARK    6  A    between atoms: O_15  and  C_16
REMARK    7  A    between atoms: C_19  and  C_22
REMARK    8  A    between atoms: C_23  and  C_24
REMARK    9  A    between atoms: C_24  and  C_26
REMARK   10  A    between atoms: C_29  and  O_33
REMARK   11  A    between atoms: C_31  and  O_32
REMARK   12  A    between atoms: C_34  and  O_38
REMARK   13  A    between atoms: C_36  and  O_37
REMARK                            x       y       z     vdW  Elec       q    Type
REMARK                         _______ _______ _______ _____ _____    ______ ____
ROOT
ATOM      1  C   UNL     1      86.657  45.557  42.816  0.00  0.00    +0.067 A 
ATOM      2  C   UNL     1      86.890  46.929  42.624  0.00  0.00    -0.001 A 
ATOM      3  C   UNL     1      88.191  47.427  42.492  0.00  0.00    +0.170 A 
ATOM      4  C   UNL     1      89.286  46.551  42.609  0.00  0.00    +0.163 A 
ATOM      5  C   UNL     1      89.062  45.184  42.814  0.00  0.00    +0.026 A 
ATOM      6  C   UNL     1      87.758  44.682  42.926  0.00  0.00    +0.131 A 
ENDROOT
BRANCH   1   7
ATOM      7  C   UNL     1      85.261  45.071  42.922  0.00  0.00    +0.190 C 
ATOM      8  O   UNL     1      84.946  43.985  42.361  0.00  0.00    -0.287 OA
BRANCH   7  10
ATOM      9  C   UNL     1      83.155  46.339  43.155  0.00  0.00    -0.051 C 
ATOM     10  C   UNL     1      84.255  45.814  43.712  0.00  0.00    -0.014 C 
BRANCH   9  14
ATOM     11  C   UNL     1      80.093  48.393  45.370  0.00  0.00    +0.117 A 
ATOM     12  C   UNL     1      81.009  49.133  44.616  0.00  0.00    -0.020 A 
ATOM     13  C   UNL     1      82.012  48.484  43.889  0.00  0.00    -0.051 A 
ATOM     14  C   UNL     1      82.117  47.077  43.915  0.00  0.00    -0.025 A 
ATOM     15  C   UNL     1      81.180  46.343  44.662  0.00  0.00    -0.051 A 
ATOM     16  C   UNL     1      80.179  46.995  45.388  0.00  0.00    -0.020 A 
BRANCH  11  17
ATOM     17  O   UNL     1      79.103  49.054  46.093  0.00  0.00    -0.507 OA
ATOM     18  H   UNL     1      78.512  48.567  46.630  0.00  0.00    +0.000 HD
ENDBRANCH  11  17
ENDBRANCH   9  14
ENDBRANCH   7  10
ENDBRANCH   1   7
BRANCH   6  19
ATOM     19  O   UNL     1      87.563  43.324  43.179  0.00  0.00    -0.506 OA
ATOM     20  H   UNL     1      87.813  42.687  42.538  0.00  0.00    +0.000 HD
ENDBRANCH   6  19
BRANCH   4  21
ATOM     21  O   UNL     1      90.589  47.043  42.549  0.00  0.00    -0.503 OA
ATOM     22  H   UNL     1      91.280  46.593  42.992  0.00  0.00    +0.000 HD
ENDBRANCH   4  21
BRANCH   3  23
ATOM     23  O   UNL     1      88.365  48.802  42.286  0.00  0.00    -0.452 OA
BRANCH  23  24
ATOM     24  C   UNL     1      87.987  49.805  43.191  0.00  0.00    +0.129 A 
ATOM     25  C   UNL     1      87.971  49.586  44.579  0.00  0.00    -0.019 A 
ATOM     26  C   UNL     1      87.597  50.613  45.450  0.00  0.00    -0.051 A 
ATOM     27  C   UNL     1      87.233  51.875  44.954  0.00  0.00    -0.025 A 
ATOM     28  C   UNL     1      87.282  52.099  43.564  0.00  0.00    -0.051 A 
ATOM     29  C   UNL     1      87.660  51.070  42.694  0.00  0.00    -0.019 A 
BRANCH  27  30
ATOM     30  C   UNL     1      86.848  52.936  45.916  0.00  0.00    -0.051 C 
ATOM     31  C   UNL     1      86.030  52.728  46.958  0.00  0.00    -0.014 C 
BRANCH  31  32
ATOM     32  C   UNL     1      85.671  53.809  47.901  0.00  0.00    +0.190 C 
ATOM     33  O   UNL     1      85.815  53.633  49.143  0.00  0.00    -0.287 OA
BRANCH  32  34
ATOM     34  C   UNL     1      85.199  55.126  47.411  0.00  0.00    +0.063 A 
ATOM     35  C   UNL     1      86.093  55.957  46.716  0.00  0.00    -0.044 A 
ATOM     36  C   UNL     1      85.678  57.201  46.233  0.00  0.00    -0.019 A 
ATOM     37  C   UNL     1      84.370  57.637  46.445  0.00  0.00    +0.120 A 
ATOM     38  C   UNL     1      83.473  56.827  47.153  0.00  0.00    +0.022 A 
ATOM     39  C   UNL     1      83.882  55.579  47.648  0.00  0.00    +0.131 A 
BRANCH  39  40
ATOM     40  O   UNL     1      82.987  54.808  48.392  0.00  0.00    -0.506 OA
ATOM     41  H   UNL     1      83.187  53.913  48.583  0.00  0.00    +0.000 HD
ENDBRANCH  39  40
BRANCH  37  42
ATOM     42  O   UNL     1      83.969  58.878  45.952  0.00  0.00    -0.507 OA
ATOM     43  H   UNL     1      84.234  59.662  46.389  0.00  0.00    +0.000 HD
ENDBRANCH  37  42
ENDBRANCH  32  34
ENDBRANCH  31  32
ENDBRANCH  27  30
ENDBRANCH  23  24
ENDBRANCH   3  23
TORSDOF 13
ENDMDL
MODEL 2
REMARK VINA RESULT:   -10.740      2.687     10.363
REMARK INTER + INTRA:         -18.471
REMARK INTER:                 -15.723
REMARK INTRA:                  -2.748
REMARK UNBOUND:                -1.138
REMARK  Name = 
REMARK  13 active torsions:
REMARK  status: ('A' for Active; 'I' for Inactive)
REMARK    1  A    between atoms: O_1  and  C_2
REMARK    2  A    between atoms: C_5  and  C_8
REMARK    3  A    between atoms: C_9  and  C_10
REMARK    4  A    between atoms: C_10  and  C_12
REMARK    5  A    between atoms: C_14  and  O_15
REMARK    6  A    between atoms: O_15  and  C_16
REMARK    7  A    between atoms: C_19  and  C_22
REMARK    8  A    between atoms: C_23  and  C_24
REMARK    9  A    between atoms: C_24  and  C_26
REMARK   10  A    between atoms: C_29  and  O_33
REMARK   11  A    between atoms: C_31  and  O_32
REMARK   12  A    between atoms: C_34  and  O_38
REMARK   13  A    between atoms: C_36  and  O_37
REMARK                            x       y       z     vdW  Elec       q    Type
REMARK                         _______ _______ _______ _____ _____    ______ ____
ROOT
ATOM      1  C   UNL     1      84.829  56.371  45.280  0.00  0.00    +0.067 A 
ATOM      2  C   UNL     1      84.999  55.060  45.757  0.00  0.00    -0.001 A 
ATOM      3  C   UNL     1      84.514  54.682  47.013  0.00  0.00    +0.170 A 
ATOM      4  C   UNL     1      83.894  55.641  47.836  0.00  0.00    +0.163 A 
ATOM      5  C   UNL     1      83.734  56.953  47.374  0.00  0.00    +0.026 A 
ATOM      6  C   UNL     1      84.202  57.326  46.107  0.00  0.00    +0.131 A 
ENDROOT
BRANCH   1   7
ATOM      7  C   UNL     1      85.335  56.718  43.931  0.00  0.00    +0.190 C 
ATOM      8  O   UNL     1      85.327  57.926  43.566  0.00  0.00    -0.287 OA
BRANCH   7  10
ATOM      9  C   UNL     1      86.449  54.556  43.507  0.00  0.00    -0.051 C 
ATOM     10  C   UNL     1      85.891  55.680  43.036  0.00  0.00    -0.014 C 
BRANCH   9  14
ATOM     11  C   UNL     1      88.147  51.504  40.997  0.00  0.00    +0.117 A 
ATOM     12  C   UNL     1      86.761  51.561  41.166  0.00  0.00    -0.020 A 
ATOM     13  C   UNL     1      86.189  52.545  41.978  0.00  0.00    -0.051 A 
ATOM     14  C   UNL     1      87.004  53.486  42.643  0.00  0.00    -0.025 A 
ATOM     15  C   UNL     1      88.395  53.430  42.451  0.00  0.00    -0.051 A 
ATOM     16  C   UNL     1      88.964  52.444  41.638  0.00  0.00    -0.020 A 
BRANCH  11  17
ATOM     17  O   UNL     1      88.702  50.514  40.189  0.00  0.00    -0.507 OA
ATOM     18  H   UNL     1      88.707  50.617  39.259  0.00  0.00    +0.000 HD
ENDBRANCH  11  17
ENDBRANCH   9  14
ENDBRANCH   7  10
ENDBRANCH   1   7
BRANCH   6  19
ATOM     19  O   UNL     1      84.073  58.651  45.688  0.00  0.00    -0.506 OA
ATOM     20  H   UNL     1      84.009  58.851  44.775  0.00  0.00    +0.000 HD
ENDBRANCH   6  19
BRANCH   4  21
ATOM     21  O   UNL     1      83.468  55.296  49.117  0.00  0.00    -0.503 OA
ATOM     22  H   UNL     1      83.490  54.401  49.393  0.00  0.00    +0.000 HD
ENDBRANCH   4  21
BRANCH   3  23
ATOM     23  O   UNL     1      84.696  53.357  47.432  0.00  0.00    -0.452 OA
BRANCH  23  24
ATOM     24  C   UNL     1      85.284  52.344  46.660  0.00  0.00    +0.129 A 
ATOM     25  C   UNL     1      84.566  51.655  45.667  0.00  0.00    -0.019 A 
ATOM     26  C   UNL     1      85.189  50.658  44.912  0.00  0.00    -0.051 A 
ATOM     27  C   UNL     1      86.535  50.328  45.133  0.00  0.00    -0.025 A 
ATOM     28  C   UNL     1      87.259  51.044  46.106  0.00  0.00    -0.051 A 
ATOM     29  C   UNL     1      86.635  52.045  46.858  0.00  0.00    -0.019 A 
BRANCH  27  30
ATOM     30  C   UNL     1      87.155  49.266  44.304  0.00  0.00    -0.051 C 
ATOM     31  C   UNL     1      86.552  48.706  43.246  0.00  0.00    -0.014 C 
BRANCH  31  32
ATOM     32  C   UNL     1      87.202  47.651  42.439  0.00  0.00    +0.190 C 
ATOM     33  O   UNL     1      87.700  47.938  41.315  0.00  0.00    -0.287 OA
BRANCH  32  34
ATOM     34  C   UNL     1      87.334  46.267  42.952  0.00  0.00    +0.063 A 
ATOM     35  C   UNL     1      86.247  45.682  43.624  0.00  0.00    -0.044 A 
ATOM     36  C   UNL     1      86.334  44.376  44.113  0.00  0.00    -0.019 A 
ATOM     37  C   UNL     1      87.508  43.639  43.948  0.00  0.00    +0.120 A 
ATOM     38  C   UNL     1      88.605  44.217  43.297  0.00  0.00    +0.022 A 
ATOM     39  C   UNL     1      88.530  45.531  42.807  0.00  0.00    +0.131 A 
BRANCH  39  40
ATOM     40  O   UNL     1      89.650  46.104  42.204  0.00  0.00    -0.506 OA
ATOM     41  H   UNL     1      90.509  45.822  42.448  0.00  0.00    +0.000 HD
ENDBRANCH  39  40
BRANCH  37  42
ATOM     42  O   UNL     1      87.577  42.336  44.436  0.00  0.00    -0.507 OA
ATOM     43  H   UNL     1      88.407  41.908  44.512  0.00  0.00    +0.000 HD
ENDBRANCH  37  42
ENDBRANCH  32  34
ENDBRANCH  31  32
ENDBRANCH  27  30
ENDBRANCH  23  24
ENDBRANCH   3  23
TORSDOF 13
ENDMDL
MODEL 3
REMARK VINA RESULT:   -10.721      2.152      5.293
REMARK INTER + INTRA:         -18.440
REMARK INTER:                 -16.821
REMARK INTRA:                  -1.619
REMARK UNBOUND:                -1.138
REMARK  Name = 
REMARK  13 active torsions:
REMARK  status: ('A' for Active; 'I' for Inactive)
REMARK    1  A    between atoms: O_1  and  C_2
REMARK    2  A    between atoms: C_5  and  C_8
REMARK    3  A    between atoms: C_9  and  C_10
REMARK    4  A    between atoms: C_10  and  C_12
REMARK    5  A    between atoms: C_14  and  O_15
REMARK    6  A    between atoms: O_15  and  C_16
REMARK    7  A    between atoms: C_19  and  C_22
REMARK    8  A    between atoms: C_23  and  C_24
REMARK    9  A    between atoms: C_24  and  C_26
REMARK   10  A    between atoms: C_29  and  O_33
REMARK   11  A    between atoms: C_31  and  O_32
REMARK   12  A    between atoms: C_34  and  O_38
REMARK   13  A    between atoms: C_36  and  O_37
REMARK                            x       y       z     vdW  Elec       q    Type
REMARK                         _______ _______ _______ _____ _____    ______ ____
ROOT
ATOM      1  C   UNL     1      86.953  45.964  43.071  0.00  0.00    +0.067 A 
ATOM      2  C   UNL     1      85.931  46.925  42.992  0.00  0.00    -0.001 A 
ATOM      3  C   UNL     1      84.692  46.711  43.606  0.00  0.00    +0.170 A 
ATOM      4  C   UNL     1      84.446  45.493  44.267  0.00  0.00    +0.163 A 
ATOM      5  C   UNL     1      85.455  44.525  44.338  0.00  0.00    +0.026 A 
ATOM      6  C   UNL     1      86.702  44.748  43.739  0.00  0.00    +0.131 A 
ENDROOT
BRANCH   1   7
ATOM      7  C   UNL     1      88.258  46.247  42.428  0.00  0.00    +0.190 C 
ATOM      8  O   UNL     1      89.049  45.290  42.199  0.00  0.00    -0.287 OA
BRANCH   7  10
ATOM      9  C   UNL     1      88.324  48.693  42.755  0.00  0.00    -0.051 C 
ATOM     10  C   UNL     1      88.619  47.619  42.010  0.00  0.00    -0.014 C 
BRANCH   9  14
ATOM     11  C   UNL     1      89.267  52.753  41.689  0.00  0.00    +0.117 A 
ATOM     12  C   UNL     1      90.063  51.712  41.202  0.00  0.00    -0.020 A 
ATOM     13  C   UNL     1      89.773  50.386  41.537  0.00  0.00    -0.051 A 
ATOM     14  C   UNL     1      88.681  50.083  42.377  0.00  0.00    -0.025 A 
ATOM     15  C   UNL     1      87.877  51.136  42.846  0.00  0.00    -0.051 A 
ATOM     16  C   UNL     1      88.169  52.461  42.509  0.00  0.00    -0.020 A 
BRANCH  11  17
ATOM     17  O   UNL     1      89.571  54.069  41.351  0.00  0.00    -0.507 OA
ATOM     18  H   UNL     1      90.459  54.366  41.376  0.00  0.00    +0.000 HD
ENDBRANCH  11  17
ENDBRANCH   9  14
ENDBRANCH   7  10
ENDBRANCH   1   7
BRANCH   6  19
ATOM     19  O   UNL     1      87.675  43.748  43.782  0.00  0.00    -0.506 OA
ATOM     20  H   UNL     1      87.716  43.165  44.515  0.00  0.00    +0.000 HD
ENDBRANCH   6  19
BRANCH   4  21
ATOM     21  O   UNL     1      83.194  45.237  44.824  0.00  0.00    -0.503 OA
ATOM     22  H   UNL     1      82.423  45.309  44.297  0.00  0.00    +0.000 HD
ENDBRANCH   4  21
BRANCH   3  23
ATOM     23  O   UNL     1      83.714  47.709  43.510  0.00  0.00    -0.452 OA
BRANCH  23  24
ATOM     24  C   UNL     1      83.861  49.026  43.972  0.00  0.00    +0.129 A 
ATOM     25  C   UNL     1      82.875  50.004  43.757  0.00  0.00    -0.019 A 
ATOM     26  C   UNL     1      83.053  51.302  44.242  0.00  0.00    -0.051 A 
ATOM     27  C   UNL     1      84.216  51.650  44.947  0.00  0.00    -0.025 A 
ATOM     28  C   UNL     1      85.186  50.657  45.188  0.00  0.00    -0.051 A 
ATOM     29  C   UNL     1      85.004  49.357  44.706  0.00  0.00    -0.019 A 
BRANCH  27  30
ATOM     30  C   UNL     1      84.360  53.039  45.446  0.00  0.00    -0.051 C 
ATOM     31  C   UNL     1      84.658  53.341  46.717  0.00  0.00    -0.014 C 
BRANCH  31  32
ATOM     32  C   UNL     1      84.799  54.739  47.179  0.00  0.00    +0.190 C 
ATOM     33  O   UNL     1      84.682  55.010  48.407  0.00  0.00    -0.287 OA
BRANCH  32  34
ATOM     34  C   UNL     1      85.135  55.828  46.231  0.00  0.00    +0.063 A 
ATOM     35  C   UNL     1      86.289  55.710  45.439  0.00  0.00    -0.044 A 
ATOM     36  C   UNL     1      86.632  56.713  44.528  0.00  0.00    -0.019 A 
ATOM     37  C   UNL     1      85.834  57.852  44.403  0.00  0.00    +0.120 A 
ATOM     38  C   UNL     1      84.691  57.991  45.201  0.00  0.00    +0.022 A 
ATOM     39  C   UNL     1      84.342  56.991  46.123  0.00  0.00    +0.131 A 
BRANCH  39  40
ATOM     40  O   UNL     1      83.227  57.171  46.941  0.00  0.00    -0.506 OA
ATOM     41  H   UNL     1      82.549  56.523  46.959  0.00  0.00    +0.000 HD
ENDBRANCH  39  40
BRANCH  37  42
ATOM     42  O   UNL     1      86.186  58.841  43.487  0.00  0.00    -0.507 OA
ATOM     43  H   UNL     1      85.525  59.252  42.965  0.00  0.00    +0.000 HD
ENDBRANCH  37  42
ENDBRANCH  32  34
ENDBRANCH  31  32
ENDBRANCH  27  30
ENDBRANCH  23  24
ENDBRANCH   3  23
TORSDOF 13
ENDMDL
MODEL 4
REMARK VINA RESULT:   -10.250      2.933     10.320
REMARK INTER + INTRA:         -17.680
REMARK INTER:                 -16.047
REMARK INTRA:                  -1.633
REMARK UNBOUND:                -1.138
REMARK  Name = 
REMARK  13 active torsions:
REMARK  status: ('A' for Active; 'I' for Inactive)
REMARK    1  A    between atoms: O_1  and  C_2
REMARK    2  A    between atoms: C_5  and  C_8
REMARK    3  A    between atoms: C_9  and  C_10
REMARK    4  A    between atoms: C_10  and  C_12
REMARK    5  A    between atoms: C_14  and  O_15
REMARK    6  A    between atoms: O_15  and  C_16
REMARK    7  A    between atoms: C_19  and  C_22
REMARK    8  A    between atoms: C_23  and  C_24
REMARK    9  A    between atoms: C_24  and  C_26
REMARK   10  A    between atoms: C_29  and  O_33
REMARK   11  A    between atoms: C_31  and  O_32
REMARK   12  A    between atoms: C_34  and  O_38
REMARK   13  A    between atoms: C_36  and  O_37
REMARK                            x       y       z     vdW  Elec       q    Type
REMARK                         _______ _______ _______ _____ _____    ______ ____
ROOT
ATOM      1  C   UNL     1      84.692  56.141  46.786  0.00  0.00    +0.067 A 
ATOM      2  C   UNL     1      85.593  55.101  47.068  0.00  0.00    -0.001 A 
ATOM      3  C   UNL     1      85.282  54.115  48.011  0.00  0.00    +0.170 A 
ATOM      4  C   UNL     1      84.074  54.196  48.728  0.00  0.00    +0.163 A 
ATOM      5  C   UNL     1      83.177  55.238  48.462  0.00  0.00    +0.026 A 
ATOM      6  C   UNL     1      83.480  56.214  47.503  0.00  0.00    +0.131 A 
ENDROOT
BRANCH   1   7
ATOM      7  C   UNL     1      85.052  57.147  45.759  0.00  0.00    +0.190 C 
ATOM      8  O   UNL     1      85.471  58.278  46.130  0.00  0.00    -0.287 OA
BRANCH   7  10
ATOM      9  C   UNL     1      84.766  55.577  43.875  0.00  0.00    -0.051 C 
ATOM     10  C   UNL     1      84.974  56.825  44.317  0.00  0.00    -0.014 C 
BRANCH   9  14
ATOM     11  C   UNL     1      84.401  54.594  39.703  0.00  0.00    +0.117 A 
ATOM     12  C   UNL     1      85.158  53.768  40.539  0.00  0.00    -0.020 A 
ATOM     13  C   UNL     1      85.289  54.071  41.899  0.00  0.00    -0.051 A 
ATOM     14  C   UNL     1      84.668  55.216  42.439  0.00  0.00    -0.025 A 
ATOM     15  C   UNL     1      83.894  56.029  41.593  0.00  0.00    -0.051 A 
ATOM     16  C   UNL     1      83.766  55.724  40.235  0.00  0.00    -0.020 A 
BRANCH  11  17
ATOM     17  O   UNL     1      84.284  54.283  38.351  0.00  0.00    -0.507 OA
ATOM     18  H   UNL     1      85.029  54.350  37.789  0.00  0.00    +0.000 HD
ENDBRANCH  11  17
ENDBRANCH   9  14
ENDBRANCH   7  10
ENDBRANCH   1   7
BRANCH   6  19
ATOM     19  O   UNL     1      82.591  57.268  47.291  0.00  0.00    -0.506 OA
ATOM     20  H   UNL     1      81.752  57.266  47.708  0.00  0.00    +0.000 HD
ENDBRANCH   6  19
BRANCH   4  21
ATOM     21  O   UNL     1      83.782  53.260  49.719  0.00  0.00    -0.503 OA
ATOM     22  H   UNL     1      84.306  52.488  49.804  0.00  0.00    +0.000 HD
ENDBRANCH   4  21
BRANCH   3  23
ATOM     23  O   UNL     1      86.210  53.091  48.241  0.00  0.00    -0.452 OA
BRANCH  23  24
ATOM     24  C   UNL     1      86.603  52.134  47.294  0.00  0.00    +0.129 A 
ATOM     25  C   UNL     1      86.965  50.827  47.662  0.00  0.00    -0.019 A 
ATOM     26  C   UNL     1      87.341  49.899  46.688  0.00  0.00    -0.051 A 
ATOM     27  C   UNL     1      87.367  50.256  45.331  0.00  0.00    -0.025 A 
ATOM     28  C   UNL     1      86.974  51.558  44.964  0.00  0.00    -0.051 A 
ATOM     29  C   UNL     1      86.592  52.485  45.940  0.00  0.00    -0.019 A 
BRANCH  27  30
ATOM     30  C   UNL     1      87.770  49.238  44.332  0.00  0.00    -0.051 C 
ATOM     31  C   UNL     1      87.063  48.965  43.226  0.00  0.00    -0.014 C 
BRANCH  31  32
ATOM     32  C   UNL     1      87.498  47.944  42.248  0.00  0.00    +0.190 C 
ATOM     33  O   UNL     1      87.860  48.297  41.091  0.00  0.00    -0.287 OA
BRANCH  32  34
ATOM     34  C   UNL     1      87.574  46.512  42.620  0.00  0.00    +0.063 A 
ATOM     35  C   UNL     1      86.397  45.839  42.989  0.00  0.00    -0.044 A 
ATOM     36  C   UNL     1      86.430  44.486  43.337  0.00  0.00    -0.019 A 
ATOM     37  C   UNL     1      87.639  43.788  43.332  0.00  0.00    +0.120 A 
ATOM     38  C   UNL     1      88.823  44.452  42.984  0.00  0.00    +0.022 A 
ATOM     39  C   UNL     1      88.800  45.812  42.639  0.00  0.00    +0.131 A 
BRANCH  39  40
ATOM     40  O   UNL     1      89.997  46.466  42.343  0.00  0.00    -0.506 OA
ATOM     41  H   UNL     1      90.463  46.256  41.558  0.00  0.00    +0.000 HD
ENDBRANCH  39  40
BRANCH  37  42
ATOM     42  O   UNL     1      87.656  42.438  43.676  0.00  0.00    -0.507 OA
ATOM     43  H   UNL     1      88.352  42.098  44.204  0.00  0.00    +0.000 HD
ENDBRANCH  37  42
ENDBRANCH  32  34
ENDBRANCH  31  32
ENDBRANCH  27  30
ENDBRANCH  23  24
ENDBRANCH   3  23
TORSDOF 13
ENDMDL
MODEL 5
REMARK VINA RESULT:   -10.143      1.843      2.508
REMARK INTER + INTRA:         -17.508
REMARK INTER:                 -15.481
REMARK INTRA:                  -2.027
REMARK UNBOUND:                -1.138
REMARK  Name = 
REMARK  13 active torsions:
REMARK  status: ('A' for Active; 'I' for Inactive)
REMARK    1  A    between atoms: O_1  and  C_2
REMARK    2  A    between atoms: C_5  and  C_8
REMARK    3  A    between atoms: C_9  and  C_10
REMARK    4  A    between atoms: C_10  and  C_12
REMARK    5  A    between atoms: C_14  and  O_15
REMARK    6  A    between atoms: O_15  and  C_16
REMARK    7  A    between atoms: C_19  and  C_22
REMARK    8  A    between atoms: C_23  and  C_24
REMARK    9  A    between atoms: C_24  and  C_26
REMARK   10  A    between atoms: C_29  and  O_33
REMARK   11  A    between atoms: C_31  and  O_32
REMARK   12  A    between atoms: C_34  and  O_38
REMARK   13  A    between atoms: C_36  and  O_37
REMARK                            x       y       z     vdW  Elec       q    Type
REMARK                         _______ _______ _______ _____ _____    ______ ____
ROOT
ATOM      1  C   UNL     1      84.685  45.972  43.375  0.00  0.00    +0.067 A 
ATOM      2  C   UNL     1      85.571  47.063  43.375  0.00  0.00    -0.001 A 
ATOM      3  C   UNL     1      86.921  46.895  43.049  0.00  0.00    +0.170 A 
ATOM      4  C   UNL     1      87.412  45.605  42.770  0.00  0.00    +0.163 A 
ATOM      5  C   UNL     1      86.539  44.512  42.782  0.00  0.00    +0.026 A 
ATOM      6  C   UNL     1      85.182  44.684  43.089  0.00  0.00    +0.131 A 
ENDROOT
BRANCH   1   7
ATOM      7  C   UNL     1      83.257  46.204  43.700  0.00  0.00    +0.190 C 
ATOM      8  O   UNL     1      82.639  45.346  44.389  0.00  0.00    -0.287 OA
BRANCH   7  10
ATOM      9  C   UNL     1      82.984  48.657  43.654  0.00  0.00    -0.051 C 
ATOM     10  C   UNL     1      82.570  47.441  43.270  0.00  0.00    -0.014 C 
BRANCH   9  14
ATOM     11  C   UNL     1      81.179  52.370  42.447  0.00  0.00    +0.117 A 
ATOM     12  C   UNL     1      80.362  51.304  42.833  0.00  0.00    -0.020 A 
ATOM     13  C   UNL     1      80.930  50.088  43.229  0.00  0.00    -0.051 A 
ATOM     14  C   UNL     1      82.331  49.921  43.234  0.00  0.00    -0.025 A 
ATOM     15  C   UNL     1      83.142  51.007  42.861  0.00  0.00    -0.051 A 
ATOM     16  C   UNL     1      82.571  52.220  42.466  0.00  0.00    -0.020 A 
BRANCH  11  17
ATOM     17  O   UNL     1      80.599  53.573  42.050  0.00  0.00    -0.507 OA
ATOM     18  H   UNL     1      81.135  54.262  41.713  0.00  0.00    +0.000 HD
ENDBRANCH  11  17
ENDBRANCH   9  14
ENDBRANCH   7  10
ENDBRANCH   1   7
BRANCH   6  19
ATOM     19  O   UNL     1      84.342  43.571  43.141  0.00  0.00    -0.506 OA
ATOM     20  H   UNL     1      83.979  43.296  43.960  0.00  0.00    +0.000 HD
ENDBRANCH   6  19
BRANCH   4  21
ATOM     21  O   UNL     1      88.769  45.412  42.512  0.00  0.00    -0.503 OA
ATOM     22  H   UNL     1      89.105  45.548  41.648  0.00  0.00    +0.000 HD
ENDBRANCH   4  21
BRANCH   3  23
ATOM     23  O   UNL     1      87.756  48.019  43.049  0.00  0.00    -0.452 OA
BRANCH  23  24
ATOM     24  C   UNL     1      87.571  49.159  43.846  0.00  0.00    +0.129 A 
ATOM     25  C   UNL     1      88.087  49.246  45.150  0.00  0.00    -0.019 A 
ATOM     26  C   UNL     1      87.889  50.402  45.910  0.00  0.00    -0.051 A 
ATOM     27  C   UNL     1      87.173  51.490  45.385  0.00  0.00    -0.025 A 
ATOM     28  C   UNL     1      86.686  51.409  44.066  0.00  0.00    -0.051 A 
ATOM     29  C   UNL     1      86.888  50.253  43.306  0.00  0.00    -0.019 A 
BRANCH  27  30
ATOM     30  C   UNL     1      86.992  52.697  46.227  0.00  0.00    -0.051 C 
ATOM     31  C   UNL     1      85.844  52.998  46.851  0.00  0.00    -0.014 C 
BRANCH  31  32
ATOM     32  C   UNL     1      85.700  54.209  47.687  0.00  0.00    +0.190 C 
ATOM     33  O   UNL     1      85.964  54.156  48.921  0.00  0.00    -0.287 OA
BRANCH  32  34
ATOM     34  C   UNL     1      85.306  55.508  47.091  0.00  0.00    +0.063 A 
ATOM     35  C   UNL     1      86.136  56.094  46.121  0.00  0.00    -0.044 A 
ATOM     36  C   UNL     1      85.791  57.313  45.532  0.00  0.00    -0.019 A 
ATOM     37  C   UNL     1      84.618  57.969  45.909  0.00  0.00    +0.120 A 
ATOM     38  C   UNL     1      83.791  57.405  46.889  0.00  0.00    +0.022 A 
ATOM     39  C   UNL     1      84.132  56.184  47.491  0.00  0.00    +0.131 A 
BRANCH  39  40
ATOM     40  O   UNL     1      83.319  55.663  48.498  0.00  0.00    -0.506 OA
ATOM     41  H   UNL     1      83.575  54.885  48.951  0.00  0.00    +0.000 HD
ENDBRANCH  39  40
BRANCH  37  42
ATOM     42  O   UNL     1      84.284  59.182  45.309  0.00  0.00    -0.507 OA
ATOM     43  H   UNL     1      83.398  59.351  45.058  0.00  0.00    +0.000 HD
ENDBRANCH  37  42
ENDBRANCH  32  34
ENDBRANCH  31  32
ENDBRANCH  27  30
ENDBRANCH  23  24
ENDBRANCH   3  23
TORSDOF 13
ENDMDL
MODEL 6
REMARK VINA RESULT:   -10.045      2.344      3.389
REMARK INTER + INTRA:         -17.349
REMARK INTER:                 -14.973
REMARK INTRA:                  -2.376
REMARK UNBOUND:                -1.138
REMARK  Name = 
REMARK  13 active torsions:
REMARK  status: ('A' for Active; 'I' for Inactive)
REMARK    1  A    between atoms: O_1  and  C_2
REMARK    2  A    between atoms: C_5  and  C_8
REMARK    3  A    between atoms: C_9  and  C_10
REMARK    4  A    between atoms: C_10  and  C_12
REMARK    5  A    between atoms: C_14  and  O_15
REMARK    6  A    between atoms: O_15  and  C_16
REMARK    7  A    between atoms: C_19  and  C_22
REMARK    8  A    between atoms: C_23  and  C_24
REMARK    9  A    between atoms: C_24  and  C_26
REMARK   10  A    between atoms: C_29  and  O_33
REMARK   11  A    between atoms: C_31  and  O_32
REMARK   12  A    between atoms: C_34  and  O_38
REMARK   13  A    between atoms: C_36  and  O_37
REMARK                            x       y       z     vdW  Elec       q    Type
REMARK                         _______ _______ _______ _____ _____    ______ ____
ROOT
ATOM      1  C   UNL     1      85.094  45.891  43.596  0.00  0.00    +0.067 A 
ATOM      2  C   UNL     1      86.033  46.899  43.319  0.00  0.00    -0.001 A 
ATOM      3  C   UNL     1      87.347  46.580  42.962  0.00  0.00    +0.170 A 
ATOM      4  C   UNL     1      87.752  45.232  42.933  0.00  0.00    +0.163 A 
ATOM      5  C   UNL     1      86.825  44.223  43.222  0.00  0.00    +0.026 A 
ATOM      6  C   UNL     1      85.503  44.542  43.560  0.00  0.00    +0.131 A 
ENDROOT
BRANCH   1   7
ATOM      7  C   UNL     1      83.705  46.277  43.943  0.00  0.00    +0.190 C 
ATOM      8  O   UNL     1      83.060  45.568  44.763  0.00  0.00    -0.287 OA
BRANCH   7  10
ATOM      9  C   UNL     1      83.159  48.684  44.007  0.00  0.00    -0.051 C 
ATOM     10  C   UNL     1      83.092  47.500  43.382  0.00  0.00    -0.014 C 
BRANCH   9  14
ATOM     11  C   UNL     1      81.370  52.258  42.418  0.00  0.00    +0.117 A 
ATOM     12  C   UNL     1      82.731  52.254  42.733  0.00  0.00    -0.020 A 
ATOM     13  C   UNL     1      83.332  51.102  43.251  0.00  0.00    -0.051 A 
ATOM     14  C   UNL     1      82.570  49.935  43.470  0.00  0.00    -0.025 A 
ATOM     15  C   UNL     1      81.206  49.945  43.132  0.00  0.00    -0.051 A 
ATOM     16  C   UNL     1      80.608  51.099  42.615  0.00  0.00    -0.020 A 
BRANCH  11  17
ATOM     17  O   UNL     1      80.784  53.414  41.908  0.00  0.00    -0.507 OA
ATOM     18  H   UNL     1      80.872  54.225  42.368  0.00  0.00    +0.000 HD
ENDBRANCH  11  17
ENDBRANCH   9  14
ENDBRANCH   7  10
ENDBRANCH   1   7
BRANCH   6  19
ATOM     19  O   UNL     1      84.612  43.521  43.890  0.00  0.00    -0.506 OA
ATOM     20  H   UNL     1      84.935  42.669  44.110  0.00  0.00    +0.000 HD
ENDBRANCH   6  19
BRANCH   4  21
ATOM     21  O   UNL     1      89.076  44.902  42.647  0.00  0.00    -0.503 OA
ATOM     22  H   UNL     1      89.591  44.443  43.280  0.00  0.00    +0.000 HD
ENDBRANCH   4  21
BRANCH   3  23
ATOM     23  O   UNL     1      88.239  47.624  42.681  0.00  0.00    -0.452 OA
BRANCH  23  24
ATOM     24  C   UNL     1      87.888  48.980  42.601  0.00  0.00    +0.129 A 
ATOM     25  C   UNL     1      87.788  49.652  41.370  0.00  0.00    -0.019 A 
ATOM     26  C   UNL     1      87.427  51.001  41.332  0.00  0.00    -0.051 A 
ATOM     27  C   UNL     1      87.161  51.705  42.516  0.00  0.00    -0.025 A 
ATOM     28  C   UNL     1      87.232  51.019  43.745  0.00  0.00    -0.051 A 
ATOM     29  C   UNL     1      87.589  49.667  43.781  0.00  0.00    -0.019 A 
BRANCH  27  30
ATOM     30  C   UNL     1      86.778  53.135  42.426  0.00  0.00    -0.051 C 
ATOM     31  C   UNL     1      85.939  53.732  43.285  0.00  0.00    -0.014 C 
BRANCH  31  32
ATOM     32  C   UNL     1      85.583  55.162  43.167  0.00  0.00    +0.190 C 
ATOM     33  O   UNL     1      85.654  55.737  42.045  0.00  0.00    -0.287 OA
BRANCH  32  34
ATOM     34  C   UNL     1      85.084  55.925  44.336  0.00  0.00    +0.063 A 
ATOM     35  C   UNL     1      84.671  55.225  45.482  0.00  0.00    -0.044 A 
ATOM     36  C   UNL     1      84.203  55.912  46.605  0.00  0.00    -0.019 A 
ATOM     37  C   UNL     1      84.131  57.306  46.597  0.00  0.00    +0.120 A 
ATOM     38  C   UNL     1      84.522  58.016  45.454  0.00  0.00    +0.022 A 
ATOM     39  C   UNL     1      84.987  57.334  44.319  0.00  0.00    +0.131 A 
BRANCH  39  40
ATOM     40  O   UNL     1      85.325  58.056  43.174  0.00  0.00    -0.506 OA
ATOM     41  H   UNL     1      85.975  57.725  42.586  0.00  0.00    +0.000 HD
ENDBRANCH  39  40
BRANCH  37  42
ATOM     42  O   UNL     1      83.668  57.978  47.726  0.00  0.00    -0.507 OA
ATOM     43  H   UNL     1      83.709  58.913  47.764  0.00  0.00    +0.000 HD
ENDBRANCH  37  42
ENDBRANCH  32  34
ENDBRANCH  31  32
ENDBRANCH  27  30
ENDBRANCH  23  24
ENDBRANCH   3  23
TORSDOF 13
ENDMDL
MODEL 7
REMARK VINA RESULT:    -9.728      2.761      4.737
REMARK INTER + INTRA:         -16.838
REMARK INTER:                 -14.405
REMARK INTRA:                  -2.433
REMARK UNBOUND:                -1.138
REMARK  Name = 
REMARK  13 active torsions:
REMARK  status: ('A' for Active; 'I' for Inactive)
REMARK    1  A    between atoms: O_1  and  C_2
REMARK    2  A    between atoms: C_5  and  C_8
REMARK    3  A    between atoms: C_9  and  C_10
REMARK    4  A    between atoms: C_10  and  C_12
REMARK    5  A    between atoms: C_14  and  O_15
REMARK    6  A    between atoms: O_15  and  C_16
REMARK    7  A    between atoms: C_19  and  C_22
REMARK    8  A    between atoms: C_23  and  C_24
REMARK    9  A    between atoms: C_24  and  C_26
REMARK   10  A    between atoms: C_29  and  O_33
REMARK   11  A    between atoms: C_31  and  O_32
REMARK   12  A    between atoms: C_34  and  O_38
REMARK   13  A    between atoms: C_36  and  O_37
REMARK                            x       y       z     vdW  Elec       q    Type
REMARK                         _______ _______ _______ _____ _____    ______ ____
ROOT
ATOM      1  C   UNL     1      82.587  47.474  43.848  0.00  0.00    +0.067 A 
ATOM      2  C   UNL     1      83.878  48.021  43.954  0.00  0.00    -0.001 A 
ATOM      3  C   UNL     1      85.000  47.197  44.093  0.00  0.00    +0.170 A 
ATOM      4  C   UNL     1      84.831  45.803  44.184  0.00  0.00    +0.163 A 
ATOM      5  C   UNL     1      83.547  45.251  44.093  0.00  0.00    +0.026 A 
ATOM      6  C   UNL     1      82.425  46.076  43.934  0.00  0.00    +0.131 A 
ENDROOT
BRANCH   1   7
ATOM      7  C   UNL     1      81.431  48.385  43.674  0.00  0.00    +0.190 C 
ATOM      8  O   UNL     1      80.339  48.103  44.239  0.00  0.00    -0.287 OA
BRANCH   7  10
ATOM      9  C   UNL     1      82.425  50.602  43.229  0.00  0.00    -0.051 C 
ATOM     10  C   UNL     1      81.558  49.635  42.893  0.00  0.00    -0.014 C 
BRANCH   9  14
ATOM     11  C   UNL     1      83.006  54.255  41.035  0.00  0.00    +0.117 A 
ATOM     12  C   UNL     1      81.712  53.867  41.391  0.00  0.00    -0.020 A 
ATOM     13  C   UNL     1      81.501  52.683  42.105  0.00  0.00    -0.051 A 
ATOM     14  C   UNL     1      82.591  51.862  42.464  0.00  0.00    -0.025 A 
ATOM     15  C   UNL     1      83.889  52.271  42.116  0.00  0.00    -0.051 A 
ATOM     16  C   UNL     1      84.096  53.456  41.403  0.00  0.00    -0.020 A 
BRANCH  11  17
ATOM     17  O   UNL     1      83.199  55.435  40.320  0.00  0.00    -0.507 OA
ATOM     18  H   UNL     1      82.533  55.745  39.740  0.00  0.00    +0.000 HD
ENDBRANCH  11  17
ENDBRANCH   9  14
ENDBRANCH   7  10
ENDBRANCH   1   7
BRANCH   6  19
ATOM     19  O   UNL     1      81.152  45.506  43.894  0.00  0.00    -0.506 OA
ATOM     20  H   UNL     1      80.567  45.613  44.619  0.00  0.00    +0.000 HD
ENDBRANCH   6  19
BRANCH   4  21
ATOM     21  O   UNL     1      85.932  44.974  44.392  0.00  0.00    -0.503 OA
ATOM     22  H   UNL     1      85.888  44.068  44.159  0.00  0.00    +0.000 HD
ENDBRANCH   4  21
BRANCH   3  23
ATOM     23  O   UNL     1      86.264  47.794  44.178  0.00  0.00    -0.452 OA
BRANCH  23  24
ATOM     24  C   UNL     1      86.495  49.164  44.377  0.00  0.00    +0.129 A 
ATOM     25  C   UNL     1      86.848  50.020  43.320  0.00  0.00    -0.019 A 
ATOM     26  C   UNL     1      87.060  51.381  43.556  0.00  0.00    -0.051 A 
ATOM     27  C   UNL     1      86.925  51.912  44.848  0.00  0.00    -0.025 A 
ATOM     28  C   UNL     1      86.540  51.056  45.898  0.00  0.00    -0.051 A 
ATOM     29  C   UNL     1      86.324  49.695  45.659  0.00  0.00    -0.019 A 
BRANCH  27  30
ATOM     30  C   UNL     1      87.156  53.363  45.050  0.00  0.00    -0.051 C 
ATOM     31  C   UNL     1      86.442  54.318  44.439  0.00  0.00    -0.014 C 
BRANCH  31  32
ATOM     32  C   UNL     1      86.697  55.757  44.668  0.00  0.00    +0.190 C 
ATOM     33  O   UNL     1      87.749  56.288  44.216  0.00  0.00    -0.287 OA
BRANCH  32  34
ATOM     34  C   UNL     1      85.707  56.606  45.372  0.00  0.00    +0.063 A 
ATOM     35  C   UNL     1      85.035  56.088  46.491  0.00  0.00    -0.044 A 
ATOM     36  C   UNL     1      84.102  56.864  47.184  0.00  0.00    -0.019 A 
ATOM     37  C   UNL     1      83.819  58.164  46.763  0.00  0.00    +0.120 A 
ATOM     38  C   UNL     1      84.468  58.688  45.638  0.00  0.00    +0.022 A 
ATOM     39  C   UNL     1      85.401  57.913  44.932  0.00  0.00    +0.131 A 
BRANCH  39  40
ATOM     40  O   UNL     1      86.001  58.436  43.785  0.00  0.00    -0.506 OA
ATOM     41  H   UNL     1      85.478  58.643  43.035  0.00  0.00    +0.000 HD
ENDBRANCH  39  40
BRANCH  37  42
ATOM     42  O   UNL     1      82.890  58.928  47.467  0.00  0.00    -0.507 OA
ATOM     43  H   UNL     1      82.743  58.764  48.377  0.00  0.00    +0.000 HD
ENDBRANCH  37  42
ENDBRANCH  32  34
ENDBRANCH  31  32
ENDBRANCH  27  30
ENDBRANCH  23  24
ENDBRANCH   3  23
TORSDOF 13
ENDMDL
MODEL 8
REMARK VINA RESULT:    -9.719      2.500      5.636
REMARK INTER + INTRA:         -16.823
REMARK INTER:                 -14.999
REMARK INTRA:                  -1.824
REMARK UNBOUND:                -1.138
REMARK  Name = 
REMARK  13 active torsions:
REMARK  status: ('A' for Active; 'I' for Inactive)
REMARK    1  A    between atoms: O_1  and  C_2
REMARK    2  A    between atoms: C_5  and  C_8
REMARK    3  A    between atoms: C_9  and  C_10
REMARK    4  A    between atoms: C_10  and  C_12
REMARK    5  A    between atoms: C_14  and  O_15
REMARK    6  A    between atoms: O_15  and  C_16
REMARK    7  A    between atoms: C_19  and  C_22
REMARK    8  A    between atoms: C_23  and  C_24
REMARK    9  A    between atoms: C_24  and  C_26
REMARK   10  A    between atoms: C_29  and  O_33
REMARK   11  A    between atoms: C_31  and  O_32
REMARK   12  A    between atoms: C_34  and  O_38
REMARK   13  A    between atoms: C_36  and  O_37
REMARK                            x       y       z     vdW  Elec       q    Type
REMARK                         _______ _______ _______ _____ _____    ______ ____
ROOT
ATOM      1  C   UNL     1      86.739  46.110  43.028  0.00  0.00    +0.067 A 
ATOM      2  C   UNL     1      85.760  47.060  43.365  0.00  0.00    -0.001 A 
ATOM      3  C   UNL     1      84.518  46.666  43.873  0.00  0.00    +0.170 A 
ATOM      4  C   UNL     1      84.222  45.295  43.997  0.00  0.00    +0.163 A 
ATOM      5  C   UNL     1      85.187  44.342  43.650  0.00  0.00    +0.026 A 
ATOM      6  C   UNL     1      86.438  44.739  43.160  0.00  0.00    +0.131 A 
ENDROOT
BRANCH   1   7
ATOM      7  C   UNL     1      88.050  46.576  42.519  0.00  0.00    +0.190 C 
ATOM      8  O   UNL     1      89.087  45.913  42.798  0.00  0.00    -0.287 OA
BRANCH   7  10
ATOM      9  C   UNL     1      88.135  49.017  42.153  0.00  0.00    -0.051 C 
ATOM     10  C   UNL     1      88.150  47.773  41.654  0.00  0.00    -0.014 C 
BRANCH   9  14
ATOM     11  C   UNL     1      88.558  52.551  39.737  0.00  0.00    +0.117 A 
ATOM     12  C   UNL     1      87.366  52.333  40.433  0.00  0.00    -0.020 A 
ATOM     13  C   UNL     1      87.208  51.191  41.223  0.00  0.00    -0.051 A 
ATOM     14  C   UNL     1      88.246  50.240  41.321  0.00  0.00    -0.025 A 
ATOM     15  C   UNL     1      89.447  50.478  40.631  0.00  0.00    -0.051 A 
ATOM     16  C   UNL     1      89.601  51.621  39.841  0.00  0.00    -0.020 A 
BRANCH  11  17
ATOM     17  O   UNL     1      88.698  53.691  38.949  0.00  0.00    -0.507 OA
ATOM     18  H   UNL     1      87.958  54.238  38.783  0.00  0.00    +0.000 HD
ENDBRANCH  11  17
ENDBRANCH   9  14
ENDBRANCH   7  10
ENDBRANCH   1   7
BRANCH   6  19
ATOM     19  O   UNL     1      87.365  43.769  42.776  0.00  0.00    -0.506 OA
ATOM     20  H   UNL     1      87.298  42.897  43.112  0.00  0.00    +0.000 HD
ENDBRANCH   6  19
BRANCH   4  21
ATOM     21  O   UNL     1      82.964  44.886  44.437  0.00  0.00    -0.503 OA
ATOM     22  H   UNL     1      82.595  45.258  45.213  0.00  0.00    +0.000 HD
ENDBRANCH   4  21
BRANCH   3  23
ATOM     23  O   UNL     1      83.585  47.656  44.208  0.00  0.00    -0.452 OA
BRANCH  23  24
ATOM     24  C   UNL     1      83.785  49.035  44.050  0.00  0.00    +0.129 A 
ATOM     25  C   UNL     1      82.831  49.859  43.427  0.00  0.00    -0.019 A 
ATOM     26  C   UNL     1      83.063  51.230  43.297  0.00  0.00    -0.051 A 
ATOM     27  C   UNL     1      84.247  51.806  43.784  0.00  0.00    -0.025 A 
ATOM     28  C   UNL     1      85.185  50.982  44.436  0.00  0.00    -0.051 A 
ATOM     29  C   UNL     1      84.950  49.609  44.569  0.00  0.00    -0.019 A 
BRANCH  27  30
ATOM     30  C   UNL     1      84.448  53.267  43.627  0.00  0.00    -0.051 C 
ATOM     31  C   UNL     1      85.497  53.929  44.136  0.00  0.00    -0.014 C 
BRANCH  31  32
ATOM     32  C   UNL     1      85.667  55.386  43.956  0.00  0.00    +0.190 C 
ATOM     33  O   UNL     1      86.296  55.826  42.953  0.00  0.00    -0.287 OA
BRANCH  32  34
ATOM     34  C   UNL     1      85.060  56.351  44.904  0.00  0.00    +0.063 A 
ATOM     35  C   UNL     1      84.485  55.870  46.092  0.00  0.00    -0.044 A 
ATOM     36  C   UNL     1      83.912  56.751  47.013  0.00  0.00    -0.019 A 
ATOM     37  C   UNL     1      83.895  58.123  46.756  0.00  0.00    +0.120 A 
ATOM     38  C   UNL     1      84.448  58.614  45.566  0.00  0.00    +0.022 A 
ATOM     39  C   UNL     1      85.021  57.736  44.633  0.00  0.00    +0.131 A 
BRANCH  39  40
ATOM     40  O   UNL     1      85.523  58.241  43.433  0.00  0.00    -0.506 OA
ATOM     41  H   UNL     1      85.835  57.654  42.772  0.00  0.00    +0.000 HD
ENDBRANCH  39  40
BRANCH  37  42
ATOM     42  O   UNL     1      83.325  58.991  47.685  0.00  0.00    -0.507 OA
ATOM     43  H   UNL     1      83.799  59.746  47.972  0.00  0.00    +0.000 HD
ENDBRANCH  37  42
ENDBRANCH  32  34
ENDBRANCH  31  32
ENDBRANCH  27  30
ENDBRANCH  23  24
ENDBRANCH   3  23
TORSDOF 13
ENDMDL
MODEL 9
REMARK VINA RESULT:    -8.416      1.684      2.608
REMARK INTER + INTRA:         -14.721
REMARK INTER:                 -13.582
REMARK INTRA:                  -1.138
REMARK UNBOUND:                -1.138
REMARK  Name = 
REMARK  13 active torsions:
REMARK  status: ('A' for Active; 'I' for Inactive)
REMARK    1  A    between atoms: O_1  and  C_2
REMARK    2  A    between atoms: C_5  and  C_8
REMARK    3  A    between atoms: C_9  and  C_10
REMARK    4  A    between atoms: C_10  and  C_12
REMARK    5  A    between atoms: C_14  and  O_15
REMARK    6  A    between atoms: O_15  and  C_16
REMARK    7  A    between atoms: C_19  and  C_22
REMARK    8  A    between atoms: C_23  and  C_24
REMARK    9  A    between atoms: C_24  and  C_26
REMARK   10  A    between atoms: C_29  and  O_33
REMARK   11  A    between atoms: C_31  and  O_32
REMARK   12  A    between atoms: C_34  and  O_38
REMARK   13  A    between atoms: C_36  and  O_37
REMARK                            x       y       z     vdW  Elec       q    Type
REMARK                         _______ _______ _______ _____ _____    ______ ____
ROOT
ATOM      1  C   UNL     1      87.558  45.070  42.722  0.00  0.00    +0.067 A 
ATOM      2  C   UNL     1      87.820  46.335  42.169  0.00  0.00    -0.001 A 
ATOM      3  C   UNL     1      89.070  46.944  42.322  0.00  0.00    +0.170 A 
ATOM      4  C   UNL     1      90.064  46.306  43.088  0.00  0.00    +0.163 A 
ATOM      5  C   UNL     1      89.806  45.052  43.654  0.00  0.00    +0.026 A 
ATOM      6  C   UNL     1      88.560  44.433  43.483  0.00  0.00    +0.131 A 
ENDROOT
BRANCH   1   7
ATOM      7  C   UNL     1      86.228  44.452  42.510  0.00  0.00    +0.190 C 
ATOM      8  O   UNL     1      86.164  43.273  42.065  0.00  0.00    -0.287 OA
BRANCH   7  10
ATOM      9  C   UNL     1      84.995  46.465  43.232  0.00  0.00    -0.051 C 
ATOM     10  C   UNL     1      84.987  45.178  42.858  0.00  0.00    -0.014 C 
BRANCH   9  14
ATOM     11  C   UNL     1      81.507  48.759  44.270  0.00  0.00    +0.117 A 
ATOM     12  C   UNL     1      81.365  47.412  43.925  0.00  0.00    -0.020 A 
ATOM     13  C   UNL     1      82.487  46.649  43.585  0.00  0.00    -0.051 A 
ATOM     14  C   UNL     1      83.772  47.232  43.576  0.00  0.00    -0.025 A 
ATOM     15  C   UNL     1      83.904  48.582  43.941  0.00  0.00    -0.051 A 
ATOM     16  C   UNL     1      82.781  49.342  44.281  0.00  0.00    -0.020 A 
BRANCH  11  17
ATOM     17  O   UNL     1      80.380  49.507  44.601  0.00  0.00    -0.507 OA
ATOM     18  H   UNL     1      79.662  49.101  45.043  0.00  0.00    +0.000 HD
ENDBRANCH  11  17
ENDBRANCH   9  14
ENDBRANCH   7  10
ENDBRANCH   1   7
BRANCH   6  19
ATOM     19  O   UNL     1      88.312  43.205  44.098  0.00  0.00    -0.506 OA
ATOM     20  H   UNL     1      88.964  42.815  44.647  0.00  0.00    +0.000 HD
ENDBRANCH   6  19
BRANCH   4  21
ATOM     21  O   UNL     1      91.290  46.931  43.307  0.00  0.00    -0.503 OA
ATOM     22  H   UNL     1      91.681  46.911  44.158  0.00  0.00    +0.000 HD
ENDBRANCH   4  21
BRANCH   3  23
ATOM     23  O   UNL     1      89.282  48.198  41.736  0.00  0.00    -0.452 OA
BRANCH  23  24
ATOM     24  C   UNL     1      88.720  49.402  42.188  0.00  0.00    +0.129 A 
ATOM     25  C   UNL     1      88.153  50.336  41.305  0.00  0.00    -0.019 A 
ATOM     26  C   UNL     1      87.594  51.520  41.795  0.00  0.00    -0.051 A 
ATOM     27  C   UNL     1      87.592  51.794  43.171  0.00  0.00    -0.025 A 
ATOM     28  C   UNL     1      88.133  50.840  44.055  0.00  0.00    -0.051 A 
ATOM     29  C   UNL     1      88.688  49.654  43.563  0.00  0.00    -0.019 A 
BRANCH  27  30
ATOM     30  C   UNL     1      86.985  53.061  43.645  0.00  0.00    -0.051 C 
ATOM     31  C   UNL     1      86.205  53.839  42.882  0.00  0.00    -0.014 C 
BRANCH  31  32
ATOM     32  C   UNL     1      85.611  55.094  43.390  0.00  0.00    +0.190 C 
ATOM     33  O   UNL     1      85.421  56.063  42.602  0.00  0.00    -0.287 OA
BRANCH  32  34
ATOM     34  C   UNL     1      85.179  55.220  44.802  0.00  0.00    +0.063 A 
ATOM     35  C   UNL     1      85.582  56.344  45.542  0.00  0.00    -0.044 A 
ATOM     36  C   UNL     1      85.185  56.499  46.873  0.00  0.00    -0.019 A 
ATOM     37  C   UNL     1      84.390  55.530  47.487  0.00  0.00    +0.120 A 
ATOM     38  C   UNL     1      83.996  54.395  46.766  0.00  0.00    +0.022 A 
ATOM     39  C   UNL     1      84.395  54.228  45.431  0.00  0.00    +0.131 A 
BRANCH  39  40
ATOM     40  O   UNL     1      84.032  53.067  44.746  0.00  0.00    -0.506 OA
ATOM     41  H   UNL     1      84.593  52.318  44.764  0.00  0.00    +0.000 HD
ENDBRANCH  39  40
BRANCH  37  42
ATOM     42  O   UNL     1      83.997  55.700  48.813  0.00  0.00    -0.507 OA
ATOM     43  H   UNL     1      83.870  54.953  49.363  0.00  0.00    +0.000 HD
ENDBRANCH  37  42
ENDBRANCH  32  34
ENDBRANCH  31  32
ENDBRANCH  27  30
ENDBRANCH  23  24
ENDBRANCH   3  23
TORSDOF 13
ENDMDL
