MODEL 1
REMARK VINA RESULT:    -7.190      0.000      0.000
REMARK INTER + INTRA:          -9.954
REMARK INTER:                  -9.311
REMARK INTRA:                  -0.643
REMARK UNBOUND:                -0.663
REMARK  Name = 
REMARK  6 active torsions:
REMARK  status: ('A' for Active; 'I' for Inactive)
REMARK    1  A    between atoms: O_1  and  C_2
REMARK    2  A    between atoms: C_5  and  O_18
REMARK    3  A    between atoms: C_6  and  C_8
REMARK    4  A    between atoms: C_8  and  O_9
REMARK    5  A    between atoms: O_9  and  C_10
REMARK    6  A    between atoms: C_10  and  C_12
REMARK                            x       y       z     vdW  Elec       q    Type
REMARK                         _______ _______ _______ _____ _____    ______ ____
ROOT
ATOM      1  C   UNL     1      84.116  56.491  46.576  0.00  0.00    +0.117 A 
ATOM      2  C   UNL     1      84.313  57.876  46.603  0.00  0.00    -0.017 A 
ATOM      3  C   UNL     1      84.906  58.521  45.516  0.00  0.00    -0.016 A 
ATOM      4  C   UNL     1      85.306  57.793  44.389  0.00  0.00    +0.123 A 
ATOM      5  C   UNL     1      85.106  56.392  44.352  0.00  0.00    +0.035 A 
ATOM      6  C   UNL     1      84.512  55.755  45.456  0.00  0.00    -0.010 A 
ENDROOT
BRANCH   1   7
ATOM      7  O   UNL     1      83.529  55.837  47.656  0.00  0.00    -0.507 OA
ATOM      8  H   UNL     1      83.959  55.103  48.049  0.00  0.00    +0.000 HD
ENDBRANCH   1   7
BRANCH   4   9
ATOM      9  O   UNL     1      85.898  58.487  43.332  0.00  0.00    -0.506 OA
ATOM     10  H   UNL     1      85.793  58.181  42.453  0.00  0.00    +0.000 HD
ENDBRANCH   4   9
BRANCH   5  11
ATOM     11  C   UNL     1      85.537  55.565  43.165  0.00  0.00    +0.121 C 
BRANCH  11  12
ATOM     12  O   UNL     1      84.964  56.079  41.965  0.00  0.00    -0.456 OA
BRANCH  12  13
ATOM     13  C   UNL     1      84.502  55.267  40.921  0.00  0.00    +0.339 C 
ATOM     14  O   UNL     1      84.891  55.475  39.739  0.00  0.00    -0.245 OA
BRANCH  13  15
ATOM     15  C   UNL     1      83.557  54.167  41.210  0.00  0.00    +0.059 A 
ATOM     16  C   UNL     1      84.030  52.882  41.542  0.00  0.00    -0.048 A 
ATOM     17  C   UNL     1      83.130  51.846  41.812  0.00  0.00    -0.061 A 
ATOM     18  C   UNL     1      81.754  52.079  41.753  0.00  0.00    -0.062 A 
ATOM     19  C   UNL     1      81.274  53.348  41.424  0.00  0.00    -0.061 A 
ATOM     20  C   UNL     1      82.169  54.388  41.153  0.00  0.00    -0.048 A 
ENDBRANCH  13  15
ENDBRANCH  12  13
ENDBRANCH  11  12
ENDBRANCH   5  11
TORSDOF 6
ENDMDL
MODEL 2
REMARK VINA RESULT:    -7.095      3.975      5.880
REMARK INTER + INTRA:          -9.832
REMARK INTER:                  -9.300
REMARK INTRA:                  -0.532
REMARK UNBOUND:                -0.663
REMARK  Name = 
REMARK  6 active torsions:
REMARK  status: ('A' for Active; 'I' for Inactive)
REMARK    1  A    between atoms: O_1  and  C_2
REMARK    2  A    between atoms: C_5  and  O_18
REMARK    3  A    between atoms: C_6  and  C_8
REMARK    4  A    between atoms: C_8  and  O_9
REMARK    5  A    between atoms: O_9  and  C_10
REMARK    6  A    between atoms: C_10  and  C_12
REMARK                            x       y       z     vdW  Elec       q    Type
REMARK                         _______ _______ _______ _____ _____    ______ ____
ROOT
ATOM      1  C   UNL     1      86.466  56.546  44.598  0.00  0.00    +0.117 A 
ATOM      2  C   UNL     1      85.941  57.809  44.305  0.00  0.00    -0.017 A 
ATOM      3  C   UNL     1      84.892  58.326  45.067  0.00  0.00    -0.016 A 
ATOM      4  C   UNL     1      84.356  57.591  46.130  0.00  0.00    +0.123 A 
ATOM      5  C   UNL     1      84.885  56.314  46.437  0.00  0.00    +0.035 A 
ATOM      6  C   UNL     1      85.939  55.804  45.659  0.00  0.00    -0.010 A 
ENDROOT
BRANCH   1   7
ATOM      7  O   UNL     1      87.511  56.019  43.843  0.00  0.00    -0.507 OA
ATOM      8  H   UNL     1      88.391  56.297  44.003  0.00  0.00    +0.000 HD
ENDBRANCH   1   7
BRANCH   4   9
ATOM      9  O   UNL     1      83.304  58.153  46.856  0.00  0.00    -0.506 OA
ATOM     10  H   UNL     1      83.362  59.039  47.156  0.00  0.00    +0.000 HD
ENDBRANCH   4   9
BRANCH   5  11
ATOM     11  C   UNL     1      84.327  55.480  47.564  0.00  0.00    +0.121 C 
BRANCH  11  12
ATOM     12  O   UNL     1      84.335  54.098  47.213  0.00  0.00    -0.456 OA
BRANCH  12  13
ATOM     13  C   UNL     1      84.823  53.090  48.054  0.00  0.00    +0.339 C 
ATOM     14  O   UNL     1      84.340  52.943  49.211  0.00  0.00    -0.245 OA
BRANCH  13  15
ATOM     15  C   UNL     1      85.904  52.199  47.582  0.00  0.00    +0.059 A 
ATOM     16  C   UNL     1      86.385  51.157  48.398  0.00  0.00    -0.048 A 
ATOM     17  C   UNL     1      87.410  50.319  47.945  0.00  0.00    -0.061 A 
ATOM     18  C   UNL     1      87.964  50.512  46.677  0.00  0.00    -0.062 A 
ATOM     19  C   UNL     1      87.495  51.542  45.860  0.00  0.00    -0.061 A 
ATOM     20  C   UNL     1      86.471  52.383  46.308  0.00  0.00    -0.048 A 
ENDBRANCH  13  15
ENDBRANCH  12  13
ENDBRANCH  11  12
ENDBRANCH   5  11
TORSDOF 6
ENDMDL
MODEL 3
REMARK VINA RESULT:    -7.056      7.048      9.690
REMARK INTER + INTRA:          -9.782
REMARK INTER:                  -9.063
REMARK INTRA:                  -0.719
REMARK UNBOUND:                -0.663
REMARK  Name = 
REMARK  6 active torsions:
REMARK  status: ('A' for Active; 'I' for Inactive)
REMARK    1  A    between atoms: O_1  and  C_2
REMARK    2  A    between atoms: C_5  and  O_18
REMARK    3  A    between atoms: C_6  and  C_8
REMARK    4  A    between atoms: C_8  and  O_9
REMARK    5  A    between atoms: O_9  and  C_10
REMARK    6  A    between atoms: C_10  and  C_12
REMARK                            x       y       z     vdW  Elec       q    Type
REMARK                         _______ _______ _______ _____ _____    ______ ____
ROOT
ATOM      1  C   UNL     1      81.016  50.328  42.698  0.00  0.00    +0.117 A 
ATOM      2  C   UNL     1      79.964  49.559  43.207  0.00  0.00    -0.017 A 
ATOM      3  C   UNL     1      80.229  48.350  43.854  0.00  0.00    -0.016 A 
ATOM      4  C   UNL     1      81.545  47.896  44.003  0.00  0.00    +0.123 A 
ATOM      5  C   UNL     1      82.615  48.670  43.495  0.00  0.00    +0.035 A 
ATOM      6  C   UNL     1      82.334  49.883  42.842  0.00  0.00    -0.010 A 
ENDROOT
BRANCH   1   7
ATOM      7  O   UNL     1      80.763  51.533  42.048  0.00  0.00    -0.507 OA
ATOM      8  H   UNL     1      81.466  52.003  41.644  0.00  0.00    +0.000 HD
ENDBRANCH   1   7
BRANCH   4   9
ATOM      9  O   UNL     1      81.753  46.678  44.654  0.00  0.00    -0.506 OA
ATOM     10  H   UNL     1      81.020  46.160  44.923  0.00  0.00    +0.000 HD
ENDBRANCH   4   9
BRANCH   5  11
ATOM     11  C   UNL     1      84.048  48.212  43.617  0.00  0.00    +0.121 C 
BRANCH  11  12
ATOM     12  O   UNL     1      84.167  46.841  43.246  0.00  0.00    -0.456 OA
BRANCH  12  13
ATOM     13  C   UNL     1      84.876  45.896  43.997  0.00  0.00    +0.339 C 
ATOM     14  O   UNL     1      84.402  45.470  45.087  0.00  0.00    -0.245 OA
BRANCH  13  15
ATOM     15  C   UNL     1      86.181  45.400  43.510  0.00  0.00    +0.059 A 
ATOM     16  C   UNL     1      86.955  46.168  42.619  0.00  0.00    -0.048 A 
ATOM     17  C   UNL     1      88.188  45.691  42.161  0.00  0.00    -0.061 A 
ATOM     18  C   UNL     1      88.658  44.446  42.584  0.00  0.00    -0.062 A 
ATOM     19  C   UNL     1      87.899  43.675  43.467  0.00  0.00    -0.061 A 
ATOM     20  C   UNL     1      86.666  44.147  43.928  0.00  0.00    -0.048 A 
ENDBRANCH  13  15
ENDBRANCH  12  13
ENDBRANCH  11  12
ENDBRANCH   5  11
TORSDOF 6
ENDMDL
MODEL 4
REMARK VINA RESULT:    -7.034      7.632     10.083
REMARK INTER + INTRA:          -9.753
REMARK INTER:                  -8.996
REMARK INTRA:                  -0.758
REMARK UNBOUND:                -0.663
REMARK  Name = 
REMARK  6 active torsions:
REMARK  status: ('A' for Active; 'I' for Inactive)
REMARK    1  A    between atoms: O_1  and  C_2
REMARK    2  A    between atoms: C_5  and  O_18
REMARK    3  A    between atoms: C_6  and  C_8
REMARK    4  A    between atoms: C_8  and  O_9
REMARK    5  A    between atoms: O_9  and  C_10
REMARK    6  A    between atoms: C_10  and  C_12
REMARK                            x       y       z     vdW  Elec       q    Type
REMARK                         _______ _______ _______ _____ _____    ______ ____
ROOT
ATOM      1  C   UNL     1      79.402  47.301  44.069  0.00  0.00    +0.117 A 
ATOM      2  C   UNL     1      79.588  48.687  44.026  0.00  0.00    -0.017 A 
ATOM      3  C   UNL     1      80.853  49.215  43.760  0.00  0.00    -0.016 A 
ATOM      4  C   UNL     1      81.944  48.369  43.532  0.00  0.00    +0.123 A 
ATOM      5  C   UNL     1      81.763  46.966  43.569  0.00  0.00    +0.035 A 
ATOM      6  C   UNL     1      80.485  46.447  43.842  0.00  0.00    -0.010 A 
ENDROOT
BRANCH   1   7
ATOM      7  O   UNL     1      78.146  46.763  44.337  0.00  0.00    -0.507 OA
ATOM      8  H   UNL     1      78.049  45.839  44.465  0.00  0.00    +0.000 HD
ENDBRANCH   1   7
BRANCH   4   9
ATOM      9  O   UNL     1      83.187  48.951  43.276  0.00  0.00    -0.506 OA
ATOM     10  H   UNL     1      83.305  49.490  42.518  0.00  0.00    +0.000 HD
ENDBRANCH   4   9
BRANCH   5  11
ATOM     11  C   UNL     1      82.914  46.016  43.346  0.00  0.00    +0.121 C 
BRANCH  11  12
ATOM     12  O   UNL     1      83.866  46.129  44.401  0.00  0.00    -0.456 OA
BRANCH  12  13
ATOM     13  C   UNL     1      85.204  46.489  44.197  0.00  0.00    +0.339 C 
ATOM     14  O   UNL     1      85.597  47.653  44.486  0.00  0.00    -0.245 OA
BRANCH  13  15
ATOM     15  C   UNL     1      86.155  45.500  43.644  0.00  0.00    +0.059 A 
ATOM     16  C   UNL     1      86.129  44.159  44.074  0.00  0.00    -0.048 A 
ATOM     17  C   UNL     1      87.033  43.231  43.547  0.00  0.00    -0.061 A 
ATOM     18  C   UNL     1      87.969  43.629  42.590  0.00  0.00    -0.062 A 
ATOM     19  C   UNL     1      88.004  44.956  42.157  0.00  0.00    -0.061 A 
ATOM     20  C   UNL     1      87.103  45.889  42.681  0.00  0.00    -0.048 A 
ENDBRANCH  13  15
ENDBRANCH  12  13
ENDBRANCH  11  12
ENDBRANCH   5  11
TORSDOF 6
ENDMDL
MODEL 5
REMARK VINA RESULT:    -6.885      1.712      2.336
REMARK INTER + INTRA:          -9.561
REMARK INTER:                  -8.584
REMARK INTRA:                  -0.977
REMARK UNBOUND:                -0.663
REMARK  Name = 
REMARK  6 active torsions:
REMARK  status: ('A' for Active; 'I' for Inactive)
REMARK    1  A    between atoms: O_1  and  C_2
REMARK    2  A    between atoms: C_5  and  O_18
REMARK    3  A    between atoms: C_6  and  C_8
REMARK    4  A    between atoms: C_8  and  O_9
REMARK    5  A    between atoms: O_9  and  C_10
REMARK    6  A    between atoms: C_10  and  C_12
REMARK                            x       y       z     vdW  Elec       q    Type
REMARK                         _______ _______ _______ _____ _____    ______ ____
ROOT
ATOM      1  C   UNL     1      84.103  56.646  46.564  0.00  0.00    +0.117 A 
ATOM      2  C   UNL     1      84.170  55.529  47.404  0.00  0.00    -0.017 A 
ATOM      3  C   UNL     1      85.063  54.494  47.122  0.00  0.00    -0.016 A 
ATOM      4  C   UNL     1      85.898  54.559  46.002  0.00  0.00    +0.123 A 
ATOM      5  C   UNL     1      85.840  55.688  45.149  0.00  0.00    +0.035 A 
ATOM      6  C   UNL     1      84.934  56.722  45.443  0.00  0.00    -0.010 A 
ENDROOT
BRANCH   1   7
ATOM      7  O   UNL     1      83.215  57.684  46.834  0.00  0.00    -0.507 OA
ATOM      8  H   UNL     1      82.311  57.600  46.601  0.00  0.00    +0.000 HD
ENDBRANCH   1   7
BRANCH   4   9
ATOM      9  O   UNL     1      86.768  53.493  45.764  0.00  0.00    -0.506 OA
ATOM     10  H   UNL     1      87.657  53.539  46.058  0.00  0.00    +0.000 HD
ENDBRANCH   4   9
BRANCH   5  11
ATOM     11  C   UNL     1      86.711  55.795  43.921  0.00  0.00    +0.121 C 
BRANCH  11  12
ATOM     12  O   UNL     1      86.301  54.850  42.935  0.00  0.00    -0.456 OA
BRANCH  12  13
ATOM     13  C   UNL     1      85.095  54.945  42.229  0.00  0.00    +0.339 C 
ATOM     14  O   UNL     1      84.845  55.973  41.540  0.00  0.00    -0.245 OA
BRANCH  13  15
ATOM     15  C   UNL     1      84.117  53.838  42.293  0.00  0.00    +0.059 A 
ATOM     16  C   UNL     1      84.297  52.771  43.194  0.00  0.00    -0.048 A 
ATOM     17  C   UNL     1      83.369  51.726  43.247  0.00  0.00    -0.061 A 
ATOM     18  C   UNL     1      82.255  51.735  42.404  0.00  0.00    -0.062 A 
ATOM     19  C   UNL     1      82.066  52.788  41.507  0.00  0.00    -0.061 A 
ATOM     20  C   UNL     1      82.992  53.835  41.449  0.00  0.00    -0.048 A 
ENDBRANCH  13  15
ENDBRANCH  12  13
ENDBRANCH  11  12
ENDBRANCH   5  11
TORSDOF 6
ENDMDL
MODEL 6
REMARK VINA RESULT:    -6.825      7.795     10.229
REMARK INTER + INTRA:          -9.483
REMARK INTER:                  -8.629
REMARK INTRA:                  -0.854
REMARK UNBOUND:                -0.663
REMARK  Name = 
REMARK  6 active torsions:
REMARK  status: ('A' for Active; 'I' for Inactive)
REMARK    1  A    between atoms: O_1  and  C_2
REMARK    2  A    between atoms: C_5  and  O_18
REMARK    3  A    between atoms: C_6  and  C_8
REMARK    4  A    between atoms: C_8  and  O_9
REMARK    5  A    between atoms: O_9  and  C_10
REMARK    6  A    between atoms: C_10  and  C_12
REMARK                            x       y       z     vdW  Elec       q    Type
REMARK                         _______ _______ _______ _____ _____    ______ ____
ROOT
ATOM      1  C   UNL     1      85.250  46.436  43.687  0.00  0.00    +0.117 A 
ATOM      2  C   UNL     1      85.369  45.122  44.152  0.00  0.00    -0.017 A 
ATOM      3  C   UNL     1      86.490  44.360  43.818  0.00  0.00    -0.016 A 
ATOM      4  C   UNL     1      87.505  44.898  43.019  0.00  0.00    +0.123 A 
ATOM      5  C   UNL     1      87.395  46.229  42.548  0.00  0.00    +0.035 A 
ATOM      6  C   UNL     1      86.259  46.984  42.889  0.00  0.00    -0.010 A 
ENDROOT
BRANCH   1   7
ATOM      7  O   UNL     1      84.136  47.205  44.011  0.00  0.00    -0.507 OA
ATOM      8  H   UNL     1      83.498  46.874  44.613  0.00  0.00    +0.000 HD
ENDBRANCH   1   7
BRANCH   4   9
ATOM      9  O   UNL     1      88.601  44.090  42.711  0.00  0.00    -0.506 OA
ATOM     10  H   UNL     1      89.402  44.479  42.417  0.00  0.00    +0.000 HD
ENDBRANCH   4   9
BRANCH   5  11
ATOM     11  C   UNL     1      88.456  46.846  41.671  0.00  0.00    +0.121 C 
BRANCH  11  12
ATOM     12  O   UNL     1      89.722  46.819  42.325  0.00  0.00    -0.456 OA
BRANCH  12  13
ATOM     13  C   UNL     1      90.321  47.950  42.895  0.00  0.00    +0.339 C 
ATOM     14  O   UNL     1      91.406  47.838  43.531  0.00  0.00    -0.245 OA
BRANCH  13  15
ATOM     15  C   UNL     1      89.679  49.274  42.747  0.00  0.00    +0.059 A 
ATOM     16  C   UNL     1      90.004  50.114  41.664  0.00  0.00    -0.048 A 
ATOM     17  C   UNL     1      89.393  51.366  41.533  0.00  0.00    -0.061 A 
ATOM     18  C   UNL     1      88.458  51.791  42.478  0.00  0.00    -0.062 A 
ATOM     19  C   UNL     1      88.129  50.967  43.556  0.00  0.00    -0.061 A 
ATOM     20  C   UNL     1      88.736  49.715  43.692  0.00  0.00    -0.048 A 
ENDBRANCH  13  15
ENDBRANCH  12  13
ENDBRANCH  11  12
ENDBRANCH   5  11
TORSDOF 6
ENDMDL
MODEL 7
REMARK VINA RESULT:    -6.805      1.483      2.107
REMARK INTER + INTRA:          -9.457
REMARK INTER:                  -8.619
REMARK INTRA:                  -0.838
REMARK UNBOUND:                -0.663
REMARK  Name = 
REMARK  6 active torsions:
REMARK  status: ('A' for Active; 'I' for Inactive)
REMARK    1  A    between atoms: O_1  and  C_2
REMARK    2  A    between atoms: C_5  and  O_18
REMARK    3  A    between atoms: C_6  and  C_8
REMARK    4  A    between atoms: C_8  and  O_9
REMARK    5  A    between atoms: O_9  and  C_10
REMARK    6  A    between atoms: C_10  and  C_12
REMARK                            x       y       z     vdW  Elec       q    Type
REMARK                         _______ _______ _______ _____ _____    ______ ____
ROOT
ATOM      1  C   UNL     1      84.471  55.723  47.069  0.00  0.00    +0.117 A 
ATOM      2  C   UNL     1      85.784  55.270  47.237  0.00  0.00    -0.017 A 
ATOM      3  C   UNL     1      86.705  55.389  46.195  0.00  0.00    -0.016 A 
ATOM      4  C   UNL     1      86.329  55.961  44.974  0.00  0.00    +0.123 A 
ATOM      5  C   UNL     1      85.003  56.427  44.797  0.00  0.00    +0.035 A 
ATOM      6  C   UNL     1      84.085  56.297  45.854  0.00  0.00    -0.010 A 
ENDROOT
BRANCH   1   7
ATOM      7  O   UNL     1      83.543  55.607  48.100  0.00  0.00    -0.507 OA
ATOM      8  H   UNL     1      83.201  54.765  48.330  0.00  0.00    +0.000 HD
ENDBRANCH   1   7
BRANCH   4   9
ATOM      9  O   UNL     1      87.288  56.051  43.964  0.00  0.00    -0.506 OA
ATOM     10  H   UNL     1      88.072  56.544  44.105  0.00  0.00    +0.000 HD
ENDBRANCH   4   9
BRANCH   5  11
ATOM     11  C   UNL     1      84.549  57.036  43.494  0.00  0.00    +0.121 C 
BRANCH  11  12
ATOM     12  O   UNL     1      83.834  56.077  42.717  0.00  0.00    -0.456 OA
BRANCH  12  13
ATOM     13  C   UNL     1      84.409  54.899  42.225  0.00  0.00    +0.339 C 
ATOM     14  O   UNL     1      85.550  54.928  41.687  0.00  0.00    -0.245 OA
BRANCH  13  15
ATOM     15  C   UNL     1      83.675  53.620  42.339  0.00  0.00    +0.059 A 
ATOM     16  C   UNL     1      82.559  53.356  41.521  0.00  0.00    -0.048 A 
ATOM     17  C   UNL     1      81.869  52.145  41.636  0.00  0.00    -0.061 A 
ATOM     18  C   UNL     1      82.281  51.189  42.566  0.00  0.00    -0.062 A 
ATOM     19  C   UNL     1      83.386  51.440  43.383  0.00  0.00    -0.061 A 
ATOM     20  C   UNL     1      84.080  52.649  43.272  0.00  0.00    -0.048 A 
ENDBRANCH  13  15
ENDBRANCH  12  13
ENDBRANCH  11  12
ENDBRANCH   5  11
TORSDOF 6
ENDMDL
MODEL 8
REMARK VINA RESULT:    -6.803      4.615      7.677
REMARK INTER + INTRA:          -9.455
REMARK INTER:                  -8.837
REMARK INTRA:                  -0.618
REMARK UNBOUND:                -0.663
REMARK  Name = 
REMARK  6 active torsions:
REMARK  status: ('A' for Active; 'I' for Inactive)
REMARK    1  A    between atoms: O_1  and  C_2
REMARK    2  A    between atoms: C_5  and  O_18
REMARK    3  A    between atoms: C_6  and  C_8
REMARK    4  A    between atoms: C_8  and  O_9
REMARK    5  A    between atoms: O_9  and  C_10
REMARK    6  A    between atoms: C_10  and  C_12
REMARK                            x       y       z     vdW  Elec       q    Type
REMARK                         _______ _______ _______ _____ _____    ______ ____
ROOT
ATOM      1  C   UNL     1      88.370  52.434  39.652  0.00  0.00    +0.117 A 
ATOM      2  C   UNL     1      89.538  51.685  39.827  0.00  0.00    -0.017 A 
ATOM      3  C   UNL     1      89.711  50.915  40.979  0.00  0.00    -0.016 A 
ATOM      4  C   UNL     1      88.721  50.883  41.968  0.00  0.00    +0.123 A 
ATOM      5  C   UNL     1      87.533  51.634  41.796  0.00  0.00    +0.035 A 
ATOM      6  C   UNL     1      87.375  52.408  40.633  0.00  0.00    -0.010 A 
ENDROOT
BRANCH   1   7
ATOM      7  O   UNL     1      88.188  53.207  38.508  0.00  0.00    -0.507 OA
ATOM      8  H   UNL     1      88.157  52.798  37.666  0.00  0.00    +0.000 HD
ENDBRANCH   1   7
BRANCH   4   9
ATOM      9  O   UNL     1      88.947  50.100  43.102  0.00  0.00    -0.506 OA
ATOM     10  H   UNL     1      88.433  49.331  43.251  0.00  0.00    +0.000 HD
ENDBRANCH   4   9
BRANCH   5  11
ATOM     11  C   UNL     1      86.447  51.642  42.843  0.00  0.00    +0.121 C 
BRANCH  11  12
ATOM     12  O   UNL     1      86.776  52.544  43.897  0.00  0.00    -0.456 OA
BRANCH  12  13
ATOM     13  C   UNL     1      87.087  52.130  45.198  0.00  0.00    +0.339 C 
ATOM     14  O   UNL     1      87.840  51.134  45.383  0.00  0.00    -0.245 OA
BRANCH  13  15
ATOM     15  C   UNL     1      86.530  52.865  46.355  0.00  0.00    +0.059 A 
ATOM     16  C   UNL     1      86.043  52.171  47.480  0.00  0.00    -0.048 A 
ATOM     17  C   UNL     1      85.516  52.873  48.570  0.00  0.00    -0.061 A 
ATOM     18  C   UNL     1      85.469  54.268  48.547  0.00  0.00    -0.062 A 
ATOM     19  C   UNL     1      85.948  54.966  47.437  0.00  0.00    -0.061 A 
ATOM     20  C   UNL     1      86.475  54.270  46.345  0.00  0.00    -0.048 A 
ENDBRANCH  13  15
ENDBRANCH  12  13
ENDBRANCH  11  12
ENDBRANCH   5  11
TORSDOF 6
ENDMDL
MODEL 9
REMARK VINA RESULT:    -6.774      2.103      3.261
REMARK INTER + INTRA:          -9.417
REMARK INTER:                  -8.754
REMARK INTRA:                  -0.663
REMARK UNBOUND:                -0.663
REMARK  Name = 
REMARK  6 active torsions:
REMARK  status: ('A' for Active; 'I' for Inactive)
REMARK    1  A    between atoms: O_1  and  C_2
REMARK    2  A    between atoms: C_5  and  O_18
REMARK    3  A    between atoms: C_6  and  C_8
REMARK    4  A    between atoms: C_8  and  O_9
REMARK    5  A    between atoms: O_9  and  C_10
REMARK    6  A    between atoms: C_10  and  C_12
REMARK                            x       y       z     vdW  Elec       q    Type
REMARK                         _______ _______ _______ _____ _____    ______ ____
ROOT
ATOM      1  C   UNL     1      85.019  57.400  44.156  0.00  0.00    +0.117 A 
ATOM      2  C   UNL     1      86.277  57.005  44.623  0.00  0.00    -0.017 A 
ATOM      3  C   UNL     1      86.897  55.873  44.091  0.00  0.00    -0.016 A 
ATOM      4  C   UNL     1      86.271  55.123  43.089  0.00  0.00    +0.123 A 
ATOM      5  C   UNL     1      85.000  55.519  42.607  0.00  0.00    +0.035 A 
ATOM      6  C   UNL     1      84.385  56.659  43.155  0.00  0.00    -0.010 A 
ENDROOT
BRANCH   1   7
ATOM      7  O   UNL     1      84.389  58.526  44.681  0.00  0.00    -0.507 OA
ATOM      8  H   UNL     1      83.550  58.787  44.357  0.00  0.00    +0.000 HD
ENDBRANCH   1   7
BRANCH   4   9
ATOM      9  O   UNL     1      86.934  53.997  42.596  0.00  0.00    -0.506 OA
ATOM     10  H   UNL     1      87.789  54.083  42.222  0.00  0.00    +0.000 HD
ENDBRANCH   4   9
BRANCH   5  11
ATOM     11  C   UNL     1      84.281  54.732  41.539  0.00  0.00    +0.121 C 
BRANCH  11  12
ATOM     12  O   UNL     1      83.510  53.685  42.124  0.00  0.00    -0.456 OA
BRANCH  12  13
ATOM     13  C   UNL     1      83.885  52.336  42.087  0.00  0.00    +0.339 C 
ATOM     14  O   UNL     1      85.019  52.007  41.642  0.00  0.00    -0.245 OA
BRANCH  13  15
ATOM     15  C   UNL     1      82.947  51.300  42.570  0.00  0.00    +0.059 A 
ATOM     16  C   UNL     1      83.363  50.335  43.508  0.00  0.00    -0.048 A 
ATOM     17  C   UNL     1      82.471  49.357  43.959  0.00  0.00    -0.061 A 
ATOM     18  C   UNL     1      81.160  49.330  43.479  0.00  0.00    -0.062 A 
ATOM     19  C   UNL     1      80.737  50.281  42.549  0.00  0.00    -0.061 A 
ATOM     20  C   UNL     1      81.624  51.261  42.095  0.00  0.00    -0.048 A 
ENDBRANCH  13  15
ENDBRANCH  12  13
ENDBRANCH  11  12
ENDBRANCH   5  11
TORSDOF 6
ENDMDL
