MODEL 1
REMARK VINA RESULT:    -8.284      0.000      0.000
REMARK INTER + INTRA:          -9.756
REMARK INTER:                  -9.745
REMARK INTRA:                  -0.010
REMARK UNBOUND:                -0.019
REMARK  Name = 
REMARK  6 active torsions:
REMARK  status: ('A' for Active; 'I' for Inactive)
REMARK    1  A    between atoms: C_1  and  O_2
REMARK    2  A    between atoms: O_2  and  C_3
REMARK    3  A    between atoms: C_4  and  O_5
REMARK    4  A    between atoms: C_18  and  O_22
REMARK    5  A    between atoms: C_19  and  O_20
REMARK    6  A    between atoms: O_20  and  C_21
REMARK                            x       y       z     vdW  Elec       q    Type
REMARK                         _______ _______ _______ _____ _____    ______ ____
ROOT
ATOM      1  C   UNL     1      84.475  56.567  45.733  0.00  0.00    +0.169 A 
ATOM      2  C   UNL     1      83.834  56.824  46.960  0.00  0.00    +0.160 A 
ATOM      3  C   UNL     1      83.930  55.904  48.009  0.00  0.00    -0.009 A 
ATOM      4  C   UNL     1      84.653  54.714  47.849  0.00  0.00    -0.013 A 
ATOM      5  C   UNL     1      85.285  54.441  46.617  0.00  0.00    +0.001 A 
ATOM      6  C   UNL     1      85.194  55.368  45.552  0.00  0.00    +0.029 A 
ATOM      7  C   UNL     1      85.827  55.073  44.332  0.00  0.00    -0.050 A 
ATOM      8  C   UNL     1      86.541  53.885  44.167  0.00  0.00    -0.050 A 
ATOM      9  C   UNL     1      86.640  52.955  45.216  0.00  0.00    +0.029 A 
ATOM     10  C   UNL     1      86.008  53.238  46.450  0.00  0.00    +0.001 A 
ATOM     11  C   UNL     1      86.099  52.319  47.519  0.00  0.00    -0.013 A 
ATOM     12  C   UNL     1      85.468  52.605  48.738  0.00  0.00    -0.053 A 
ATOM     13  C   UNL     1      84.749  53.792  48.901  0.00  0.00    -0.053 A 
ATOM     14  C   UNL     1      86.823  51.131  47.353  0.00  0.00    -0.009 A 
ATOM     15  C   UNL     1      87.452  50.847  46.137  0.00  0.00    +0.160 A 
ATOM     16  C   UNL     1      87.353  51.748  45.060  0.00  0.00    +0.169 A 
ENDROOT
BRANCH   1  18
ATOM     17  C   UNL     1      85.425  58.448  44.471  0.00  0.00    +0.079 C 
ATOM     18  O   UNL     1      84.389  57.501  44.698  0.00  0.00    -0.491 OA
ENDBRANCH   1  18
BRANCH   2  19
ATOM     19  O   UNL     1      83.090  57.988  47.156  0.00  0.00    -0.503 OA
ATOM     20  H   UNL     1      82.420  58.223  46.546  0.00  0.00    +0.000 HD
ENDBRANCH   2  19
BRANCH  16  21
ATOM     21  O   UNL     1      87.969  51.445  43.843  0.00  0.00    -0.491 OA
ATOM     22  C   UNL     1      87.322  50.635  42.870  0.00  0.00    +0.079 C 
ENDBRANCH  16  21
BRANCH  15  23
ATOM     23  O   UNL     1      88.177  49.660  46.020  0.00  0.00    -0.503 OA
ATOM     24  H   UNL     1      88.436  49.192  46.789  0.00  0.00    +0.000 HD
ENDBRANCH  15  23
TORSDOF 4
ENDMDL
MODEL 2
REMARK VINA RESULT:    -8.268      1.215      5.701
REMARK INTER + INTRA:          -9.737
REMARK INTER:                  -9.664
REMARK INTRA:                  -0.073
REMARK UNBOUND:                -0.019
REMARK  Name = 
REMARK  6 active torsions:
REMARK  status: ('A' for Active; 'I' for Inactive)
REMARK    1  A    between atoms: C_1  and  O_2
REMARK    2  A    between atoms: O_2  and  C_3
REMARK    3  A    between atoms: C_4  and  O_5
REMARK    4  A    between atoms: C_18  and  O_22
REMARK    5  A    between atoms: C_19  and  O_20
REMARK    6  A    between atoms: O_20  and  C_21
REMARK                            x       y       z     vdW  Elec       q    Type
REMARK                         _______ _______ _______ _____ _____    ______ ____
ROOT
ATOM      1  C   UNL     1      87.677  51.337  44.034  0.00  0.00    +0.169 A 
ATOM      2  C   UNL     1      88.196  50.230  44.733  0.00  0.00    +0.160 A 
ATOM      3  C   UNL     1      87.928  50.071  46.096  0.00  0.00    -0.009 A 
ATOM      4  C   UNL     1      87.152  51.014  46.784  0.00  0.00    -0.013 A 
ATOM      5  C   UNL     1      86.642  52.135  46.095  0.00  0.00    +0.001 A 
ATOM      6  C   UNL     1      86.907  52.301  44.716  0.00  0.00    +0.029 A 
ATOM      7  C   UNL     1      86.393  53.428  44.050  0.00  0.00    -0.050 A 
ATOM      8  C   UNL     1      85.627  54.373  44.735  0.00  0.00    -0.050 A 
ATOM      9  C   UNL     1      85.356  54.221  46.105  0.00  0.00    +0.029 A 
ATOM     10  C   UNL     1      85.866  53.092  46.788  0.00  0.00    +0.001 A 
ATOM     11  C   UNL     1      85.602  52.917  48.165  0.00  0.00    -0.013 A 
ATOM     12  C   UNL     1      86.113  51.797  48.836  0.00  0.00    -0.053 A 
ATOM     13  C   UNL     1      86.884  50.854  48.151  0.00  0.00    -0.053 A 
ATOM     14  C   UNL     1      84.826  53.863  48.847  0.00  0.00    -0.009 A 
ATOM     15  C   UNL     1      84.316  54.980  48.178  0.00  0.00    +0.160 A 
ATOM     16  C   UNL     1      84.588  55.171  46.810  0.00  0.00    +0.169 A 
ENDROOT
BRANCH   1  18
ATOM     17  C   UNL     1      87.139  50.810  41.696  0.00  0.00    +0.079 C 
ATOM     18  O   UNL     1      87.934  51.476  42.668  0.00  0.00    -0.491 OA
ENDBRANCH   1  18
BRANCH   2  19
ATOM     19  O   UNL     1      88.987  49.277  44.090  0.00  0.00    -0.503 OA
ATOM     20  H   UNL     1      89.920  49.327  44.148  0.00  0.00    +0.000 HD
ENDBRANCH   2  19
BRANCH  16  21
ATOM     21  O   UNL     1      84.090  56.301  46.156  0.00  0.00    -0.491 OA
ATOM     22  C   UNL     1      84.773  57.547  46.210  0.00  0.00    +0.079 C 
ENDBRANCH  16  21
BRANCH  15  23
ATOM     23  O   UNL     1      83.534  55.889  48.892  0.00  0.00    -0.503 OA
ATOM     24  H   UNL     1      83.244  55.678  49.758  0.00  0.00    +0.000 HD
ENDBRANCH  15  23
TORSDOF 4
ENDMDL
MODEL 3
REMARK VINA RESULT:    -8.254      0.137      5.633
REMARK INTER + INTRA:          -9.720
REMARK INTER:                  -9.701
REMARK INTRA:                  -0.020
REMARK UNBOUND:                -0.019
REMARK  Name = 
REMARK  6 active torsions:
REMARK  status: ('A' for Active; 'I' for Inactive)
REMARK    1  A    between atoms: C_1  and  O_2
REMARK    2  A    between atoms: O_2  and  C_3
REMARK    3  A    between atoms: C_4  and  O_5
REMARK    4  A    between atoms: C_18  and  O_22
REMARK    5  A    between atoms: C_19  and  O_20
REMARK    6  A    between atoms: O_20  and  C_21
REMARK                            x       y       z     vdW  Elec       q    Type
REMARK                         _______ _______ _______ _____ _____    ______ ____
ROOT
ATOM      1  C   UNL     1      87.338  51.647  45.150  0.00  0.00    +0.169 A 
ATOM      2  C   UNL     1      87.456  50.759  46.236  0.00  0.00    +0.160 A 
ATOM      3  C   UNL     1      86.838  51.054  47.455  0.00  0.00    -0.009 A 
ATOM      4  C   UNL     1      86.105  52.238  47.615  0.00  0.00    -0.013 A 
ATOM      5  C   UNL     1      85.996  53.141  46.536  0.00  0.00    +0.001 A 
ATOM      6  C   UNL     1      86.616  52.849  45.299  0.00  0.00    +0.029 A 
ATOM      7  C   UNL     1      86.498  53.765  44.239  0.00  0.00    -0.050 A 
ATOM      8  C   UNL     1      85.776  54.950  44.398  0.00  0.00    -0.050 A 
ATOM      9  C   UNL     1      85.154  55.253  45.621  0.00  0.00    +0.029 A 
ATOM     10  C   UNL     1      85.264  54.341  46.696  0.00  0.00    +0.001 A 
ATOM     11  C   UNL     1      84.643  54.624  47.933  0.00  0.00    -0.013 A 
ATOM     12  C   UNL     1      84.759  53.716  48.995  0.00  0.00    -0.053 A 
ATOM     13  C   UNL     1      85.486  52.533  48.837  0.00  0.00    -0.053 A 
ATOM     14  C   UNL     1      83.913  55.810  48.085  0.00  0.00    -0.009 A 
ATOM     15  C   UNL     1      83.797  56.715  47.027  0.00  0.00    +0.160 A 
ATOM     16  C   UNL     1      84.427  56.449  45.796  0.00  0.00    +0.169 A 
ENDROOT
BRANCH   1  18
ATOM     17  C   UNL     1      87.286  50.516  42.970  0.00  0.00    +0.079 C 
ATOM     18  O   UNL     1      87.942  51.334  43.930  0.00  0.00    -0.491 OA
ENDBRANCH   1  18
BRANCH   2  19
ATOM     19  O   UNL     1      88.190  49.577  46.126  0.00  0.00    -0.503 OA
ATOM     20  H   UNL     1      88.999  49.571  45.655  0.00  0.00    +0.000 HD
ENDBRANCH   2  19
BRANCH  16  21
ATOM     21  O   UNL     1      84.321  57.370  44.750  0.00  0.00    -0.491 OA
ATOM     22  C   UNL     1      85.338  58.335  44.511  0.00  0.00    +0.079 C 
ENDBRANCH  16  21
BRANCH  15  23
ATOM     23  O   UNL     1      83.046  57.876  47.217  0.00  0.00    -0.503 OA
ATOM     24  H   UNL     1      83.478  58.703  47.314  0.00  0.00    +0.000 HD
ENDBRANCH  15  23
TORSDOF 4
ENDMDL
MODEL 4
REMARK VINA RESULT:    -8.232      1.215      1.797
REMARK INTER + INTRA:          -9.694
REMARK INTER:                  -9.624
REMARK INTRA:                  -0.071
REMARK UNBOUND:                -0.019
REMARK  Name = 
REMARK  6 active torsions:
REMARK  status: ('A' for Active; 'I' for Inactive)
REMARK    1  A    between atoms: C_1  and  O_2
REMARK    2  A    between atoms: O_2  and  C_3
REMARK    3  A    between atoms: C_4  and  O_5
REMARK    4  A    between atoms: C_18  and  O_22
REMARK    5  A    between atoms: C_19  and  O_20
REMARK    6  A    between atoms: O_20  and  C_21
REMARK                            x       y       z     vdW  Elec       q    Type
REMARK                         _______ _______ _______ _____ _____    ______ ____
ROOT
ATOM      1  C   UNL     1      84.592  55.166  46.785  0.00  0.00    +0.169 A 
ATOM      2  C   UNL     1      84.311  54.976  48.152  0.00  0.00    +0.160 A 
ATOM      3  C   UNL     1      84.807  53.853  48.822  0.00  0.00    -0.009 A 
ATOM      4  C   UNL     1      85.576  52.900  48.142  0.00  0.00    -0.013 A 
ATOM      5  C   UNL     1      85.849  53.074  46.768  0.00  0.00    +0.001 A 
ATOM      6  C   UNL     1      85.354  54.209  46.084  0.00  0.00    +0.029 A 
ATOM      7  C   UNL     1      85.633  54.360  44.714  0.00  0.00    -0.050 A 
ATOM      8  C   UNL     1      86.392  53.408  44.032  0.00  0.00    -0.050 A 
ATOM      9  C   UNL     1      86.891  52.276  44.699  0.00  0.00    +0.029 A 
ATOM     10  C   UNL     1      86.618  52.111  46.076  0.00  0.00    +0.001 A 
ATOM     11  C   UNL     1      87.114  50.982  46.767  0.00  0.00    -0.013 A 
ATOM     12  C   UNL     1      86.837  50.823  48.132  0.00  0.00    -0.053 A 
ATOM     13  C   UNL     1      86.073  51.774  48.813  0.00  0.00    -0.053 A 
ATOM     14  C   UNL     1      87.883  50.033  46.081  0.00  0.00    -0.009 A 
ATOM     15  C   UNL     1      88.159  50.191  44.719  0.00  0.00    +0.160 A 
ATOM     16  C   UNL     1      87.655  51.304  44.019  0.00  0.00    +0.169 A 
ENDROOT
BRANCH   1  18
ATOM     17  C   UNL     1      84.798  57.543  46.199  0.00  0.00    +0.079 C 
ATOM     18  O   UNL     1      84.109  56.301  46.130  0.00  0.00    -0.491 OA
ENDBRANCH   1  18
BRANCH   2  19
ATOM     19  O   UNL     1      83.535  55.892  48.863  0.00  0.00    -0.503 OA
ATOM     20  H   UNL     1      82.887  55.587  49.467  0.00  0.00    +0.000 HD
ENDBRANCH   2  19
BRANCH  16  21
ATOM     21  O   UNL     1      87.921  51.442  42.654  0.00  0.00    -0.491 OA
ATOM     22  C   UNL     1      87.128  50.780  41.678  0.00  0.00    +0.079 C 
ENDBRANCH  16  21
BRANCH  15  23
ATOM     23  O   UNL     1      88.943  49.230  44.079  0.00  0.00    -0.503 OA
ATOM     24  H   UNL     1      88.797  49.034  43.174  0.00  0.00    +0.000 HD
ENDBRANCH  15  23
TORSDOF 4
ENDMDL
MODEL 5
REMARK VINA RESULT:    -7.851      3.976      5.137
REMARK INTER + INTRA:          -9.246
REMARK INTER:                  -9.190
REMARK INTRA:                  -0.057
REMARK UNBOUND:                -0.019
REMARK  Name = 
REMARK  6 active torsions:
REMARK  status: ('A' for Active; 'I' for Inactive)
REMARK    1  A    between atoms: C_1  and  O_2
REMARK    2  A    between atoms: O_2  and  C_3
REMARK    3  A    between atoms: C_4  and  O_5
REMARK    4  A    between atoms: C_18  and  O_22
REMARK    5  A    between atoms: C_19  and  O_20
REMARK    6  A    between atoms: O_20  and  C_21
REMARK                            x       y       z     vdW  Elec       q    Type
REMARK                         _______ _______ _______ _____ _____    ______ ____
ROOT
ATOM      1  C   UNL     1      85.299  54.345  42.880  0.00  0.00    +0.169 A 
ATOM      2  C   UNL     1      84.319  55.120  42.232  0.00  0.00    +0.160 A 
ATOM      3  C   UNL     1      83.059  54.577  41.961  0.00  0.00    -0.009 A 
ATOM      4  C   UNL     1      82.761  53.256  42.319  0.00  0.00    -0.013 A 
ATOM      5  C   UNL     1      83.743  52.466  42.955  0.00  0.00    +0.001 A 
ATOM      6  C   UNL     1      85.018  53.009  43.234  0.00  0.00    +0.029 A 
ATOM      7  C   UNL     1      85.984  52.203  43.864  0.00  0.00    -0.050 A 
ATOM      8  C   UNL     1      85.693  50.884  44.214  0.00  0.00    -0.050 A 
ATOM      9  C   UNL     1      84.429  50.331  43.943  0.00  0.00    +0.029 A 
ATOM     10  C   UNL     1      83.448  51.130  43.310  0.00  0.00    +0.001 A 
ATOM     11  C   UNL     1      82.171  50.595  43.032  0.00  0.00    -0.013 A 
ATOM     12  C   UNL     1      81.204  51.392  42.402  0.00  0.00    -0.053 A 
ATOM     13  C   UNL     1      81.498  52.712  42.047  0.00  0.00    -0.053 A 
ATOM     14  C   UNL     1      81.879  49.273  43.393  0.00  0.00    -0.009 A 
ATOM     15  C   UNL     1      82.843  48.479  44.021  0.00  0.00    +0.160 A 
ATOM     16  C   UNL     1      84.124  48.998  44.287  0.00  0.00    +0.169 A 
ENDROOT
BRANCH   1  18
ATOM     17  C   UNL     1      86.741  55.743  44.294  0.00  0.00    +0.079 C 
ATOM     18  O   UNL     1      86.548  54.903  43.164  0.00  0.00    -0.491 OA
ENDBRANCH   1  18
BRANCH   2  19
ATOM     19  O   UNL     1      84.579  56.434  41.842  0.00  0.00    -0.503 OA
ATOM     20  H   UNL     1      84.399  57.141  42.429  0.00  0.00    +0.000 HD
ENDBRANCH   2  19
BRANCH  16  21
ATOM     21  O   UNL     1      85.086  48.188  44.898  0.00  0.00    -0.491 OA
ATOM     22  C   UNL     1      85.820  47.225  44.153  0.00  0.00    +0.079 C 
ENDBRANCH  16  21
BRANCH  15  23
ATOM     23  O   UNL     1      82.505  47.173  44.379  0.00  0.00    -0.503 OA
ATOM     24  H   UNL     1      82.834  46.451  43.880  0.00  0.00    +0.000 HD
ENDBRANCH  15  23
TORSDOF 4
ENDMDL
MODEL 6
REMARK VINA RESULT:    -7.712      4.677      7.190
REMARK INTER + INTRA:          -9.083
REMARK INTER:                  -9.024
REMARK INTRA:                  -0.059
REMARK UNBOUND:                -0.019
REMARK  Name = 
REMARK  6 active torsions:
REMARK  status: ('A' for Active; 'I' for Inactive)
REMARK    1  A    between atoms: C_1  and  O_2
REMARK    2  A    between atoms: O_2  and  C_3
REMARK    3  A    between atoms: C_4  and  O_5
REMARK    4  A    between atoms: C_18  and  O_22
REMARK    5  A    between atoms: C_19  and  O_20
REMARK    6  A    between atoms: O_20  and  C_21
REMARK                            x       y       z     vdW  Elec       q    Type
REMARK                         _______ _______ _______ _____ _____    ______ ____
ROOT
ATOM      1  C   UNL     1      87.487  51.855  42.659  0.00  0.00    +0.169 A 
ATOM      2  C   UNL     1      88.693  52.146  41.994  0.00  0.00    +0.160 A 
ATOM      3  C   UNL     1      89.537  51.109  41.583  0.00  0.00    -0.009 A 
ATOM      4  C   UNL     1      89.199  49.773  41.837  0.00  0.00    -0.013 A 
ATOM      5  C   UNL     1      88.000  49.473  42.518  0.00  0.00    +0.001 A 
ATOM      6  C   UNL     1      87.141  50.516  42.935  0.00  0.00    +0.029 A 
ATOM      7  C   UNL     1      85.953  50.196  43.616  0.00  0.00    -0.050 A 
ATOM      8  C   UNL     1      85.618  48.866  43.879  0.00  0.00    -0.050 A 
ATOM      9  C   UNL     1      86.463  47.819  43.470  0.00  0.00    +0.029 A 
ATOM     10  C   UNL     1      87.660  48.127  42.784  0.00  0.00    +0.001 A 
ATOM     11  C   UNL     1      88.521  47.090  42.361  0.00  0.00    -0.013 A 
ATOM     12  C   UNL     1      89.708  47.402  41.683  0.00  0.00    -0.053 A 
ATOM     13  C   UNL     1      90.045  48.734  41.425  0.00  0.00    -0.053 A 
ATOM     14  C   UNL     1      88.178  45.756  42.618  0.00  0.00    -0.009 A 
ATOM     15  C   UNL     1      86.994  45.444  43.294  0.00  0.00    +0.160 A 
ATOM     16  C   UNL     1      86.138  46.472  43.734  0.00  0.00    +0.169 A 
ENDROOT
BRANCH   1  18
ATOM     17  C   UNL     1      85.681  53.441  42.153  0.00  0.00    +0.079 C 
ATOM     18  O   UNL     1      86.642  52.897  43.048  0.00  0.00    -0.491 OA
ENDBRANCH   1  18
BRANCH   2  19
ATOM     19  O   UNL     1      89.076  53.462  41.736  0.00  0.00    -0.503 OA
ATOM     20  H   UNL     1      89.412  53.696  40.893  0.00  0.00    +0.000 HD
ENDBRANCH   2  19
BRANCH  16  21
ATOM     21  O   UNL     1      84.967  46.150  44.426  0.00  0.00    -0.491 OA
ATOM     22  C   UNL     1      83.764  45.841  43.735  0.00  0.00    +0.079 C 
ENDBRANCH  16  21
BRANCH  15  23
ATOM     23  O   UNL     1      86.682  44.102  43.515  0.00  0.00    -0.503 OA
ATOM     24  H   UNL     1      86.037  43.678  42.984  0.00  0.00    +0.000 HD
ENDBRANCH  15  23
TORSDOF 4
ENDMDL
MODEL 7
REMARK VINA RESULT:    -7.708      4.636      8.553
REMARK INTER + INTRA:          -9.078
REMARK INTER:                  -9.023
REMARK INTRA:                  -0.055
REMARK UNBOUND:                -0.019
REMARK  Name = 
REMARK  6 active torsions:
REMARK  status: ('A' for Active; 'I' for Inactive)
REMARK    1  A    between atoms: C_1  and  O_2
REMARK    2  A    between atoms: O_2  and  C_3
REMARK    3  A    between atoms: C_4  and  O_5
REMARK    4  A    between atoms: C_18  and  O_22
REMARK    5  A    between atoms: C_19  and  O_20
REMARK    6  A    between atoms: O_20  and  C_21
REMARK                            x       y       z     vdW  Elec       q    Type
REMARK                         _______ _______ _______ _____ _____    ______ ____
ROOT
ATOM      1  C   UNL     1      86.115  46.489  43.801  0.00  0.00    +0.169 A 
ATOM      2  C   UNL     1      86.959  45.454  43.354  0.00  0.00    +0.160 A 
ATOM      3  C   UNL     1      88.136  45.756  42.663  0.00  0.00    -0.009 A 
ATOM      4  C   UNL     1      88.485  47.086  42.398  0.00  0.00    -0.013 A 
ATOM      5  C   UNL     1      87.637  48.130  42.828  0.00  0.00    +0.001 A 
ATOM      6  C   UNL     1      86.447  47.832  43.530  0.00  0.00    +0.029 A 
ATOM      7  C   UNL     1      85.614  48.887  43.945  0.00  0.00    -0.050 A 
ATOM      8  C   UNL     1      85.955  50.213  43.675  0.00  0.00    -0.050 A 
ATOM      9  C   UNL     1      87.136  50.523  42.979  0.00  0.00    +0.029 A 
ATOM     10  C   UNL     1      87.983  49.473  42.555  0.00  0.00    +0.001 A 
ATOM     11  C   UNL     1      89.177  49.763  41.858  0.00  0.00    -0.013 A 
ATOM     12  C   UNL     1      90.010  48.717  41.438  0.00  0.00    -0.053 A 
ATOM     13  C   UNL     1      89.666  47.389  41.705  0.00  0.00    -0.053 A 
ATOM     14  C   UNL     1      89.520  51.096  41.596  0.00  0.00    -0.009 A 
ATOM     15  C   UNL     1      88.689  52.140  42.014  0.00  0.00    +0.160 A 
ATOM     16  C   UNL     1      87.489  51.859  42.695  0.00  0.00    +0.169 A 
ENDROOT
BRANCH   1  18
ATOM     17  C   UNL     1      83.751  45.824  43.833  0.00  0.00    +0.079 C 
ATOM     18  O   UNL     1      84.951  46.178  44.508  0.00  0.00    -0.491 OA
ENDBRANCH   1  18
BRANCH   2  19
ATOM     19  O   UNL     1      86.640  44.114  43.582  0.00  0.00    -0.503 OA
ATOM     20  H   UNL     1      87.011  43.446  43.040  0.00  0.00    +0.000 HD
ENDBRANCH   2  19
BRANCH  16  21
ATOM     21  O   UNL     1      86.656  52.909  43.091  0.00  0.00    -0.491 OA
ATOM     22  C   UNL     1      85.730  53.498  42.187  0.00  0.00    +0.079 C 
ENDBRANCH  16  21
BRANCH  15  23
ATOM     23  O   UNL     1      89.077  53.453  41.747  0.00  0.00    -0.503 OA
ATOM     24  H   UNL     1      89.698  53.880  42.304  0.00  0.00    +0.000 HD
ENDBRANCH  15  23
TORSDOF 4
ENDMDL
MODEL 8
REMARK VINA RESULT:    -7.584      1.921      3.198
REMARK INTER + INTRA:          -8.933
REMARK INTER:                  -8.877
REMARK INTRA:                  -0.056
REMARK UNBOUND:                -0.019
REMARK  Name = 
REMARK  6 active torsions:
REMARK  status: ('A' for Active; 'I' for Inactive)
REMARK    1  A    between atoms: C_1  and  O_2
REMARK    2  A    between atoms: O_2  and  C_3
REMARK    3  A    between atoms: C_4  and  O_5
REMARK    4  A    between atoms: C_18  and  O_22
REMARK    5  A    between atoms: C_19  and  O_20
REMARK    6  A    between atoms: O_20  and  C_21
REMARK                            x       y       z     vdW  Elec       q    Type
REMARK                         _______ _______ _______ _____ _____    ______ ____
ROOT
ATOM      1  C   UNL     1      85.660  54.708  45.376  0.00  0.00    +0.169 A 
ATOM      2  C   UNL     1      85.581  54.470  46.761  0.00  0.00    +0.160 A 
ATOM      3  C   UNL     1      86.100  53.289  47.302  0.00  0.00    -0.009 A 
ATOM      4  C   UNL     1      86.694  52.328  46.474  0.00  0.00    -0.013 A 
ATOM      5  C   UNL     1      86.763  52.551  45.082  0.00  0.00    +0.001 A 
ATOM      6  C   UNL     1      86.242  53.744  44.528  0.00  0.00    +0.029 A 
ATOM      7  C   UNL     1      86.316  53.944  43.139  0.00  0.00    -0.050 A 
ATOM      8  C   UNL     1      86.900  52.984  42.310  0.00  0.00    -0.050 A 
ATOM      9  C   UNL     1      87.422  51.794  42.846  0.00  0.00    +0.029 A 
ATOM     10  C   UNL     1      87.354  51.579  44.243  0.00  0.00    +0.001 A 
ATOM     11  C   UNL     1      87.876  50.393  44.803  0.00  0.00    -0.013 A 
ATOM     12  C   UNL     1      87.803  50.184  46.188  0.00  0.00    -0.053 A 
ATOM     13  C   UNL     1      87.214  51.144  47.016  0.00  0.00    -0.053 A 
ATOM     14  C   UNL     1      88.469  49.435  43.969  0.00  0.00    -0.009 A 
ATOM     15  C   UNL     1      88.542  49.642  42.589  0.00  0.00    +0.160 A 
ATOM     16  C   UNL     1      88.008  50.814  42.019  0.00  0.00    +0.169 A 
ENDROOT
BRANCH   1  18
ATOM     17  C   UNL     1      85.953  57.075  44.786  0.00  0.00    +0.079 C 
ATOM     18  O   UNL     1      85.155  55.900  44.848  0.00  0.00    -0.491 OA
ENDBRANCH   1  18
BRANCH   2  19
ATOM     19  O   UNL     1      84.982  55.393  47.620  0.00  0.00    -0.503 OA
ATOM     20  H   UNL     1      85.444  56.169  47.867  0.00  0.00    +0.000 HD
ENDBRANCH   2  19
BRANCH  16  21
ATOM     21  O   UNL     1      88.070  51.002  40.636  0.00  0.00    -0.491 OA
ATOM     22  C   UNL     1      89.231  51.538  40.015  0.00  0.00    +0.079 C 
ENDBRANCH  16  21
BRANCH  15  23
ATOM     23  O   UNL     1      89.155  48.669  41.797  0.00  0.00    -0.503 OA
ATOM     24  H   UNL     1      88.854  47.782  41.828  0.00  0.00    +0.000 HD
ENDBRANCH  15  23
TORSDOF 4
ENDMDL
MODEL 9
REMARK VINA RESULT:    -7.579      1.981      6.173
REMARK INTER + INTRA:          -8.926
REMARK INTER:                  -8.908
REMARK INTRA:                  -0.019
REMARK UNBOUND:                -0.019
REMARK  Name = 
REMARK  6 active torsions:
REMARK  status: ('A' for Active; 'I' for Inactive)
REMARK    1  A    between atoms: C_1  and  O_2
REMARK    2  A    between atoms: O_2  and  C_3
REMARK    3  A    between atoms: C_4  and  O_5
REMARK    4  A    between atoms: C_18  and  O_22
REMARK    5  A    between atoms: C_19  and  O_20
REMARK    6  A    between atoms: O_20  and  C_21
REMARK                            x       y       z     vdW  Elec       q    Type
REMARK                         _______ _______ _______ _____ _____    ______ ____
ROOT
ATOM      1  C   UNL     1      88.018  50.700  41.986  0.00  0.00    +0.169 A 
ATOM      2  C   UNL     1      88.429  49.506  42.608  0.00  0.00    +0.160 A 
ATOM      3  C   UNL     1      88.291  49.350  43.990  0.00  0.00    -0.009 A 
ATOM      4  C   UNL     1      87.754  50.381  44.773  0.00  0.00    -0.013 A 
ATOM      5  C   UNL     1      87.354  51.587  44.160  0.00  0.00    +0.001 A 
ATOM      6  C   UNL     1      87.488  51.751  42.762  0.00  0.00    +0.029 A 
ATOM      7  C   UNL     1      87.088  52.964  42.172  0.00  0.00    -0.050 A 
ATOM      8  C   UNL     1      86.561  53.995  42.951  0.00  0.00    -0.050 A 
ATOM      9  C   UNL     1      86.421  53.846  44.341  0.00  0.00    +0.029 A 
ATOM     10  C   UNL     1      86.819  52.632  44.948  0.00  0.00    +0.001 A 
ATOM     11  C   UNL     1      86.684  52.460  46.344  0.00  0.00    -0.013 A 
ATOM     12  C   UNL     1      87.084  51.255  46.939  0.00  0.00    -0.053 A 
ATOM     13  C   UNL     1      87.616  50.224  46.160  0.00  0.00    -0.053 A 
ATOM     14  C   UNL     1      86.146  53.494  47.121  0.00  0.00    -0.009 A 
ATOM     15  C   UNL     1      85.748  54.696  46.528  0.00  0.00    +0.160 A 
ATOM     16  C   UNL     1      85.895  54.883  45.140  0.00  0.00    +0.169 A 
ENDROOT
BRANCH   1  18
ATOM     17  C   UNL     1      89.309  51.402  40.018  0.00  0.00    +0.079 C 
ATOM     18  O   UNL     1      88.142  50.838  40.601  0.00  0.00    -0.491 OA
ENDBRANCH   1  18
BRANCH   2  19
ATOM     19  O   UNL     1      88.985  48.462  41.868  0.00  0.00    -0.503 OA
ATOM     20  H   UNL     1      88.674  47.586  41.988  0.00  0.00    +0.000 HD
ENDBRANCH   2  19
BRANCH  16  21
ATOM     21  O   UNL     1      85.511  56.095  44.560  0.00  0.00    -0.491 OA
ATOM     22  C   UNL     1      84.171  56.323  44.144  0.00  0.00    +0.079 C 
ENDBRANCH  16  21
BRANCH  15  23
ATOM     23  O   UNL     1      85.202  55.693  47.337  0.00  0.00    -0.503 OA
ATOM     24  H   UNL     1      84.633  56.339  46.964  0.00  0.00    +0.000 HD
ENDBRANCH  15  23
TORSDOF 4
ENDMDL
