MODEL 1
REMARK VINA RESULT:    -8.255      0.000      0.000
REMARK INTER + INTRA:          -9.759
REMARK INTER:                  -9.697
REMARK INTRA:                  -0.062
REMARK UNBOUND:                -0.056
REMARK  Name = 
REMARK  6 active torsions:
REMARK  status: ('A' for Active; 'I' for Inactive)
REMARK    1  A    between atoms: C_1  and  O_2
REMARK    2  A    between atoms: O_2  and  C_3
REMARK    3  A    between atoms: C_4  and  O_5
REMARK    4  A    between atoms: C_18  and  O_22
REMARK    5  A    between atoms: C_19  and  O_20
REMARK    6  A    between atoms: O_20  and  C_21
REMARK                            x       y       z     vdW  Elec       q    Type
REMARK                         _______ _______ _______ _____ _____    ______ ____
ROOT
ATOM      1  C   UNL     1      84.715  54.924  46.674  0.00  0.00    +0.169 A 
ATOM      2  C   UNL     1      84.486  54.646  48.035  0.00  0.00    +0.160 A 
ATOM      3  C   UNL     1      85.029  53.497  48.618  0.00  0.00    -0.009 A 
ATOM      4  C   UNL     1      85.796  52.606  47.856  0.00  0.00    -0.013 A 
ATOM      5  C   UNL     1      86.017  52.869  46.487  0.00  0.00    +0.001 A 
ATOM      6  C   UNL     1      85.473  54.030  45.891  0.00  0.00    +0.029 A 
ATOM      7  C   UNL     1      85.701  54.270  44.524  0.00  0.00    -0.050 A 
ATOM      8  C   UNL     1      86.458  53.380  43.760  0.00  0.00    -0.050 A 
ATOM      9  C   UNL     1      87.005  52.222  44.340  0.00  0.00    +0.029 A 
ATOM     10  C   UNL     1      86.784  51.968  45.713  0.00  0.00    +0.001 A 
ATOM     11  C   UNL     1      87.329  50.813  46.317  0.00  0.00    -0.013 A 
ATOM     12  C   UNL     1      87.103  50.565  47.678  0.00  0.00    -0.053 A 
ATOM     13  C   UNL     1      86.341  51.454  48.441  0.00  0.00    -0.053 A 
ATOM     14  C   UNL     1      88.094  49.925  45.549  0.00  0.00    -0.009 A 
ATOM     15  C   UNL     1      88.319  50.172  44.191  0.00  0.00    +0.160 A 
ATOM     16  C   UNL     1      87.766  51.312  43.578  0.00  0.00    +0.169 A 
ENDROOT
BRANCH   1  18
ATOM     17  C   UNL     1      84.880  57.322  46.168  0.00  0.00    +0.079 C 
ATOM     18  O   UNL     1      84.184  56.085  46.106  0.00  0.00    -0.491 OA
ENDBRANCH   1  18
BRANCH   2  19
ATOM     19  O   UNL     1      83.714  55.497  48.826  0.00  0.00    -0.503 OA
ATOM     20  H   UNL     1      82.957  55.168  49.269  0.00  0.00    +0.000 HD
ENDBRANCH   2  19
BRANCH  16  21
ATOM     21  O   UNL     1      87.981  51.538  42.216  0.00  0.00    -0.491 OA
ATOM     22  C   UNL     1      89.147  52.210  41.754  0.00  0.00    +0.079 C 
ENDBRANCH  16  21
BRANCH  15  23
ATOM     23  O   UNL     1      89.102  49.271  43.468  0.00  0.00    -0.503 OA
ATOM     24  H   UNL     1      89.225  49.392  42.547  0.00  0.00    +0.000 HD
ENDBRANCH  15  23
TORSDOF 4
ENDMDL
MODEL 2
REMARK VINA RESULT:    -8.254      0.494      5.628
REMARK INTER + INTRA:          -9.758
REMARK INTER:                  -9.689
REMARK INTRA:                  -0.069
REMARK UNBOUND:                -0.056
REMARK  Name = 
REMARK  6 active torsions:
REMARK  status: ('A' for Active; 'I' for Inactive)
REMARK    1  A    between atoms: C_1  and  O_2
REMARK    2  A    between atoms: O_2  and  C_3
REMARK    3  A    between atoms: C_4  and  O_5
REMARK    4  A    between atoms: C_18  and  O_22
REMARK    5  A    between atoms: C_19  and  O_20
REMARK    6  A    between atoms: O_20  and  C_21
REMARK                            x       y       z     vdW  Elec       q    Type
REMARK                         _______ _______ _______ _____ _____    ______ ____
ROOT
ATOM      1  C   UNL     1      87.872  51.312  43.626  0.00  0.00    +0.169 A 
ATOM      2  C   UNL     1      88.390  50.158  44.245  0.00  0.00    +0.160 A 
ATOM      3  C   UNL     1      88.127  49.907  45.595  0.00  0.00    -0.009 A 
ATOM      4  C   UNL     1      87.358  50.803  46.349  0.00  0.00    -0.013 A 
ATOM      5  C   UNL     1      86.849  51.971  45.741  0.00  0.00    +0.001 A 
ATOM      6  C   UNL     1      87.109  52.230  44.375  0.00  0.00    +0.029 A 
ATOM      7  C   UNL     1      86.597  53.402  43.790  0.00  0.00    -0.050 A 
ATOM      8  C   UNL     1      85.837  54.301  44.542  0.00  0.00    -0.050 A 
ATOM      9  C   UNL     1      85.571  54.055  45.900  0.00  0.00    +0.029 A 
ATOM     10  C   UNL     1      86.080  52.881  46.501  0.00  0.00    +0.001 A 
ATOM     11  C   UNL     1      85.821  52.613  47.864  0.00  0.00    -0.013 A 
ATOM     12  C   UNL     1      86.331  51.448  48.455  0.00  0.00    -0.053 A 
ATOM     13  C   UNL     1      87.095  50.551  47.703  0.00  0.00    -0.053 A 
ATOM     14  C   UNL     1      85.051  53.513  48.613  0.00  0.00    -0.009 A 
ATOM     15  C   UNL     1      84.543  54.675  48.024  0.00  0.00    +0.160 A 
ATOM     16  C   UNL     1      84.810  54.959  46.672  0.00  0.00    +0.169 A 
ENDROOT
BRANCH   1  18
ATOM     17  C   UNL     1      87.322  50.950  41.259  0.00  0.00    +0.079 C 
ATOM     18  O   UNL     1      88.125  51.544  42.271  0.00  0.00    -0.491 OA
ENDBRANCH   1  18
BRANCH   2  19
ATOM     19  O   UNL     1      89.174  49.248  43.535  0.00  0.00    -0.503 OA
ATOM     20  H   UNL     1      89.805  49.558  42.916  0.00  0.00    +0.000 HD
ENDBRANCH   2  19
BRANCH  16  21
ATOM     21  O   UNL     1      84.314  56.132  46.098  0.00  0.00    -0.491 OA
ATOM     22  C   UNL     1      85.044  57.351  46.162  0.00  0.00    +0.079 C 
ENDBRANCH  16  21
BRANCH  15  23
ATOM     23  O   UNL     1      83.768  55.536  48.802  0.00  0.00    -0.503 OA
ATOM     24  H   UNL     1      82.855  55.361  48.926  0.00  0.00    +0.000 HD
ENDBRANCH  15  23
TORSDOF 4
ENDMDL
MODEL 3
REMARK VINA RESULT:    -8.229      1.884      3.377
REMARK INTER + INTRA:          -9.728
REMARK INTER:                  -9.712
REMARK INTRA:                  -0.016
REMARK UNBOUND:                -0.056
REMARK  Name = 
REMARK  6 active torsions:
REMARK  status: ('A' for Active; 'I' for Inactive)
REMARK    1  A    between atoms: C_1  and  O_2
REMARK    2  A    between atoms: O_2  and  C_3
REMARK    3  A    between atoms: C_4  and  O_5
REMARK    4  A    between atoms: C_18  and  O_22
REMARK    5  A    between atoms: C_19  and  O_20
REMARK    6  A    between atoms: O_20  and  C_21
REMARK                            x       y       z     vdW  Elec       q    Type
REMARK                         _______ _______ _______ _____ _____    ______ ____
ROOT
ATOM      1  C   UNL     1      85.282  56.120  44.460  0.00  0.00    +0.169 A 
ATOM      2  C   UNL     1      84.650  57.013  45.346  0.00  0.00    +0.160 A 
ATOM      3  C   UNL     1      84.459  56.658  46.685  0.00  0.00    -0.009 A 
ATOM      4  C   UNL     1      84.884  55.409  47.158  0.00  0.00    -0.013 A 
ATOM      5  C   UNL     1      85.504  54.501  46.273  0.00  0.00    +0.001 A 
ATOM      6  C   UNL     1      85.702  54.854  44.918  0.00  0.00    +0.029 A 
ATOM      7  C   UNL     1      86.318  53.933  44.052  0.00  0.00    -0.050 A 
ATOM      8  C   UNL     1      86.735  52.685  44.519  0.00  0.00    -0.050 A 
ATOM      9  C   UNL     1      86.544  52.321  45.863  0.00  0.00    +0.029 A 
ATOM     10  C   UNL     1      85.927  53.238  46.745  0.00  0.00    +0.001 A 
ATOM     11  C   UNL     1      85.730  52.893  48.101  0.00  0.00    -0.013 A 
ATOM     12  C   UNL     1      85.114  53.806  48.969  0.00  0.00    -0.053 A 
ATOM     13  C   UNL     1      84.693  55.054  48.500  0.00  0.00    -0.053 A 
ATOM     14  C   UNL     1      86.156  51.643  48.567  0.00  0.00    -0.009 A 
ATOM     15  C   UNL     1      86.770  50.733  47.702  0.00  0.00    +0.160 A 
ATOM     16  C   UNL     1      86.956  51.061  46.345  0.00  0.00    +0.169 A 
ENDROOT
BRANCH   1  18
ATOM     17  C   UNL     1      84.542  56.160  42.118  0.00  0.00    +0.079 C 
ATOM     18  O   UNL     1      85.485  56.492  43.129  0.00  0.00    -0.491 OA
ENDBRANCH   1  18
BRANCH   2  19
ATOM     19  O   UNL     1      84.196  58.259  44.912  0.00  0.00    -0.503 OA
ATOM     20  H   UNL     1      84.275  58.498  44.010  0.00  0.00    +0.000 HD
ENDBRANCH   2  19
BRANCH  16  21
ATOM     21  O   UNL     1      87.553  50.136  45.484  0.00  0.00    -0.491 OA
ATOM     22  C   UNL     1      86.775  49.187  44.766  0.00  0.00    +0.079 C 
ENDBRANCH  16  21
BRANCH  15  23
ATOM     23  O   UNL     1      87.195  49.505  48.212  0.00  0.00    -0.503 OA
ATOM     24  H   UNL     1      87.162  48.738  47.675  0.00  0.00    +0.000 HD
ENDBRANCH  15  23
TORSDOF 4
ENDMDL
MODEL 4
REMARK VINA RESULT:    -8.171      1.969      5.259
REMARK INTER + INTRA:          -9.659
REMARK INTER:                  -9.631
REMARK INTRA:                  -0.028
REMARK UNBOUND:                -0.056
REMARK  Name = 
REMARK  6 active torsions:
REMARK  status: ('A' for Active; 'I' for Inactive)
REMARK    1  A    between atoms: C_1  and  O_2
REMARK    2  A    between atoms: O_2  and  C_3
REMARK    3  A    between atoms: C_4  and  O_5
REMARK    4  A    between atoms: C_18  and  O_22
REMARK    5  A    between atoms: C_19  and  O_20
REMARK    6  A    between atoms: O_20  and  C_21
REMARK                            x       y       z     vdW  Elec       q    Type
REMARK                         _______ _______ _______ _____ _____    ______ ____
ROOT
ATOM      1  C   UNL     1      86.771  50.899  46.194  0.00  0.00    +0.169 A 
ATOM      2  C   UNL     1      86.664  50.707  47.585  0.00  0.00    +0.160 A 
ATOM      3  C   UNL     1      86.178  51.734  48.400  0.00  0.00    -0.009 A 
ATOM      4  C   UNL     1      85.804  52.966  47.847  0.00  0.00    -0.013 A 
ATOM      5  C   UNL     1      85.924  53.172  46.456  0.00  0.00    +0.001 A 
ATOM      6  C   UNL     1      86.412  52.138  45.625  0.00  0.00    +0.029 A 
ATOM      7  C   UNL     1      86.528  52.366  44.242  0.00  0.00    -0.050 A 
ATOM      8  C   UNL     1      86.164  53.595  43.689  0.00  0.00    -0.050 A 
ATOM      9  C   UNL     1      85.677  54.632  44.503  0.00  0.00    +0.029 A 
ATOM     10  C   UNL     1      85.555  54.416  45.895  0.00  0.00    +0.001 A 
ATOM     11  C   UNL     1      85.063  55.444  46.731  0.00  0.00    -0.013 A 
ATOM     12  C   UNL     1      84.947  55.225  48.111  0.00  0.00    -0.053 A 
ATOM     13  C   UNL     1      85.316  53.995  48.664  0.00  0.00    -0.053 A 
ATOM     14  C   UNL     1      84.690  56.673  46.172  0.00  0.00    -0.009 A 
ATOM     15  C   UNL     1      84.806  56.893  44.796  0.00  0.00    +0.160 A 
ATOM     16  C   UNL     1      85.311  55.880  43.958  0.00  0.00    +0.169 A 
ENDROOT
BRANCH   1  18
ATOM     17  C   UNL     1      86.355  48.885  44.851  0.00  0.00    +0.079 C 
ATOM     18  O   UNL     1      87.240  49.860  45.386  0.00  0.00    -0.491 OA
ENDBRANCH   1  18
BRANCH   2  19
ATOM     19  O   UNL     1      87.042  49.502  48.179  0.00  0.00    -0.503 OA
ATOM     20  H   UNL     1      86.390  48.930  48.532  0.00  0.00    +0.000 HD
ENDBRANCH   2  19
BRANCH  16  21
ATOM     21  O   UNL     1      85.441  56.117  42.586  0.00  0.00    -0.491 OA
ATOM     22  C   UNL     1      84.400  55.779  41.678  0.00  0.00    +0.079 C 
ENDBRANCH  16  21
BRANCH  15  23
ATOM     23  O   UNL     1      84.408  58.126  44.278  0.00  0.00    -0.503 OA
ATOM     24  H   UNL     1      83.907  58.162  43.487  0.00  0.00    +0.000 HD
ENDBRANCH  15  23
TORSDOF 4
ENDMDL
MODEL 5
REMARK VINA RESULT:    -7.866      4.178      5.658
REMARK INTER + INTRA:          -9.302
REMARK INTER:                  -9.259
REMARK INTRA:                  -0.043
REMARK UNBOUND:                -0.056
REMARK  Name = 
REMARK  6 active torsions:
REMARK  status: ('A' for Active; 'I' for Inactive)
REMARK    1  A    between atoms: C_1  and  O_2
REMARK    2  A    between atoms: O_2  and  C_3
REMARK    3  A    between atoms: C_4  and  O_5
REMARK    4  A    between atoms: C_18  and  O_22
REMARK    5  A    between atoms: C_19  and  O_20
REMARK    6  A    between atoms: O_20  and  C_21
REMARK                            x       y       z     vdW  Elec       q    Type
REMARK                         _______ _______ _______ _____ _____    ______ ____
ROOT
ATOM      1  C   UNL     1      85.458  54.130  42.546  0.00  0.00    +0.169 A 
ATOM      2  C   UNL     1      84.506  54.905  41.855  0.00  0.00    +0.160 A 
ATOM      3  C   UNL     1      83.255  54.365  41.540  0.00  0.00    -0.009 A 
ATOM      4  C   UNL     1      82.938  53.048  41.896  0.00  0.00    -0.013 A 
ATOM      5  C   UNL     1      83.892  52.259  42.575  0.00  0.00    +0.001 A 
ATOM      6  C   UNL     1      85.158  52.799  42.899  0.00  0.00    +0.029 A 
ATOM      7  C   UNL     1      86.095  51.994  43.571  0.00  0.00    -0.050 A 
ATOM      8  C   UNL     1      85.785  50.678  43.920  0.00  0.00    -0.050 A 
ATOM      9  C   UNL     1      84.530  50.129  43.604  0.00  0.00    +0.029 A 
ATOM     10  C   UNL     1      83.578  50.927  42.929  0.00  0.00    +0.001 A 
ATOM     11  C   UNL     1      82.309  50.395  42.606  0.00  0.00    -0.013 A 
ATOM     12  C   UNL     1      81.370  51.191  41.934  0.00  0.00    -0.053 A 
ATOM     13  C   UNL     1      81.684  52.507  41.581  0.00  0.00    -0.053 A 
ATOM     14  C   UNL     1      81.998  49.077  42.965  0.00  0.00    -0.009 A 
ATOM     15  C   UNL     1      82.934  48.283  43.635  0.00  0.00    +0.160 A 
ATOM     16  C   UNL     1      84.206  48.799  43.946  0.00  0.00    +0.169 A 
ENDROOT
BRANCH   1  18
ATOM     17  C   UNL     1      86.842  55.566  43.979  0.00  0.00    +0.079 C 
ATOM     18  O   UNL     1      86.697  54.685  42.873  0.00  0.00    -0.491 OA
ENDBRANCH   1  18
BRANCH   2  19
ATOM     19  O   UNL     1      84.788  56.215  41.466  0.00  0.00    -0.503 OA
ATOM     20  H   UNL     1      84.211  56.664  40.880  0.00  0.00    +0.000 HD
ENDBRANCH   2  19
BRANCH  16  21
ATOM     21  O   UNL     1      85.141  47.990  44.599  0.00  0.00    -0.491 OA
ATOM     22  C   UNL     1      85.885  47.006  43.893  0.00  0.00    +0.079 C 
ENDBRANCH  16  21
BRANCH  15  23
ATOM     23  O   UNL     1      82.576  46.981  43.989  0.00  0.00    -0.503 OA
ATOM     24  H   UNL     1      81.672  46.735  44.018  0.00  0.00    +0.000 HD
ENDBRANCH  15  23
TORSDOF 4
ENDMDL
MODEL 6
REMARK VINA RESULT:    -7.749      4.641      7.637
REMARK INTER + INTRA:          -9.163
REMARK INTER:                  -9.111
REMARK INTRA:                  -0.052
REMARK UNBOUND:                -0.056
REMARK  Name = 
REMARK  6 active torsions:
REMARK  status: ('A' for Active; 'I' for Inactive)
REMARK    1  A    between atoms: C_1  and  O_2
REMARK    2  A    between atoms: O_2  and  C_3
REMARK    3  A    between atoms: C_4  and  O_5
REMARK    4  A    between atoms: C_18  and  O_22
REMARK    5  A    between atoms: C_19  and  O_20
REMARK    6  A    between atoms: O_20  and  C_21
REMARK                            x       y       z     vdW  Elec       q    Type
REMARK                         _______ _______ _______ _____ _____    ______ ____
ROOT
ATOM      1  C   UNL     1      86.747  46.222  42.932  0.00  0.00    +0.169 A 
ATOM      2  C   UNL     1      87.778  45.317  42.617  0.00  0.00    +0.160 A 
ATOM      3  C   UNL     1      89.009  45.789  42.152  0.00  0.00    -0.009 A 
ATOM      4  C   UNL     1      89.228  47.162  41.983  0.00  0.00    -0.013 A 
ATOM      5  C   UNL     1      88.194  48.076  42.282  0.00  0.00    +0.001 A 
ATOM      6  C   UNL     1      86.947  47.606  42.755  0.00  0.00    +0.029 A 
ATOM      7  C   UNL     1      85.929  48.533  43.041  0.00  0.00    -0.050 A 
ATOM      8  C   UNL     1      86.142  49.902  42.867  0.00  0.00    -0.050 A 
ATOM      9  C   UNL     1      87.376  50.383  42.397  0.00  0.00    +0.029 A 
ATOM     10  C   UNL     1      88.409  49.462  42.105  0.00  0.00    +0.001 A 
ATOM     11  C   UNL     1      89.659  49.924  41.637  0.00  0.00    -0.013 A 
ATOM     12  C   UNL     1      90.678  49.006  41.346  0.00  0.00    -0.053 A 
ATOM     13  C   UNL     1      90.463  47.635  41.517  0.00  0.00    -0.053 A 
ATOM     14  C   UNL     1      89.871  51.299  41.471  0.00  0.00    -0.009 A 
ATOM     15  C   UNL     1      88.856  52.216  41.760  0.00  0.00    +0.160 A 
ATOM     16  C   UNL     1      87.601  51.763  42.211  0.00  0.00    +0.169 A 
ENDROOT
BRANCH   1  18
ATOM     17  C   UNL     1      84.479  45.368  42.530  0.00  0.00    +0.079 C 
ATOM     18  O   UNL     1      85.527  45.742  43.415  0.00  0.00    -0.491 OA
ENDBRANCH   1  18
BRANCH   2  19
ATOM     19  O   UNL     1      87.596  43.940  42.753  0.00  0.00    -0.503 OA
ATOM     20  H   UNL     1      87.902  43.502  43.522  0.00  0.00    +0.000 HD
ENDBRANCH   2  19
BRANCH  16  21
ATOM     21  O   UNL     1      86.587  52.686  42.479  0.00  0.00    -0.491 OA
ATOM     22  C   UNL     1      85.707  53.133  41.455  0.00  0.00    +0.079 C 
ENDBRANCH  16  21
BRANCH  15  23
ATOM     23  O   UNL     1      89.115  53.577  41.596  0.00  0.00    -0.503 OA
ATOM     24  H   UNL     1      90.000  53.883  41.556  0.00  0.00    +0.000 HD
ENDBRANCH  15  23
TORSDOF 4
ENDMDL
MODEL 7
REMARK VINA RESULT:    -7.746      4.561      6.541
REMARK INTER + INTRA:          -9.160
REMARK INTER:                  -9.103
REMARK INTRA:                  -0.057
REMARK UNBOUND:                -0.056
REMARK  Name = 
REMARK  6 active torsions:
REMARK  status: ('A' for Active; 'I' for Inactive)
REMARK    1  A    between atoms: C_1  and  O_2
REMARK    2  A    between atoms: O_2  and  C_3
REMARK    3  A    between atoms: C_4  and  O_5
REMARK    4  A    between atoms: C_18  and  O_22
REMARK    5  A    between atoms: C_19  and  O_20
REMARK    6  A    between atoms: O_20  and  C_21
REMARK                            x       y       z     vdW  Elec       q    Type
REMARK                         _______ _______ _______ _____ _____    ______ ____
ROOT
ATOM      1  C   UNL     1      87.490  51.767  42.298  0.00  0.00    +0.169 A 
ATOM      2  C   UNL     1      88.730  52.242  41.829  0.00  0.00    +0.160 A 
ATOM      3  C   UNL     1      89.754  51.343  41.515  0.00  0.00    -0.009 A 
ATOM      4  C   UNL     1      89.564  49.964  41.673  0.00  0.00    -0.013 A 
ATOM      5  C   UNL     1      88.330  49.480  42.158  0.00  0.00    +0.001 A 
ATOM      6  C   UNL     1      87.289  50.383  42.475  0.00  0.00    +0.029 A 
ATOM      7  C   UNL     1      86.070  49.879  42.961  0.00  0.00    -0.050 A 
ATOM      8  C   UNL     1      85.881  48.506  43.127  0.00  0.00    -0.050 A 
ATOM      9  C   UNL     1      86.906  47.597  42.816  0.00  0.00    +0.029 A 
ATOM     10  C   UNL     1      88.138  48.089  42.326  0.00  0.00    +0.001 A 
ATOM     11  C   UNL     1      89.181  47.193  42.002  0.00  0.00    -0.013 A 
ATOM     12  C   UNL     1      90.401  47.688  41.520  0.00  0.00    -0.053 A 
ATOM     13  C   UNL     1      90.591  49.063  41.358  0.00  0.00    -0.053 A 
ATOM     14  C   UNL     1      88.985  45.815  42.162  0.00  0.00    -0.009 A 
ATOM     15  C   UNL     1      87.769  45.321  42.644  0.00  0.00    +0.160 A 
ATOM     16  C   UNL     1      86.730  46.208  42.985  0.00  0.00    +0.169 A 
ENDROOT
BRANCH   1  18
ATOM     17  C   UNL     1      85.598  53.157  41.574  0.00  0.00    +0.079 C 
ATOM     18  O   UNL     1      86.467  52.672  42.590  0.00  0.00    -0.491 OA
ENDBRANCH   1  18
BRANCH   2  19
ATOM     19  O   UNL     1      88.967  53.608  41.674  0.00  0.00    -0.503 OA
ATOM     20  H   UNL     1      88.647  54.215  42.312  0.00  0.00    +0.000 HD
ENDBRANCH   2  19
BRANCH  16  21
ATOM     21  O   UNL     1      85.525  45.705  43.483  0.00  0.00    -0.491 OA
ATOM     22  C   UNL     1      84.496  45.255  42.611  0.00  0.00    +0.079 C 
ENDBRANCH  16  21
BRANCH  15  23
ATOM     23  O   UNL     1      87.611  43.940  42.772  0.00  0.00    -0.503 OA
ATOM     24  H   UNL     1      87.264  43.581  43.565  0.00  0.00    +0.000 HD
ENDBRANCH  15  23
TORSDOF 4
ENDMDL
MODEL 8
REMARK VINA RESULT:    -7.530      3.660      5.317
REMARK INTER + INTRA:          -8.907
REMARK INTER:                  -8.859
REMARK INTRA:                  -0.048
REMARK UNBOUND:                -0.056
REMARK  Name = 
REMARK  6 active torsions:
REMARK  status: ('A' for Active; 'I' for Inactive)
REMARK    1  A    between atoms: C_1  and  O_2
REMARK    2  A    between atoms: O_2  and  C_3
REMARK    3  A    between atoms: C_4  and  O_5
REMARK    4  A    between atoms: C_18  and  O_22
REMARK    5  A    between atoms: C_19  and  O_20
REMARK    6  A    between atoms: O_20  and  C_21
REMARK                            x       y       z     vdW  Elec       q    Type
REMARK                         _______ _______ _______ _____ _____    ______ ____
ROOT
ATOM      1  C   UNL     1      85.702  55.351  44.282  0.00  0.00    +0.169 A 
ATOM      2  C   UNL     1      85.220  56.394  43.468  0.00  0.00    +0.160 A 
ATOM      3  C   UNL     1      84.215  56.145  42.528  0.00  0.00    -0.009 A 
ATOM      4  C   UNL     1      83.686  54.857  42.376  0.00  0.00    -0.013 A 
ATOM      5  C   UNL     1      84.175  53.802  43.176  0.00  0.00    +0.001 A 
ATOM      6  C   UNL     1      85.189  54.047  44.131  0.00  0.00    +0.029 A 
ATOM      7  C   UNL     1      85.665  52.981  44.914  0.00  0.00    -0.050 A 
ATOM      8  C   UNL     1      85.145  51.694  44.759  0.00  0.00    -0.050 A 
ATOM      9  C   UNL     1      84.137  51.437  43.814  0.00  0.00    +0.029 A 
ATOM     10  C   UNL     1      83.648  52.500  43.020  0.00  0.00    +0.001 A 
ATOM     11  C   UNL     1      82.632  52.263  42.067  0.00  0.00    -0.013 A 
ATOM     12  C   UNL     1      82.154  53.321  41.280  0.00  0.00    -0.053 A 
ATOM     13  C   UNL     1      82.679  54.608  41.433  0.00  0.00    -0.053 A 
ATOM     14  C   UNL     1      82.106  50.973  41.920  0.00  0.00    -0.009 A 
ATOM     15  C   UNL     1      82.583  49.917  42.704  0.00  0.00    +0.160 A 
ATOM     16  C   UNL     1      83.607  50.140  43.644  0.00  0.00    +0.169 A 
ENDROOT
BRANCH   1  18
ATOM     17  C   UNL     1      86.358  55.962  46.569  0.00  0.00    +0.079 C 
ATOM     18  O   UNL     1      86.692  55.615  45.231  0.00  0.00    -0.491 OA
ENDBRANCH   1  18
BRANCH   2  19
ATOM     19  O   UNL     1      85.732  57.688  43.574  0.00  0.00    -0.503 OA
ATOM     20  H   UNL     1      85.348  58.295  44.176  0.00  0.00    +0.000 HD
ENDBRANCH   2  19
BRANCH  16  21
ATOM     21  O   UNL     1      84.089  49.075  44.409  0.00  0.00    -0.491 OA
ATOM     22  C   UNL     1      85.110  48.216  43.917  0.00  0.00    +0.079 C 
ENDBRANCH  16  21
BRANCH  15  23
ATOM     23  O   UNL     1      82.020  48.651  42.537  0.00  0.00    -0.503 OA
ATOM     24  H   UNL     1      81.699  48.389  41.696  0.00  0.00    +0.000 HD
ENDBRANCH  15  23
TORSDOF 4
ENDMDL
MODEL 9
REMARK VINA RESULT:    -7.390      2.118      3.722
REMARK INTER + INTRA:          -8.742
REMARK INTER:                  -8.686
REMARK INTRA:                  -0.056
REMARK UNBOUND:                -0.056
REMARK  Name = 
REMARK  6 active torsions:
REMARK  status: ('A' for Active; 'I' for Inactive)
REMARK    1  A    between atoms: C_1  and  O_2
REMARK    2  A    between atoms: O_2  and  C_3
REMARK    3  A    between atoms: C_4  and  O_5
REMARK    4  A    between atoms: C_18  and  O_22
REMARK    5  A    between atoms: C_19  and  O_20
REMARK    6  A    between atoms: O_20  and  C_21
REMARK                            x       y       z     vdW  Elec       q    Type
REMARK                         _______ _______ _______ _____ _____    ______ ____
ROOT
ATOM      1  C   UNL     1      85.734  52.747  47.435  0.00  0.00    +0.169 A 
ATOM      2  C   UNL     1      86.451  51.659  47.970  0.00  0.00    +0.160 A 
ATOM      3  C   UNL     1      87.214  50.840  47.132  0.00  0.00    -0.009 A 
ATOM      4  C   UNL     1      87.265  51.083  45.753  0.00  0.00    -0.013 A 
ATOM      5  C   UNL     1      86.536  52.161  45.207  0.00  0.00    +0.001 A 
ATOM      6  C   UNL     1      85.765  52.995  46.048  0.00  0.00    +0.029 A 
ATOM      7  C   UNL     1      85.042  54.061  45.482  0.00  0.00    -0.050 A 
ATOM      8  C   UNL     1      85.085  54.300  44.107  0.00  0.00    -0.050 A 
ATOM      9  C   UNL     1      85.848  53.479  43.259  0.00  0.00    +0.029 A 
ATOM     10  C   UNL     1      86.580  52.404  43.814  0.00  0.00    +0.001 A 
ATOM     11  C   UNL     1      87.357  51.570  42.980  0.00  0.00    -0.013 A 
ATOM     12  C   UNL     1      88.077  50.504  43.537  0.00  0.00    -0.053 A 
ATOM     13  C   UNL     1      88.030  50.262  44.913  0.00  0.00    -0.053 A 
ATOM     14  C   UNL     1      87.404  51.818  41.602  0.00  0.00    -0.009 A 
ATOM     15  C   UNL     1      86.685  52.880  41.046  0.00  0.00    +0.160 A 
ATOM     16  C   UNL     1      85.895  53.707  41.867  0.00  0.00    +0.169 A 
ENDROOT
BRANCH   1  18
ATOM     17  C   UNL     1      83.672  53.219  48.684  0.00  0.00    +0.079 C 
ATOM     18  O   UNL     1      84.990  53.571  48.284  0.00  0.00    -0.491 OA
ENDBRANCH   1  18
BRANCH   2  19
ATOM     19  O   UNL     1      86.413  51.372  49.335  0.00  0.00    -0.503 OA
ATOM     20  H   UNL     1      85.740  51.738  49.872  0.00  0.00    +0.000 HD
ENDBRANCH   2  19
BRANCH  16  21
ATOM     21  O   UNL     1      85.165  54.754  41.299  0.00  0.00    -0.491 OA
ATOM     22  C   UNL     1      83.890  54.531  40.710  0.00  0.00    +0.079 C 
ENDBRANCH  16  21
BRANCH  15  23
ATOM     23  O   UNL     1      86.774  53.102  39.671  0.00  0.00    -0.503 OA
ATOM     24  H   UNL     1      86.007  53.039  39.136  0.00  0.00    +0.000 HD
ENDBRANCH  15  23
TORSDOF 4
ENDMDL
