MODEL 1
REMARK VINA RESULT:    -7.917      0.000      0.000
REMARK INTER + INTRA:         -11.021
REMARK INTER:                 -10.469
REMARK INTRA:                  -0.552
REMARK UNBOUND:                -1.253
REMARK  Name = 
REMARK  9 active torsions:
REMARK  status: ('A' for Active; 'I' for Inactive)
REMARK    1  A    between atoms: C_1  and  C_2
REMARK    2  A    between atoms: C_3  and  C_4
REMARK    3  A    between atoms: C_4  and  C_5
REMARK    4  A    between atoms: C_4  and  C_19
REMARK    5  A    between atoms: C_4  and  C_20
REMARK    6  A    between atoms: C_11  and  C_12
REMARK    7  A    between atoms: C_12  and  C_13
REMARK    8  A    between atoms: C_14  and  C_15
REMARK    9  A    between atoms: C_14  and  C_16
REMARK                            x       y       z     vdW  Elec       q    Type
REMARK                         _______ _______ _______ _____ _____    ______ ____
ROOT
ATOM      1  C   UNL     1      84.891  56.537  45.824  0.00  0.00    -0.013 A 
ATOM      2  C   UNL     1      83.892  57.451  46.187  0.00  0.00    +0.007 A 
ATOM      3  N   UNL     1      83.306  57.094  47.348  0.00  0.00    -0.360 N 
ATOM      4  C   UNL     1      83.895  55.952  47.728  0.00  0.00    +0.047 A 
ATOM      5  C   UNL     1      84.858  55.566  46.827  0.00  0.00    +0.004 A 
ATOM      6  C   UNL     1      85.563  54.370  47.000  0.00  0.00    -0.049 A 
ATOM      7  C   UNL     1      85.275  53.573  48.131  0.00  0.00    -0.043 A 
ATOM      8  C   UNL     1      84.298  54.001  49.062  0.00  0.00    -0.056 A 
ATOM      9  C   UNL     1      83.593  55.197  48.858  0.00  0.00    -0.038 A 
ATOM     10  H   UNL     1      82.589  57.575  47.822  0.00  0.00    +0.000 HD
ENDROOT
BRANCH   1  11
ATOM     11  C   UNL     1      85.743  56.575  44.551  0.00  0.00    +0.010 C 
ATOM     12  C   UNL     1      87.152  56.043  44.877  0.00  0.00    -0.052 C 
ATOM     13  C   UNL     1      85.854  58.016  44.001  0.00  0.00    -0.052 C 
BRANCH  11  16
ATOM     14  C   UNL     1      83.522  55.151  41.671  0.00  0.00    -0.047 C 
ATOM     15  C   UNL     1      84.074  56.052  42.731  0.00  0.00    -0.090 C 
ATOM     16  C   UNL     1      85.143  55.687  43.461  0.00  0.00    -0.078 C 
ENDBRANCH  11  16
ENDBRANCH   1  11
BRANCH   7  17
ATOM     17  C   UNL     1      86.019  52.281  48.352  0.00  0.00    -0.009 C 
BRANCH  17  18
ATOM     18  C   UNL     1      86.436  51.649  47.045  0.00  0.00    -0.081 C 
ATOM     19  C   UNL     1      87.359  50.669  46.929  0.00  0.00    -0.079 C 
ATOM     20  C   UNL     1      87.675  50.139  45.556  0.00  0.00    -0.044 C 
ATOM     21  C   UNL     1      88.077  50.102  48.130  0.00  0.00    -0.044 C 
ENDBRANCH  17  18
ENDBRANCH   7  17
TORSDOF 4
ENDMDL
MODEL 2
REMARK VINA RESULT:    -7.557      2.354      4.432
REMARK INTER + INTRA:         -10.577
REMARK INTER:                  -9.894
REMARK INTRA:                  -0.683
REMARK UNBOUND:                -1.253
REMARK  Name = 
REMARK  9 active torsions:
REMARK  status: ('A' for Active; 'I' for Inactive)
REMARK    1  A    between atoms: C_1  and  C_2
REMARK    2  A    between atoms: C_3  and  C_4
REMARK    3  A    between atoms: C_4  and  C_5
REMARK    4  A    between atoms: C_4  and  C_19
REMARK    5  A    between atoms: C_4  and  C_20
REMARK    6  A    between atoms: C_11  and  C_12
REMARK    7  A    between atoms: C_12  and  C_13
REMARK    8  A    between atoms: C_14  and  C_15
REMARK    9  A    between atoms: C_14  and  C_16
REMARK                            x       y       z     vdW  Elec       q    Type
REMARK                         _______ _______ _______ _____ _____    ______ ____
ROOT
ATOM      1  C   UNL     1      85.724  53.558  47.472  0.00  0.00    -0.013 A 
ATOM      2  C   UNL     1      85.477  53.178  48.798  0.00  0.00    +0.007 A 
ATOM      3  N   UNL     1      85.980  51.954  49.055  0.00  0.00    -0.360 N 
ATOM      4  C   UNL     1      86.529  51.529  47.909  0.00  0.00    +0.047 A 
ATOM      5  C   UNL     1      86.388  52.465  46.913  0.00  0.00    +0.004 A 
ATOM      6  C   UNL     1      86.841  52.204  45.615  0.00  0.00    -0.049 A 
ATOM      7  C   UNL     1      87.463  50.963  45.353  0.00  0.00    -0.043 A 
ATOM      8  C   UNL     1      87.623  50.022  46.398  0.00  0.00    -0.056 A 
ATOM      9  C   UNL     1      87.145  50.300  47.688  0.00  0.00    -0.038 A 
ATOM     10  H   UNL     1      85.952  51.469  49.912  0.00  0.00    +0.000 HD
ENDROOT
BRANCH   1  11
ATOM     11  C   UNL     1      85.266  54.855  46.794  0.00  0.00    +0.010 C 
ATOM     12  C   UNL     1      86.496  55.752  46.552  0.00  0.00    -0.052 C 
ATOM     13  C   UNL     1      84.245  55.610  47.675  0.00  0.00    -0.052 C 
BRANCH  11  16
ATOM     14  C   UNL     1      84.337  54.862  43.001  0.00  0.00    -0.047 C 
ATOM     15  C   UNL     1      84.999  55.178  44.305  0.00  0.00    -0.090 C 
ATOM     16  C   UNL     1      84.617  54.567  45.440  0.00  0.00    -0.078 C 
ENDBRANCH  11  16
ENDBRANCH   1  11
BRANCH   7  17
ATOM     17  C   UNL     1      87.969  50.651  43.967  0.00  0.00    -0.009 C 
BRANCH  17  18
ATOM     18  C   UNL     1      88.848  49.423  43.960  0.00  0.00    -0.081 C 
ATOM     19  C   UNL     1      89.718  49.112  42.974  0.00  0.00    -0.079 C 
ATOM     20  C   UNL     1      90.527  47.848  43.103  0.00  0.00    -0.044 C 
ATOM     21  C   UNL     1      89.893  49.988  41.757  0.00  0.00    -0.044 C 
ENDBRANCH  17  18
ENDBRANCH   7  17
TORSDOF 4
ENDMDL
MODEL 3
REMARK VINA RESULT:    -7.351      1.905      5.518
REMARK INTER + INTRA:         -10.323
REMARK INTER:                  -9.281
REMARK INTRA:                  -1.042
REMARK UNBOUND:                -1.253
REMARK  Name = 
REMARK  9 active torsions:
REMARK  status: ('A' for Active; 'I' for Inactive)
REMARK    1  A    between atoms: C_1  and  C_2
REMARK    2  A    between atoms: C_3  and  C_4
REMARK    3  A    between atoms: C_4  and  C_5
REMARK    4  A    between atoms: C_4  and  C_19
REMARK    5  A    between atoms: C_4  and  C_20
REMARK    6  A    between atoms: C_11  and  C_12
REMARK    7  A    between atoms: C_12  and  C_13
REMARK    8  A    between atoms: C_14  and  C_15
REMARK    9  A    between atoms: C_14  and  C_16
REMARK                            x       y       z     vdW  Elec       q    Type
REMARK                         _______ _______ _______ _____ _____    ______ ____
ROOT
ATOM      1  C   UNL     1      85.584  54.587  46.458  0.00  0.00    -0.013 A 
ATOM      2  C   UNL     1      85.924  55.638  47.321  0.00  0.00    +0.007 A 
ATOM      3  N   UNL     1      85.698  56.834  46.742  0.00  0.00    -0.360 N 
ATOM      4  C   UNL     1      85.240  56.572  45.510  0.00  0.00    +0.047 A 
ATOM      5  C   UNL     1      85.164  55.219  45.286  0.00  0.00    +0.004 A 
ATOM      6  C   UNL     1      84.760  54.721  44.042  0.00  0.00    -0.049 A 
ATOM      7  C   UNL     1      84.416  55.639  43.025  0.00  0.00    -0.043 A 
ATOM      8  C   UNL     1      84.475  57.029  43.284  0.00  0.00    -0.056 A 
ATOM      9  C   UNL     1      84.898  57.505  44.534  0.00  0.00    -0.038 A 
ATOM     10  H   UNL     1      85.841  57.723  47.142  0.00  0.00    +0.000 HD
ENDROOT
BRANCH   1  11
ATOM     11  C   UNL     1      85.744  53.088  46.737  0.00  0.00    +0.010 C 
ATOM     12  C   UNL     1      85.712  52.859  48.261  0.00  0.00    -0.052 C 
ATOM     13  C   UNL     1      87.080  52.557  46.167  0.00  0.00    -0.052 C 
BRANCH  11  16
ATOM     14  C   UNL     1      83.649  50.578  44.602  0.00  0.00    -0.047 C 
ATOM     15  C   UNL     1      84.799  51.340  45.182  0.00  0.00    -0.090 C 
ATOM     16  C   UNL     1      84.601  52.288  46.115  0.00  0.00    -0.078 C 
ENDBRANCH  11  16
ENDBRANCH   1  11
BRANCH   7  17
ATOM     17  C   UNL     1      83.971  55.136  41.675  0.00  0.00    -0.009 C 
BRANCH  17  18
ATOM     18  C   UNL     1      83.526  53.694  41.737  0.00  0.00    -0.081 C 
ATOM     19  C   UNL     1      82.238  53.290  41.697  0.00  0.00    -0.079 C 
ATOM     20  C   UNL     1      81.946  51.814  41.773  0.00  0.00    -0.044 C 
ATOM     21  C   UNL     1      81.096  54.271  41.583  0.00  0.00    -0.044 C 
ENDBRANCH  17  18
ENDBRANCH   7  17
TORSDOF 4
ENDMDL
MODEL 4
REMARK VINA RESULT:    -7.334      1.907      4.283
REMARK INTER + INTRA:         -10.302
REMARK INTER:                  -9.165
REMARK INTRA:                  -1.137
REMARK UNBOUND:                -1.253
REMARK  Name = 
REMARK  9 active torsions:
REMARK  status: ('A' for Active; 'I' for Inactive)
REMARK    1  A    between atoms: C_1  and  C_2
REMARK    2  A    between atoms: C_3  and  C_4
REMARK    3  A    between atoms: C_4  and  C_5
REMARK    4  A    between atoms: C_4  and  C_19
REMARK    5  A    between atoms: C_4  and  C_20
REMARK    6  A    between atoms: C_11  and  C_12
REMARK    7  A    between atoms: C_12  and  C_13
REMARK    8  A    between atoms: C_14  and  C_15
REMARK    9  A    between atoms: C_14  and  C_16
REMARK                            x       y       z     vdW  Elec       q    Type
REMARK                         _______ _______ _______ _____ _____    ______ ____
ROOT
ATOM      1  C   UNL     1      84.713  55.755  45.172  0.00  0.00    -0.013 A 
ATOM      2  C   UNL     1      84.134  56.544  44.169  0.00  0.00    +0.007 A 
ATOM      3  N   UNL     1      84.370  56.025  42.947  0.00  0.00    -0.360 N 
ATOM      4  C   UNL     1      85.111  54.926  43.144  0.00  0.00    +0.047 A 
ATOM      5  C   UNL     1      85.357  54.726  44.481  0.00  0.00    +0.004 A 
ATOM      6  C   UNL     1      86.159  53.664  44.911  0.00  0.00    -0.049 A 
ATOM      7  C   UNL     1      86.700  52.790  43.942  0.00  0.00    -0.043 A 
ATOM      8  C   UNL     1      86.413  52.996  42.571  0.00  0.00    -0.056 A 
ATOM      9  C   UNL     1      85.619  54.079  42.163  0.00  0.00    -0.038 A 
ATOM     10  H   UNL     1      84.060  56.381  42.082  0.00  0.00    +0.000 HD
ENDROOT
BRANCH   1  11
ATOM     11  C   UNL     1      84.704  56.043  46.678  0.00  0.00    +0.010 C 
ATOM     12  C   UNL     1      83.835  57.288  46.943  0.00  0.00    -0.052 C 
ATOM     13  C   UNL     1      86.137  56.296  47.202  0.00  0.00    -0.052 C 
BRANCH  11  16
ATOM     14  C   UNL     1      84.186  53.004  49.076  0.00  0.00    -0.047 C 
ATOM     15  C   UNL     1      84.816  54.140  48.332  0.00  0.00    -0.090 C 
ATOM     16  C   UNL     1      84.105  54.873  47.457  0.00  0.00    -0.078 C 
ENDBRANCH  11  16
ENDBRANCH   1  11
BRANCH   7  17
ATOM     17  C   UNL     1      87.564  51.631  44.370  0.00  0.00    -0.009 C 
BRANCH  17  18
ATOM     18  C   UNL     1      87.594  51.486  45.873  0.00  0.00    -0.081 C 
ATOM     19  C   UNL     1      87.081  50.434  46.549  0.00  0.00    -0.079 C 
ATOM     20  C   UNL     1      87.181  50.430  48.052  0.00  0.00    -0.044 C 
ATOM     21  C   UNL     1      86.413  49.279  45.843  0.00  0.00    -0.044 C 
ENDBRANCH  17  18
ENDBRANCH   7  17
TORSDOF 4
ENDMDL
MODEL 5
REMARK VINA RESULT:    -7.226      4.034      7.685
REMARK INTER + INTRA:         -10.168
REMARK INTER:                  -9.571
REMARK INTRA:                  -0.597
REMARK UNBOUND:                -1.253
REMARK  Name = 
REMARK  9 active torsions:
REMARK  status: ('A' for Active; 'I' for Inactive)
REMARK    1  A    between atoms: C_1  and  C_2
REMARK    2  A    between atoms: C_3  and  C_4
REMARK    3  A    between atoms: C_4  and  C_5
REMARK    4  A    between atoms: C_4  and  C_19
REMARK    5  A    between atoms: C_4  and  C_20
REMARK    6  A    between atoms: C_11  and  C_12
REMARK    7  A    between atoms: C_12  and  C_13
REMARK    8  A    between atoms: C_14  and  C_15
REMARK    9  A    between atoms: C_14  and  C_16
REMARK                            x       y       z     vdW  Elec       q    Type
REMARK                         _______ _______ _______ _____ _____    ______ ____
ROOT
ATOM      1  C   UNL     1      89.204  49.837  42.151  0.00  0.00    -0.013 A 
ATOM      2  C   UNL     1      89.204  50.541  40.939  0.00  0.00    +0.007 A 
ATOM      3  N   UNL     1      88.523  51.699  41.051  0.00  0.00    -0.360 N 
ATOM      4  C   UNL     1      88.065  51.743  42.309  0.00  0.00    +0.047 A 
ATOM      5  C   UNL     1      88.442  50.626  43.015  0.00  0.00    +0.004 A 
ATOM      6  C   UNL     1      88.025  50.439  44.337  0.00  0.00    -0.049 A 
ATOM      7  C   UNL     1      87.219  51.430  44.939  0.00  0.00    -0.043 A 
ATOM      8  C   UNL     1      86.862  52.587  44.204  0.00  0.00    -0.056 A 
ATOM      9  C   UNL     1      87.279  52.744  42.874  0.00  0.00    -0.038 A 
ATOM     10  H   UNL     1      88.389  52.378  40.350  0.00  0.00    +0.000 HD
ENDROOT
BRANCH   1  11
ATOM     11  C   UNL     1      89.830  48.461  42.407  0.00  0.00    +0.010 C 
ATOM     12  C   UNL     1      90.842  48.580  43.563  0.00  0.00    -0.052 C 
ATOM     13  C   UNL     1      90.553  47.937  41.144  0.00  0.00    -0.052 C 
BRANCH  11  16
ATOM     14  C   UNL     1      87.510  45.323  42.573  0.00  0.00    -0.047 C 
ATOM     15  C   UNL     1      88.561  46.296  42.137  0.00  0.00    -0.090 C 
ATOM     16  C   UNL     1      88.766  47.440  42.812  0.00  0.00    -0.078 C 
ENDBRANCH  11  16
ENDBRANCH   1  11
BRANCH   7  17
ATOM     17  C   UNL     1      86.756  51.264  46.364  0.00  0.00    -0.009 C 
BRANCH  17  18
ATOM     18  C   UNL     1      86.083  52.513  46.879  0.00  0.00    -0.081 C 
ATOM     19  C   UNL     1      85.782  52.740  48.177  0.00  0.00    -0.079 C 
ATOM     20  C   UNL     1      85.105  54.035  48.542  0.00  0.00    -0.044 C 
ATOM     21  C   UNL     1      86.099  51.735  49.258  0.00  0.00    -0.044 C 
ENDBRANCH  17  18
ENDBRANCH   7  17
TORSDOF 4
ENDMDL
MODEL 6
REMARK VINA RESULT:    -7.220      2.627      5.618
REMARK INTER + INTRA:         -10.161
REMARK INTER:                  -9.298
REMARK INTRA:                  -0.863
REMARK UNBOUND:                -1.253
REMARK  Name = 
REMARK  9 active torsions:
REMARK  status: ('A' for Active; 'I' for Inactive)
REMARK    1  A    between atoms: C_1  and  C_2
REMARK    2  A    between atoms: C_3  and  C_4
REMARK    3  A    between atoms: C_4  and  C_5
REMARK    4  A    between atoms: C_4  and  C_19
REMARK    5  A    between atoms: C_4  and  C_20
REMARK    6  A    between atoms: C_11  and  C_12
REMARK    7  A    between atoms: C_12  and  C_13
REMARK    8  A    between atoms: C_14  and  C_15
REMARK    9  A    between atoms: C_14  and  C_16
REMARK                            x       y       z     vdW  Elec       q    Type
REMARK                         _______ _______ _______ _____ _____    ______ ____
ROOT
ATOM      1  C   UNL     1      86.328  53.236  42.135  0.00  0.00    -0.013 A 
ATOM      2  C   UNL     1      85.566  53.222  40.959  0.00  0.00    +0.007 A 
ATOM      3  N   UNL     1      84.700  54.256  40.930  0.00  0.00    -0.360 N 
ATOM      4  C   UNL     1      84.876  54.922  42.079  0.00  0.00    +0.047 A 
ATOM      5  C   UNL     1      85.848  54.334  42.852  0.00  0.00    +0.004 A 
ATOM      6  C   UNL     1      86.156  54.836  44.120  0.00  0.00    -0.049 A 
ATOM      7  C   UNL     1      85.457  55.972  44.586  0.00  0.00    -0.043 A 
ATOM      8  C   UNL     1      84.478  56.581  43.764  0.00  0.00    -0.056 A 
ATOM      9  C   UNL     1      84.175  56.049  42.502  0.00  0.00    -0.038 A 
ATOM     10  H   UNL     1      84.065  54.477  40.210  0.00  0.00    +0.000 HD
ENDROOT
BRANCH   1  11
ATOM     11  C   UNL     1      87.380  52.202  42.552  0.00  0.00    +0.010 C 
ATOM     12  C   UNL     1      88.722  52.558  41.884  0.00  0.00    -0.052 C 
ATOM     13  C   UNL     1      86.957  50.777  42.126  0.00  0.00    -0.052 C 
BRANCH  11  16
ATOM     14  C   UNL     1      87.247  51.359  46.363  0.00  0.00    -0.047 C 
ATOM     15  C   UNL     1      87.011  51.315  44.886  0.00  0.00    -0.090 C 
ATOM     16  C   UNL     1      87.589  52.211  44.067  0.00  0.00    -0.078 C 
ENDBRANCH  11  16
ENDBRANCH   1  11
BRANCH   7  17
ATOM     17  C   UNL     1      85.768  56.544  45.946  0.00  0.00    -0.009 C 
BRANCH  17  18
ATOM     18  C   UNL     1      86.082  55.457  46.946  0.00  0.00    -0.081 C 
ATOM     19  C   UNL     1      85.202  54.974  47.851  0.00  0.00    -0.079 C 
ATOM     20  C   UNL     1      85.661  53.889  48.790  0.00  0.00    -0.044 C 
ATOM     21  C   UNL     1      83.788  55.492  47.946  0.00  0.00    -0.044 C 
ENDBRANCH  17  18
ENDBRANCH   7  17
TORSDOF 4
ENDMDL
MODEL 7
REMARK VINA RESULT:    -7.058      2.371      3.908
REMARK INTER + INTRA:          -9.961
REMARK INTER:                  -9.275
REMARK INTRA:                  -0.687
REMARK UNBOUND:                -1.253
REMARK  Name = 
REMARK  9 active torsions:
REMARK  status: ('A' for Active; 'I' for Inactive)
REMARK    1  A    between atoms: C_1  and  C_2
REMARK    2  A    between atoms: C_3  and  C_4
REMARK    3  A    between atoms: C_4  and  C_5
REMARK    4  A    between atoms: C_4  and  C_19
REMARK    5  A    between atoms: C_4  and  C_20
REMARK    6  A    between atoms: C_11  and  C_12
REMARK    7  A    between atoms: C_12  and  C_13
REMARK    8  A    between atoms: C_14  and  C_15
REMARK    9  A    between atoms: C_14  and  C_16
REMARK                            x       y       z     vdW  Elec       q    Type
REMARK                         _______ _______ _______ _____ _____    ______ ____
ROOT
ATOM      1  C   UNL     1      85.791  54.436  46.295  0.00  0.00    -0.013 A 
ATOM      2  C   UNL     1      85.409  54.483  47.643  0.00  0.00    +0.007 A 
ATOM      3  N   UNL     1      85.751  53.348  48.284  0.00  0.00    -0.360 N 
ATOM      4  C   UNL     1      86.326  52.560  47.366  0.00  0.00    +0.047 A 
ATOM      5  C   UNL     1      86.363  53.173  46.137  0.00  0.00    +0.004 A 
ATOM      6  C   UNL     1      86.875  52.506  45.019  0.00  0.00    -0.049 A 
ATOM      7  C   UNL     1      87.368  51.192  45.182  0.00  0.00    -0.043 A 
ATOM      8  C   UNL     1      87.346  50.587  46.462  0.00  0.00    -0.056 A 
ATOM      9  C   UNL     1      86.813  51.270  47.565  0.00  0.00    -0.038 A 
ATOM     10  H   UNL     1      85.607  53.138  49.236  0.00  0.00    +0.000 HD
ENDROOT
BRANCH   1  11
ATOM     11  C   UNL     1      85.532  55.514  45.236  0.00  0.00    +0.010 C 
ATOM     12  C   UNL     1      86.884  55.995  44.674  0.00  0.00    -0.052 C 
ATOM     13  C   UNL     1      84.771  56.716  45.841  0.00  0.00    -0.052 C 
BRANCH  11  16
ATOM     14  C   UNL     1      83.426  55.140  41.968  0.00  0.00    -0.047 C 
ATOM     15  C   UNL     1      84.224  55.731  43.088  0.00  0.00    -0.090 C 
ATOM     16  C   UNL     1      84.709  54.956  44.074  0.00  0.00    -0.078 C 
ENDBRANCH  11  16
ENDBRANCH   1  11
BRANCH   7  17
ATOM     17  C   UNL     1      87.932  50.446  43.999  0.00  0.00    -0.009 C 
BRANCH  17  18
ATOM     18  C   UNL     1      88.286  51.383  42.869  0.00  0.00    -0.081 C 
ATOM     19  C   UNL     1      89.218  51.123  41.925  0.00  0.00    -0.079 C 
ATOM     20  C   UNL     1      89.467  52.158  40.859  0.00  0.00    -0.044 C 
ATOM     21  C   UNL     1      90.011  49.839  41.917  0.00  0.00    -0.044 C 
ENDBRANCH  17  18
ENDBRANCH   7  17
TORSDOF 4
ENDMDL
MODEL 8
REMARK VINA RESULT:    -7.053      1.358      2.384
REMARK INTER + INTRA:          -9.955
REMARK INTER:                  -9.252
REMARK INTRA:                  -0.704
REMARK UNBOUND:                -1.253
REMARK  Name = 
REMARK  9 active torsions:
REMARK  status: ('A' for Active; 'I' for Inactive)
REMARK    1  A    between atoms: C_1  and  C_2
REMARK    2  A    between atoms: C_3  and  C_4
REMARK    3  A    between atoms: C_4  and  C_5
REMARK    4  A    between atoms: C_4  and  C_19
REMARK    5  A    between atoms: C_4  and  C_20
REMARK    6  A    between atoms: C_11  and  C_12
REMARK    7  A    between atoms: C_12  and  C_13
REMARK    8  A    between atoms: C_14  and  C_15
REMARK    9  A    between atoms: C_14  and  C_16
REMARK                            x       y       z     vdW  Elec       q    Type
REMARK                         _______ _______ _______ _____ _____    ______ ____
ROOT
ATOM      1  C   UNL     1      85.000  55.629  46.769  0.00  0.00    -0.013 A 
ATOM      2  C   UNL     1      84.185  55.865  47.885  0.00  0.00    +0.007 A 
ATOM      3  N   UNL     1      84.239  54.834  48.752  0.00  0.00    -0.360 N 
ATOM      4  C   UNL     1      85.058  53.927  48.203  0.00  0.00    +0.047 A 
ATOM      5  C   UNL     1      85.537  54.359  46.990  0.00  0.00    +0.004 A 
ATOM      6  C   UNL     1      86.369  53.543  46.216  0.00  0.00    -0.049 A 
ATOM      7  C   UNL     1      86.720  52.269  46.714  0.00  0.00    -0.043 A 
ATOM      8  C   UNL     1      86.238  51.851  47.979  0.00  0.00    -0.056 A 
ATOM      9  C   UNL     1      85.391  52.681  48.729  0.00  0.00    -0.038 A 
ATOM     10  H   UNL     1      83.770  54.761  49.615  0.00  0.00    +0.000 HD
ENDROOT
BRANCH   1  11
ATOM     11  C   UNL     1      85.164  56.543  45.550  0.00  0.00    +0.010 C 
ATOM     12  C   UNL     1      86.611  56.428  45.031  0.00  0.00    -0.052 C 
ATOM     13  C   UNL     1      84.866  58.016  45.917  0.00  0.00    -0.052 C 
BRANCH  11  16
ATOM     14  C   UNL     1      83.678  55.558  42.075  0.00  0.00    -0.047 C 
ATOM     15  C   UNL     1      84.635  55.971  43.149  0.00  0.00    -0.090 C 
ATOM     16  C   UNL     1      84.223  56.127  44.420  0.00  0.00    -0.078 C 
ENDBRANCH  11  16
ENDBRANCH   1  11
BRANCH   7  17
ATOM     17  C   UNL     1      87.619  51.366  45.909  0.00  0.00    -0.009 C 
BRANCH  17  18
ATOM     18  C   UNL     1      87.045  49.975  45.787  0.00  0.00    -0.081 C 
ATOM     19  C   UNL     1      86.270  49.555  44.762  0.00  0.00    -0.079 C 
ATOM     20  C   UNL     1      85.765  48.136  44.778  0.00  0.00    -0.044 C 
ATOM     21  C   UNL     1      85.899  50.465  43.617  0.00  0.00    -0.044 C 
ENDBRANCH  17  18
ENDBRANCH   7  17
TORSDOF 4
ENDMDL
MODEL 9
REMARK VINA RESULT:    -6.968      2.652      5.149
REMARK INTER + INTRA:          -9.850
REMARK INTER:                  -8.597
REMARK INTRA:                  -1.253
REMARK UNBOUND:                -1.253
REMARK  Name = 
REMARK  9 active torsions:
REMARK  status: ('A' for Active; 'I' for Inactive)
REMARK    1  A    between atoms: C_1  and  C_2
REMARK    2  A    between atoms: C_3  and  C_4
REMARK    3  A    between atoms: C_4  and  C_5
REMARK    4  A    between atoms: C_4  and  C_19
REMARK    5  A    between atoms: C_4  and  C_20
REMARK    6  A    between atoms: C_11  and  C_12
REMARK    7  A    between atoms: C_12  and  C_13
REMARK    8  A    between atoms: C_14  and  C_15
REMARK    9  A    between atoms: C_14  and  C_16
REMARK                            x       y       z     vdW  Elec       q    Type
REMARK                         _______ _______ _______ _____ _____    ______ ____
ROOT
ATOM      1  C   UNL     1      85.425  53.190  42.260  0.00  0.00    -0.013 A 
ATOM      2  C   UNL     1      86.113  52.342  41.381  0.00  0.00    +0.007 A 
ATOM      3  N   UNL     1      86.936  51.511  42.053  0.00  0.00    -0.360 N 
ATOM      4  C   UNL     1      86.806  51.824  43.349  0.00  0.00    +0.047 A 
ATOM      5  C   UNL     1      85.907  52.849  43.525  0.00  0.00    +0.004 A 
ATOM      6  C   UNL     1      85.659  53.372  44.798  0.00  0.00    -0.049 A 
ATOM      7  C   UNL     1      86.341  52.816  45.904  0.00  0.00    -0.043 A 
ATOM      8  C   UNL     1      87.243  51.743  45.705  0.00  0.00    -0.056 A 
ATOM      9  C   UNL     1      87.488  51.246  44.416  0.00  0.00    -0.038 A 
ATOM     10  H   UNL     1      87.516  50.814  41.669  0.00  0.00    +0.000 HD
ENDROOT
BRANCH   1  11
ATOM     11  C   UNL     1      84.441  54.300  41.874  0.00  0.00    +0.010 C 
ATOM     12  C   UNL     1      83.044  53.939  42.415  0.00  0.00    -0.052 C 
ATOM     13  C   UNL     1      84.369  54.468  40.338  0.00  0.00    -0.052 C 
BRANCH  11  16
ATOM     14  C   UNL     1      84.603  57.542  44.046  0.00  0.00    -0.047 C 
ATOM     15  C   UNL     1      84.159  56.233  43.473  0.00  0.00    -0.090 C 
ATOM     16  C   UNL     1      84.854  55.638  42.487  0.00  0.00    -0.078 C 
ENDBRANCH  11  16
ENDBRANCH   1  11
BRANCH   7  17
ATOM     17  C   UNL     1      86.093  53.353  47.291  0.00  0.00    -0.009 C 
BRANCH  17  18
ATOM     18  C   UNL     1      84.859  54.223  47.338  0.00  0.00    -0.081 C 
ATOM     19  C   UNL     1      84.876  55.574  47.319  0.00  0.00    -0.079 C 
ATOM     20  C   UNL     1      83.562  56.309  47.376  0.00  0.00    -0.044 C 
ATOM     21  C   UNL     1      86.165  56.356  47.249  0.00  0.00    -0.044 C 
ENDBRANCH  17  18
ENDBRANCH   7  17
TORSDOF 4
ENDMDL
