MODEL 1
REMARK VINA RESULT:   -10.934      0.000      0.000
REMARK INTER + INTRA:         -17.576
REMARK INTER:                 -15.638
REMARK INTRA:                  -1.939
REMARK UNBOUND:                -0.889
REMARK  Name = 
REMARK  12 active torsions:
REMARK  status: ('A' for Active; 'I' for Inactive)
REMARK    1  A    between atoms: C_1  and  O_2
REMARK    2  A    between atoms: O_2  and  C_3
REMARK    3  A    between atoms: C_11  and  C_14
REMARK    4  A    between atoms: C_14  and  C_15
REMARK    5  A    between atoms: C_14  and  C_25
REMARK    6  A    between atoms: C_15  and  C_17
REMARK    7  A    between atoms: C_20  and  O_24
REMARK    8  A    between atoms: C_22  and  O_23
REMARK    9  A    between atoms: C_25  and  C_26
REMARK   10  A    between atoms: C_25  and  C_33
REMARK   11  A    between atoms: C_29  and  O_32
REMARK   12  A    between atoms: C_36  and  O_39
REMARK                            x       y       z     vdW  Elec       q    Type
REMARK                         _______ _______ _______ _____ _____    ______ ____
ROOT
ATOM      1  C   UNL     1      84.646  52.516  43.403  0.00  0.00    +0.065 C 
ENDROOT
BRANCH   1  10
ATOM      2  C   UNL     1      86.953  46.687  43.158  0.00  0.00    +0.121 A 
ATOM      3  C   UNL     1      85.886  46.105  43.867  0.00  0.00    -0.016 A 
ATOM      4  C   UNL     1      84.827  46.894  44.325  0.00  0.00    -0.015 A 
ATOM      5  C   UNL     1      84.819  48.271  44.083  0.00  0.00    +0.139 A 
ATOM      6  C   UNL     1      85.885  48.870  43.378  0.00  0.00    +0.068 A 
ATOM      7  C   UNL     1      86.945  48.066  42.918  0.00  0.00    -0.006 A 
ATOM      8  C   UNL     1      85.845  50.256  43.157  0.00  0.00    +0.196 A 
ATOM      9  O   UNL     1      86.768  50.820  42.505  0.00  0.00    -0.287 OA
ATOM     10  C   UNL     1      84.769  51.014  43.668  0.00  0.00    +0.046 A 
ATOM     11  C   UNL     1      83.735  50.318  44.323  0.00  0.00    +0.100 A 
ATOM     12  O   UNL     1      83.802  49.006  44.512  0.00  0.00    -0.462 OA
BRANCH   2  14
ATOM     13  C   UNL     1      88.164  44.525  42.828  0.00  0.00    +0.079 C 
ATOM     14  O   UNL     1      88.035  45.934  42.676  0.00  0.00    -0.495 OA
ENDBRANCH   2  14
ENDBRANCH   1  10
BRANCH   1  15
ATOM     15  C   UNL     1      83.515  52.752  42.405  0.00  0.00    +0.175 C 
ATOM     16  O   UNL     1      82.377  52.241  42.589  0.00  0.00    -0.291 OA
BRANCH  15  17
ATOM     17  C   UNL     1      83.715  53.626  41.224  0.00  0.00    +0.060 A 
ATOM     18  C   UNL     1      84.978  53.679  40.608  0.00  0.00    -0.044 A 
ATOM     19  C   UNL     1      85.201  54.517  39.513  0.00  0.00    -0.019 A 
ATOM     20  C   UNL     1      84.166  55.318  39.019  0.00  0.00    +0.120 A 
ATOM     21  C   UNL     1      82.904  55.266  39.617  0.00  0.00    +0.022 A 
ATOM     22  C   UNL     1      82.663  54.419  40.705  0.00  0.00    +0.131 A 
BRANCH  22  23
ATOM     23  O   UNL     1      81.368  54.370  41.224  0.00  0.00    -0.506 OA
ATOM     24  H   UNL     1      80.722  53.823  40.822  0.00  0.00    +0.000 HD
ENDBRANCH  22  23
BRANCH  20  25
ATOM     25  O   UNL     1      84.380  56.164  37.934  0.00  0.00    -0.507 OA
ATOM     26  H   UNL     1      83.753  56.830  37.729  0.00  0.00    +0.000 HD
ENDBRANCH  20  25
ENDBRANCH  15  17
ENDBRANCH   1  15
BRANCH   1  27
ATOM     27  C   UNL     1      84.552  53.418  44.690  0.00  0.00    +0.023 C 
BRANCH  27  28
ATOM     28  C   UNL     1      85.175  52.827  45.953  0.00  0.00    -0.039 A 
ATOM     29  C   UNL     1      86.400  52.128  45.922  0.00  0.00    -0.055 A 
ATOM     30  C   UNL     1      86.943  51.589  47.092  0.00  0.00    -0.020 A 
ATOM     31  C   UNL     1      86.278  51.740  48.311  0.00  0.00    +0.117 A 
ATOM     32  C   UNL     1      85.066  52.438  48.358  0.00  0.00    -0.020 A 
ATOM     33  C   UNL     1      84.521  52.978  47.191  0.00  0.00    -0.055 A 
BRANCH  31  34
ATOM     34  O   UNL     1      86.831  51.196  49.469  0.00  0.00    -0.507 OA
ATOM     35  H   UNL     1      86.554  50.352  49.767  0.00  0.00    +0.000 HD
ENDBRANCH  31  34
ENDBRANCH  27  28
BRANCH  27  36
ATOM     36  C   UNL     1      84.968  54.875  44.476  0.00  0.00    -0.039 A 
ATOM     37  C   UNL     1      84.043  55.886  44.147  0.00  0.00    -0.055 A 
ATOM     38  C   UNL     1      84.465  57.203  43.944  0.00  0.00    -0.020 A 
ATOM     39  C   UNL     1      85.817  57.534  44.049  0.00  0.00    +0.117 A 
ATOM     40  C   UNL     1      86.751  56.539  44.356  0.00  0.00    -0.020 A 
ATOM     41  C   UNL     1      86.333  55.222  44.560  0.00  0.00    -0.055 A 
BRANCH  39  42
ATOM     42  O   UNL     1      86.221  58.852  43.844  0.00  0.00    -0.507 OA
ATOM     43  H   UNL     1      86.583  59.109  43.019  0.00  0.00    +0.000 HD
ENDBRANCH  39  42
ENDBRANCH  27  36
ENDBRANCH   1  27
TORSDOF 11
ENDMDL
MODEL 2
REMARK VINA RESULT:   -10.803      1.156      2.113
REMARK INTER + INTRA:         -17.375
REMARK INTER:                 -15.320
REMARK INTRA:                  -2.055
REMARK UNBOUND:                -0.889
REMARK  Name = 
REMARK  12 active torsions:
REMARK  status: ('A' for Active; 'I' for Inactive)
REMARK    1  A    between atoms: C_1  and  O_2
REMARK    2  A    between atoms: O_2  and  C_3
REMARK    3  A    between atoms: C_11  and  C_14
REMARK    4  A    between atoms: C_14  and  C_15
REMARK    5  A    between atoms: C_14  and  C_25
REMARK    6  A    between atoms: C_15  and  C_17
REMARK    7  A    between atoms: C_20  and  O_24
REMARK    8  A    between atoms: C_22  and  O_23
REMARK    9  A    between atoms: C_25  and  C_26
REMARK   10  A    between atoms: C_25  and  C_33
REMARK   11  A    between atoms: C_29  and  O_32
REMARK   12  A    between atoms: C_36  and  O_39
REMARK                            x       y       z     vdW  Elec       q    Type
REMARK                         _______ _______ _______ _____ _____    ______ ____
ROOT
ATOM      1  C   UNL     1      85.966  52.116  43.431  0.00  0.00    +0.065 C 
ENDROOT
BRANCH   1  10
ATOM      2  C   UNL     1      87.098  45.961  42.991  0.00  0.00    +0.121 A 
ATOM      3  C   UNL     1      85.813  45.571  43.414  0.00  0.00    -0.016 A 
ATOM      4  C   UNL     1      84.856  46.534  43.745  0.00  0.00    -0.015 A 
ATOM      5  C   UNL     1      85.166  47.894  43.660  0.00  0.00    +0.139 A 
ATOM      6  C   UNL     1      86.451  48.300  43.242  0.00  0.00    +0.068 A 
ATOM      7  C   UNL     1      87.408  47.323  42.907  0.00  0.00    -0.006 A 
ATOM      8  C   UNL     1      86.729  49.675  43.172  0.00  0.00    +0.196 A 
ATOM      9  O   UNL     1      87.859  50.073  42.775  0.00  0.00    -0.287 OA
ATOM     10  C   UNL     1      85.737  50.608  43.548  0.00  0.00    +0.046 A 
ATOM     11  C   UNL     1      84.473  50.103  43.912  0.00  0.00    +0.100 A 
ATOM     12  O   UNL     1      84.243  48.797  43.965  0.00  0.00    -0.462 OA
BRANCH   2  14
ATOM     13  C   UNL     1      88.347  43.826  43.359  0.00  0.00    +0.079 C 
ATOM     14  O   UNL     1      88.089  45.030  42.644  0.00  0.00    -0.495 OA
ENDBRANCH   2  14
ENDBRANCH   1  10
BRANCH   1  15
ATOM     15  C   UNL     1      85.559  52.572  42.033  0.00  0.00    +0.175 C 
ATOM     16  O   UNL     1      86.368  52.491  41.069  0.00  0.00    -0.291 OA
BRANCH  15  17
ATOM     17  C   UNL     1      84.190  53.074  41.766  0.00  0.00    +0.060 A 
ATOM     18  C   UNL     1      83.082  52.292  42.137  0.00  0.00    -0.044 A 
ATOM     19  C   UNL     1      81.782  52.727  41.869  0.00  0.00    -0.019 A 
ATOM     20  C   UNL     1      81.570  53.950  41.224  0.00  0.00    +0.120 A 
ATOM     21  C   UNL     1      82.663  54.741  40.860  0.00  0.00    +0.022 A 
ATOM     22  C   UNL     1      83.970  54.323  41.136  0.00  0.00    +0.131 A 
BRANCH  22  23
ATOM     23  O   UNL     1      85.019  55.181  40.798  0.00  0.00    -0.506 OA
ATOM     24  H   UNL     1      85.644  55.436  41.448  0.00  0.00    +0.000 HD
ENDBRANCH  22  23
BRANCH  20  25
ATOM     25  O   UNL     1      80.278  54.391  40.944  0.00  0.00    -0.507 OA
ATOM     26  H   UNL     1      80.136  55.026  40.271  0.00  0.00    +0.000 HD
ENDBRANCH  20  25
ENDBRANCH  15  17
ENDBRANCH   1  15
BRANCH   1  27
ATOM     27  C   UNL     1      85.335  52.980  44.588  0.00  0.00    +0.023 C 
BRANCH  27  28
ATOM     28  C   UNL     1      85.681  52.532  46.006  0.00  0.00    -0.039 A 
ATOM     29  C   UNL     1      84.904  52.913  47.119  0.00  0.00    -0.055 A 
ATOM     30  C   UNL     1      85.250  52.495  48.407  0.00  0.00    -0.020 A 
ATOM     31  C   UNL     1      86.372  51.689  48.608  0.00  0.00    +0.117 A 
ATOM     32  C   UNL     1      87.148  51.296  47.512  0.00  0.00    -0.020 A 
ATOM     33  C   UNL     1      86.806  51.711  46.223  0.00  0.00    -0.055 A 
BRANCH  31  34
ATOM     34  O   UNL     1      86.705  51.282  49.898  0.00  0.00    -0.507 OA
ATOM     35  H   UNL     1      86.220  50.596  50.313  0.00  0.00    +0.000 HD
ENDBRANCH  31  34
ENDBRANCH  27  28
BRANCH  27  36
ATOM     36  C   UNL     1      85.498  54.491  44.411  0.00  0.00    -0.039 A 
ATOM     37  C   UNL     1      86.760  55.118  44.379  0.00  0.00    -0.055 A 
ATOM     38  C   UNL     1      86.867  56.504  44.231  0.00  0.00    -0.020 A 
ATOM     39  C   UNL     1      85.719  57.293  44.127  0.00  0.00    +0.117 A 
ATOM     40  C   UNL     1      84.459  56.689  44.177  0.00  0.00    -0.020 A 
ATOM     41  C   UNL     1      84.348  55.303  44.325  0.00  0.00    -0.055 A 
BRANCH  39  42
ATOM     42  O   UNL     1      85.842  58.672  43.980  0.00  0.00    -0.507 OA
ATOM     43  H   UNL     1      86.452  59.026  43.362  0.00  0.00    +0.000 HD
ENDBRANCH  39  42
ENDBRANCH  27  36
ENDBRANCH   1  27
TORSDOF 11
ENDMDL
MODEL 3
REMARK VINA RESULT:   -10.781      2.323      6.140
REMARK INTER + INTRA:         -17.343
REMARK INTER:                 -15.611
REMARK INTRA:                  -1.731
REMARK UNBOUND:                -0.889
REMARK  Name = 
REMARK  12 active torsions:
REMARK  status: ('A' for Active; 'I' for Inactive)
REMARK    1  A    between atoms: C_1  and  O_2
REMARK    2  A    between atoms: O_2  and  C_3
REMARK    3  A    between atoms: C_11  and  C_14
REMARK    4  A    between atoms: C_14  and  C_15
REMARK    5  A    between atoms: C_14  and  C_25
REMARK    6  A    between atoms: C_15  and  C_17
REMARK    7  A    between atoms: C_20  and  O_24
REMARK    8  A    between atoms: C_22  and  O_23
REMARK    9  A    between atoms: C_25  and  C_26
REMARK   10  A    between atoms: C_25  and  C_33
REMARK   11  A    between atoms: C_29  and  O_32
REMARK   12  A    between atoms: C_36  and  O_39
REMARK                            x       y       z     vdW  Elec       q    Type
REMARK                         _______ _______ _______ _____ _____    ______ ____
ROOT
ATOM      1  C   UNL     1      85.478  52.000  44.941  0.00  0.00    +0.065 C 
ENDROOT
BRANCH   1  10
ATOM      2  C   UNL     1      89.410  47.955  42.196  0.00  0.00    +0.121 A 
ATOM      3  C   UNL     1      90.144  48.944  41.514  0.00  0.00    -0.016 A 
ATOM      4  C   UNL     1      89.807  50.293  41.650  0.00  0.00    -0.015 A 
ATOM      5  C   UNL     1      88.735  50.673  42.463  0.00  0.00    +0.139 A 
ATOM      6  C   UNL     1      87.987  49.693  43.148  0.00  0.00    +0.068 A 
ATOM      7  C   UNL     1      88.335  48.336  43.009  0.00  0.00    -0.006 A 
ATOM      8  C   UNL     1      86.915  50.112  43.953  0.00  0.00    +0.196 A 
ATOM      9  O   UNL     1      86.242  49.263  44.602  0.00  0.00    -0.287 OA
ATOM     10  C   UNL     1      86.594  51.485  44.031  0.00  0.00    +0.046 A 
ATOM     11  C   UNL     1      87.428  52.388  43.343  0.00  0.00    +0.100 A 
ATOM     12  O   UNL     1      88.435  51.959  42.592  0.00  0.00    -0.462 OA
BRANCH   2  14
ATOM     13  C   UNL     1      88.816  45.538  42.432  0.00  0.00    +0.079 C 
ATOM     14  O   UNL     1      89.714  46.589  42.093  0.00  0.00    -0.495 OA
ENDBRANCH   2  14
ENDBRANCH   1  10
BRANCH   1  15
ATOM     15  C   UNL     1      86.064  53.010  45.923  0.00  0.00    +0.175 C 
ATOM     16  O   UNL     1      87.219  52.847  46.401  0.00  0.00    -0.291 OA
BRANCH  15  17
ATOM     17  C   UNL     1      85.310  54.232  46.297  0.00  0.00    +0.060 A 
ATOM     18  C   UNL     1      84.199  54.123  47.151  0.00  0.00    -0.044 A 
ATOM     19  C   UNL     1      83.452  55.253  47.494  0.00  0.00    -0.019 A 
ATOM     20  C   UNL     1      83.804  56.508  46.986  0.00  0.00    +0.120 A 
ATOM     21  C   UNL     1      84.913  56.629  46.144  0.00  0.00    +0.022 A 
ATOM     22  C   UNL     1      85.678  55.507  45.805  0.00  0.00    +0.131 A 
BRANCH  22  23
ATOM     23  O   UNL     1      86.806  55.700  45.004  0.00  0.00    -0.506 OA
ATOM     24  H   UNL     1      87.625  55.317  45.249  0.00  0.00    +0.000 HD
ENDBRANCH  22  23
BRANCH  20  25
ATOM     25  O   UNL     1      83.062  57.640  47.314  0.00  0.00    -0.507 OA
ATOM     26  H   UNL     1      83.380  58.491  47.085  0.00  0.00    +0.000 HD
ENDBRANCH  20  25
ENDBRANCH  15  17
ENDBRANCH   1  15
BRANCH   1  27
ATOM     27  C   UNL     1      84.190  52.516  44.195  0.00  0.00    +0.023 C 
BRANCH  27  28
ATOM     28  C   UNL     1      84.447  53.309  42.916  0.00  0.00    -0.039 A 
ATOM     29  C   UNL     1      84.857  52.683  41.720  0.00  0.00    -0.055 A 
ATOM     30  C   UNL     1      85.094  53.435  40.566  0.00  0.00    -0.020 A 
ATOM     31  C   UNL     1      84.923  54.821  40.582  0.00  0.00    +0.117 A 
ATOM     32  C   UNL     1      84.509  55.455  41.759  0.00  0.00    -0.020 A 
ATOM     33  C   UNL     1      84.271  54.707  42.914  0.00  0.00    -0.055 A 
BRANCH  31  34
ATOM     34  O   UNL     1      85.165  55.558  39.424  0.00  0.00    -0.507 OA
ATOM     35  H   UNL     1      86.045  55.702  39.136  0.00  0.00    +0.000 HD
ENDBRANCH  31  34
ENDBRANCH  27  28
BRANCH  27  36
ATOM     36  C   UNL     1      83.102  51.457  44.003  0.00  0.00    -0.039 A 
ATOM     37  C   UNL     1      83.119  50.222  44.681  0.00  0.00    -0.055 A 
ATOM     38  C   UNL     1      82.114  49.274  44.466  0.00  0.00    -0.020 A 
ATOM     39  C   UNL     1      81.082  49.533  43.562  0.00  0.00    +0.117 A 
ATOM     40  C   UNL     1      81.061  50.746  42.866  0.00  0.00    -0.020 A 
ATOM     41  C   UNL     1      82.064  51.696  43.078  0.00  0.00    -0.055 A 
BRANCH  39  42
ATOM     42  O   UNL     1      80.088  48.578  43.359  0.00  0.00    -0.507 OA
ATOM     43  H   UNL     1      79.628  48.545  42.544  0.00  0.00    +0.000 HD
ENDBRANCH  39  42
ENDBRANCH  27  36
ENDBRANCH   1  27
TORSDOF 11
ENDMDL
MODEL 4
REMARK VINA RESULT:   -10.684      2.641      7.570
REMARK INTER + INTRA:         -17.195
REMARK INTER:                 -14.802
REMARK INTRA:                  -2.393
REMARK UNBOUND:                -0.889
REMARK  Name = 
REMARK  12 active torsions:
REMARK  status: ('A' for Active; 'I' for Inactive)
REMARK    1  A    between atoms: C_1  and  O_2
REMARK    2  A    between atoms: O_2  and  C_3
REMARK    3  A    between atoms: C_11  and  C_14
REMARK    4  A    between atoms: C_14  and  C_15
REMARK    5  A    between atoms: C_14  and  C_25
REMARK    6  A    between atoms: C_15  and  C_17
REMARK    7  A    between atoms: C_20  and  O_24
REMARK    8  A    between atoms: C_22  and  O_23
REMARK    9  A    between atoms: C_25  and  C_26
REMARK   10  A    between atoms: C_25  and  C_33
REMARK   11  A    between atoms: C_29  and  O_32
REMARK   12  A    between atoms: C_36  and  O_39
REMARK                            x       y       z     vdW  Elec       q    Type
REMARK                         _______ _______ _______ _____ _____    ______ ____
ROOT
ATOM      1  C   UNL     1      87.258  51.700  44.197  0.00  0.00    +0.065 C 
ENDROOT
BRANCH   1  10
ATOM      2  C   UNL     1      84.217  56.469  46.911  0.00  0.00    +0.121 A 
ATOM      3  C   UNL     1      83.496  55.658  47.808  0.00  0.00    -0.016 A 
ATOM      4  C   UNL     1      83.666  54.271  47.799  0.00  0.00    -0.015 A 
ATOM      5  C   UNL     1      84.553  53.676  46.898  0.00  0.00    +0.139 A 
ATOM      6  C   UNL     1      85.278  54.475  45.989  0.00  0.00    +0.068 A 
ATOM      7  C   UNL     1      85.104  55.872  46.007  0.00  0.00    -0.006 A 
ATOM      8  C   UNL     1      86.158  53.842  45.096  0.00  0.00    +0.196 A 
ATOM      9  O   UNL     1      86.844  54.530  44.289  0.00  0.00    -0.287 OA
ATOM     10  C   UNL     1      86.270  52.435  45.105  0.00  0.00    +0.046 A 
ATOM     11  C   UNL     1      85.535  51.729  46.078  0.00  0.00    +0.100 A 
ATOM     12  O   UNL     1      84.714  52.359  46.910  0.00  0.00    -0.462 OA
BRANCH   2  14
ATOM     13  C   UNL     1      84.587  58.704  45.851  0.00  0.00    +0.079 C 
ATOM     14  O   UNL     1      84.082  57.866  46.886  0.00  0.00    -0.495 OA
ENDBRANCH   2  14
ENDBRANCH   1  10
BRANCH   1  15
ATOM     15  C   UNL     1      87.645  50.377  44.852  0.00  0.00    +0.175 C 
ATOM     16  O   UNL     1      87.947  50.329  46.076  0.00  0.00    -0.291 OA
BRANCH  15  17
ATOM     17  C   UNL     1      87.625  49.112  44.079  0.00  0.00    +0.060 A 
ATOM     18  C   UNL     1      88.697  48.811  43.220  0.00  0.00    -0.044 A 
ATOM     19  C   UNL     1      88.689  47.641  42.456  0.00  0.00    -0.019 A 
ATOM     20  C   UNL     1      87.609  46.756  42.538  0.00  0.00    +0.120 A 
ATOM     21  C   UNL     1      86.543  47.041  43.396  0.00  0.00    +0.022 A 
ATOM     22  C   UNL     1      86.546  48.202  44.177  0.00  0.00    +0.131 A 
BRANCH  22  23
ATOM     23  O   UNL     1      85.479  48.404  45.056  0.00  0.00    -0.506 OA
ATOM     24  H   UNL     1      84.712  47.870  44.992  0.00  0.00    +0.000 HD
ENDBRANCH  22  23
BRANCH  20  25
ATOM     25  O   UNL     1      87.586  45.591  41.775  0.00  0.00    -0.507 OA
ATOM     26  H   UNL     1      88.388  45.216  41.468  0.00  0.00    +0.000 HD
ENDBRANCH  20  25
ENDBRANCH  15  17
ENDBRANCH   1  15
BRANCH   1  27
ATOM     27  C   UNL     1      86.806  51.554  42.695  0.00  0.00    +0.023 C 
BRANCH  27  28
ATOM     28  C   UNL     1      85.407  52.076  42.377  0.00  0.00    -0.039 A 
ATOM     29  C   UNL     1      85.202  53.281  41.673  0.00  0.00    -0.055 A 
ATOM     30  C   UNL     1      83.909  53.739  41.405  0.00  0.00    -0.020 A 
ATOM     31  C   UNL     1      82.800  53.005  41.829  0.00  0.00    +0.117 A 
ATOM     32  C   UNL     1      82.987  51.804  42.521  0.00  0.00    -0.020 A 
ATOM     33  C   UNL     1      84.277  51.342  42.792  0.00  0.00    -0.055 A 
BRANCH  31  34
ATOM     34  O   UNL     1      81.517  53.476  41.555  0.00  0.00    -0.507 OA
ATOM     35  H   UNL     1      81.152  54.166  42.073  0.00  0.00    +0.000 HD
ENDBRANCH  31  34
ENDBRANCH  27  28
BRANCH  27  36
ATOM     36  C   UNL     1      87.839  52.031  41.673  0.00  0.00    -0.039 A 
ATOM     37  C   UNL     1      87.869  51.554  40.347  0.00  0.00    -0.055 A 
ATOM     38  C   UNL     1      88.839  52.004  39.446  0.00  0.00    -0.020 A 
ATOM     39  C   UNL     1      89.807  52.924  39.854  0.00  0.00    +0.117 A 
ATOM     40  C   UNL     1      89.804  53.393  41.171  0.00  0.00    -0.020 A 
ATOM     41  C   UNL     1      88.836  52.946  42.074  0.00  0.00    -0.055 A 
BRANCH  39  42
ATOM     42  O   UNL     1      90.767  53.362  38.944  0.00  0.00    -0.507 OA
ATOM     43  H   UNL     1      90.540  53.995  38.291  0.00  0.00    +0.000 HD
ENDBRANCH  39  42
ENDBRANCH  27  36
ENDBRANCH   1  27
TORSDOF 11
ENDMDL
MODEL 5
REMARK VINA RESULT:   -10.514      1.934      3.198
REMARK INTER + INTRA:         -16.935
REMARK INTER:                 -15.218
REMARK INTRA:                  -1.717
REMARK UNBOUND:                -0.889
REMARK  Name = 
REMARK  12 active torsions:
REMARK  status: ('A' for Active; 'I' for Inactive)
REMARK    1  A    between atoms: C_1  and  O_2
REMARK    2  A    between atoms: O_2  and  C_3
REMARK    3  A    between atoms: C_11  and  C_14
REMARK    4  A    between atoms: C_14  and  C_15
REMARK    5  A    between atoms: C_14  and  C_25
REMARK    6  A    between atoms: C_15  and  C_17
REMARK    7  A    between atoms: C_20  and  O_24
REMARK    8  A    between atoms: C_22  and  O_23
REMARK    9  A    between atoms: C_25  and  C_26
REMARK   10  A    between atoms: C_25  and  C_33
REMARK   11  A    between atoms: C_29  and  O_32
REMARK   12  A    between atoms: C_36  and  O_39
REMARK                            x       y       z     vdW  Elec       q    Type
REMARK                         _______ _______ _______ _____ _____    ______ ____
ROOT
ATOM      1  C   UNL     1      86.829  53.039  42.366  0.00  0.00    +0.065 C 
ENDROOT
BRANCH   1  10
ATOM      2  C   UNL     1      88.466  46.998  41.929  0.00  0.00    +0.121 A 
ATOM      3  C   UNL     1      89.852  47.247  41.947  0.00  0.00    -0.016 A 
ATOM      4  C   UNL     1      90.333  48.555  42.040  0.00  0.00    -0.015 A 
ATOM      5  C   UNL     1      89.443  49.631  42.114  0.00  0.00    +0.139 A 
ATOM      6  C   UNL     1      88.052  49.397  42.091  0.00  0.00    +0.068 A 
ATOM      7  C   UNL     1      87.575  48.076  42.001  0.00  0.00    -0.006 A 
ATOM      8  C   UNL     1      87.187  50.502  42.163  0.00  0.00    +0.196 A 
ATOM      9  O   UNL     1      85.937  50.327  42.174  0.00  0.00    -0.287 OA
ATOM     10  C   UNL     1      87.724  51.806  42.223  0.00  0.00    +0.046 A 
ATOM     11  C   UNL     1      89.126  51.931  42.282  0.00  0.00    +0.100 A 
ATOM     12  O   UNL     1      89.915  50.866  42.214  0.00  0.00    -0.462 OA
BRANCH   2  14
ATOM     13  C   UNL     1      88.176  44.670  42.792  0.00  0.00    +0.079 C 
ATOM     14  O   UNL     1      87.937  45.702  41.841  0.00  0.00    -0.495 OA
ENDBRANCH   2  14
ENDBRANCH   1  10
BRANCH   1  15
ATOM     15  C   UNL     1      85.989  53.191  41.101  0.00  0.00    +0.175 C 
ATOM     16  O   UNL     1      86.509  53.050  39.962  0.00  0.00    -0.291 OA
BRANCH  15  17
ATOM     17  C   UNL     1      84.532  53.459  41.185  0.00  0.00    +0.060 A 
ATOM     18  C   UNL     1      83.674  52.465  41.688  0.00  0.00    -0.044 A 
ATOM     19  C   UNL     1      82.295  52.680  41.748  0.00  0.00    -0.019 A 
ATOM     20  C   UNL     1      81.753  53.890  41.305  0.00  0.00    +0.120 A 
ATOM     21  C   UNL     1      82.597  54.889  40.812  0.00  0.00    +0.022 A 
ATOM     22  C   UNL     1      83.982  54.692  40.761  0.00  0.00    +0.131 A 
BRANCH  22  23
ATOM     23  O   UNL     1      84.778  55.748  40.311  0.00  0.00    -0.506 OA
ATOM     24  H   UNL     1      84.434  56.366  39.696  0.00  0.00    +0.000 HD
ENDBRANCH  22  23
BRANCH  20  25
ATOM     25  O   UNL     1      80.379  54.113  41.352  0.00  0.00    -0.507 OA
ATOM     26  H   UNL     1      79.862  54.020  40.576  0.00  0.00    +0.000 HD
ENDBRANCH  20  25
ENDBRANCH  15  17
ENDBRANCH   1  15
BRANCH   1  27
ATOM     27  C   UNL     1      85.989  53.105  43.696  0.00  0.00    +0.023 C 
BRANCH  27  28
ATOM     28  C   UNL     1      86.397  52.110  44.781  0.00  0.00    -0.039 A 
ATOM     29  C   UNL     1      85.654  50.938  45.035  0.00  0.00    -0.055 A 
ATOM     30  C   UNL     1      86.045  50.050  46.041  0.00  0.00    -0.020 A 
ATOM     31  C   UNL     1      87.184  50.311  46.806  0.00  0.00    +0.117 A 
ATOM     32  C   UNL     1      87.935  51.465  46.560  0.00  0.00    -0.020 A 
ATOM     33  C   UNL     1      87.547  52.355  45.556  0.00  0.00    -0.055 A 
BRANCH  31  34
ATOM     34  O   UNL     1      87.561  49.417  47.806  0.00  0.00    -0.507 OA
ATOM     35  H   UNL     1      88.125  49.700  48.499  0.00  0.00    +0.000 HD
ENDBRANCH  31  34
ENDBRANCH  27  28
BRANCH  27  36
ATOM     36  C   UNL     1      85.800  54.516  44.258  0.00  0.00    -0.039 A 
ATOM     37  C   UNL     1      86.648  55.588  43.912  0.00  0.00    -0.055 A 
ATOM     38  C   UNL     1      86.452  56.859  44.459  0.00  0.00    -0.020 A 
ATOM     39  C   UNL     1      85.418  57.084  45.371  0.00  0.00    +0.117 A 
ATOM     40  C   UNL     1      84.580  56.026  45.739  0.00  0.00    -0.020 A 
ATOM     41  C   UNL     1      84.773  54.754  45.195  0.00  0.00    -0.055 A 
BRANCH  39  42
ATOM     42  O   UNL     1      85.236  58.357  45.906  0.00  0.00    -0.507 OA
ATOM     43  H   UNL     1      84.376  58.726  45.958  0.00  0.00    +0.000 HD
ENDBRANCH  39  42
ENDBRANCH  27  36
ENDBRANCH   1  27
TORSDOF 11
ENDMDL
MODEL 6
REMARK VINA RESULT:   -10.318      2.363      5.925
REMARK INTER + INTRA:         -16.636
REMARK INTER:                 -15.242
REMARK INTRA:                  -1.394
REMARK UNBOUND:                -0.889
REMARK  Name = 
REMARK  12 active torsions:
REMARK  status: ('A' for Active; 'I' for Inactive)
REMARK    1  A    between atoms: C_1  and  O_2
REMARK    2  A    between atoms: O_2  and  C_3
REMARK    3  A    between atoms: C_11  and  C_14
REMARK    4  A    between atoms: C_14  and  C_15
REMARK    5  A    between atoms: C_14  and  C_25
REMARK    6  A    between atoms: C_15  and  C_17
REMARK    7  A    between atoms: C_20  and  O_24
REMARK    8  A    between atoms: C_22  and  O_23
REMARK    9  A    between atoms: C_25  and  C_26
REMARK   10  A    between atoms: C_25  and  C_33
REMARK   11  A    between atoms: C_29  and  O_32
REMARK   12  A    between atoms: C_36  and  O_39
REMARK                            x       y       z     vdW  Elec       q    Type
REMARK                         _______ _______ _______ _____ _____    ______ ____
ROOT
ATOM      1  C   UNL     1      86.186  51.557  44.287  0.00  0.00    +0.065 C 
ENDROOT
BRANCH   1  10
ATOM      2  C   UNL     1      87.236  45.606  42.600  0.00  0.00    +0.121 A 
ATOM      3  C   UNL     1      88.621  45.777  42.409  0.00  0.00    -0.016 A 
ATOM      4  C   UNL     1      89.214  47.024  42.623  0.00  0.00    -0.015 A 
ATOM      5  C   UNL     1      88.438  48.114  43.027  0.00  0.00    +0.139 A 
ATOM      6  C   UNL     1      87.049  47.959  43.216  0.00  0.00    +0.068 A 
ATOM      7  C   UNL     1      86.459  46.699  43.003  0.00  0.00    -0.006 A 
ATOM      8  C   UNL     1      86.300  49.078  43.619  0.00  0.00    +0.196 A 
ATOM      9  O   UNL     1      85.059  48.967  43.825  0.00  0.00    -0.287 OA
ATOM     10  C   UNL     1      86.942  50.323  43.790  0.00  0.00    +0.046 A 
ATOM     11  C   UNL     1      88.340  50.365  43.616  0.00  0.00    +0.100 A 
ATOM     12  O   UNL     1      89.018  49.289  43.238  0.00  0.00    -0.462 OA
BRANCH   2  14
ATOM     13  C   UNL     1      85.237  44.110  42.730  0.00  0.00    +0.079 C 
ATOM     14  O   UNL     1      86.597  44.373  42.402  0.00  0.00    -0.495 OA
ENDBRANCH   2  14
ENDBRANCH   1  10
BRANCH   1  15
ATOM     15  C   UNL     1      86.719  51.945  45.663  0.00  0.00    +0.175 C 
ATOM     16  O   UNL     1      87.879  51.606  46.023  0.00  0.00    -0.291 OA
BRANCH  15  17
ATOM     17  C   UNL     1      85.905  52.770  46.588  0.00  0.00    +0.060 A 
ATOM     18  C   UNL     1      85.194  53.874  46.085  0.00  0.00    -0.044 A 
ATOM     19  C   UNL     1      84.445  54.687  46.940  0.00  0.00    -0.019 A 
ATOM     20  C   UNL     1      84.397  54.409  48.309  0.00  0.00    +0.120 A 
ATOM     21  C   UNL     1      85.091  53.309  48.819  0.00  0.00    +0.022 A 
ATOM     22  C   UNL     1      85.833  52.478  47.971  0.00  0.00    +0.131 A 
BRANCH  22  23
ATOM     23  O   UNL     1      86.460  51.362  48.530  0.00  0.00    -0.506 OA
ATOM     24  H   UNL     1      85.971  50.770  49.067  0.00  0.00    +0.000 HD
ENDBRANCH  22  23
BRANCH  20  25
ATOM     25  O   UNL     1      83.660  55.217  49.172  0.00  0.00    -0.507 OA
ATOM     26  H   UNL     1      83.961  55.365  50.047  0.00  0.00    +0.000 HD
ENDBRANCH  20  25
ENDBRANCH  15  17
ENDBRANCH   1  15
BRANCH   1  27
ATOM     27  C   UNL     1      86.124  52.759  43.270  0.00  0.00    +0.023 C 
BRANCH  27  28
ATOM     28  C   UNL     1      87.173  52.735  42.161  0.00  0.00    -0.039 A 
ATOM     29  C   UNL     1      86.904  52.180  40.892  0.00  0.00    -0.055 A 
ATOM     30  C   UNL     1      87.887  52.163  39.899  0.00  0.00    -0.020 A 
ATOM     31  C   UNL     1      89.151  52.701  40.149  0.00  0.00    +0.117 A 
ATOM     32  C   UNL     1      89.429  53.262  41.401  0.00  0.00    -0.020 A 
ATOM     33  C   UNL     1      88.450  53.281  42.396  0.00  0.00    -0.055 A 
BRANCH  31  34
ATOM     34  O   UNL     1      90.121  52.675  39.150  0.00  0.00    -0.507 OA
ATOM     35  H   UNL     1      90.342  53.462  38.691  0.00  0.00    +0.000 HD
ENDBRANCH  31  34
ENDBRANCH  27  28
BRANCH  27  36
ATOM     36  C   UNL     1      84.725  53.058  42.727  0.00  0.00    -0.039 A 
ATOM     37  C   UNL     1      84.328  54.351  42.329  0.00  0.00    -0.055 A 
ATOM     38  C   UNL     1      83.036  54.587  41.852  0.00  0.00    -0.020 A 
ATOM     39  C   UNL     1      82.110  53.544  41.777  0.00  0.00    +0.117 A 
ATOM     40  C   UNL     1      82.481  52.260  42.187  0.00  0.00    -0.020 A 
ATOM     41  C   UNL     1      83.772  52.020  42.664  0.00  0.00    -0.055 A 
BRANCH  39  42
ATOM     42  O   UNL     1      80.826  53.797  41.299  0.00  0.00    -0.507 OA
ATOM     43  H   UNL     1      80.625  54.623  40.907  0.00  0.00    +0.000 HD
ENDBRANCH  39  42
ENDBRANCH  27  36
ENDBRANCH   1  27
TORSDOF 11
ENDMDL
MODEL 7
REMARK VINA RESULT:   -10.257      2.362      3.654
REMARK INTER + INTRA:         -16.543
REMARK INTER:                 -14.631
REMARK INTRA:                  -1.912
REMARK UNBOUND:                -0.889
REMARK  Name = 
REMARK  12 active torsions:
REMARK  status: ('A' for Active; 'I' for Inactive)
REMARK    1  A    between atoms: C_1  and  O_2
REMARK    2  A    between atoms: O_2  and  C_3
REMARK    3  A    between atoms: C_11  and  C_14
REMARK    4  A    between atoms: C_14  and  C_15
REMARK    5  A    between atoms: C_14  and  C_25
REMARK    6  A    between atoms: C_15  and  C_17
REMARK    7  A    between atoms: C_20  and  O_24
REMARK    8  A    between atoms: C_22  and  O_23
REMARK    9  A    between atoms: C_25  and  C_26
REMARK   10  A    between atoms: C_25  and  C_33
REMARK   11  A    between atoms: C_29  and  O_32
REMARK   12  A    between atoms: C_36  and  O_39
REMARK                            x       y       z     vdW  Elec       q    Type
REMARK                         _______ _______ _______ _____ _____    ______ ____
ROOT
ATOM      1  C   UNL     1      86.117  51.771  43.595  0.00  0.00    +0.065 C 
ENDROOT
BRANCH   1  10
ATOM      2  C   UNL     1      82.373  46.753  43.997  0.00  0.00    +0.121 A 
ATOM      3  C   UNL     1      83.421  45.815  43.934  0.00  0.00    -0.016 A 
ATOM      4  C   UNL     1      84.746  46.243  43.819  0.00  0.00    -0.015 A 
ATOM      5  C   UNL     1      85.044  47.608  43.763  0.00  0.00    +0.139 A 
ATOM      6  C   UNL     1      84.003  48.559  43.818  0.00  0.00    +0.068 A 
ATOM      7  C   UNL     1      82.672  48.120  43.938  0.00  0.00    -0.006 A 
ATOM      8  C   UNL     1      84.339  49.922  43.756  0.00  0.00    +0.196 A 
ATOM      9  O   UNL     1      83.436  50.801  43.831  0.00  0.00    -0.287 OA
ATOM     10  C   UNL     1      85.691  50.302  43.606  0.00  0.00    +0.046 A 
ATOM     11  C   UNL     1      86.658  49.278  43.602  0.00  0.00    +0.100 A 
ATOM     12  O   UNL     1      86.307  48.000  43.666  0.00  0.00    -0.462 OA
BRANCH   2  14
ATOM     13  C   UNL     1      80.214  46.641  45.253  0.00  0.00    +0.079 C 
ATOM     14  O   UNL     1      81.028  46.371  44.117  0.00  0.00    -0.495 OA
ENDBRANCH   2  14
ENDBRANCH   1  10
BRANCH   1  15
ATOM     15  C   UNL     1      86.074  52.290  42.161  0.00  0.00    +0.175 C 
ATOM     16  O   UNL     1      84.979  52.614  41.626  0.00  0.00    -0.291 OA
BRANCH  15  17
ATOM     17  C   UNL     1      87.323  52.470  41.381  0.00  0.00    +0.060 A 
ATOM     18  C   UNL     1      88.548  52.056  41.933  0.00  0.00    -0.044 A 
ATOM     19  C   UNL     1      89.743  52.243  41.233  0.00  0.00    -0.019 A 
ATOM     20  C   UNL     1      89.730  52.849  39.972  0.00  0.00    +0.120 A 
ATOM     21  C   UNL     1      88.517  53.256  39.410  0.00  0.00    +0.022 A 
ATOM     22  C   UNL     1      87.312  53.061  40.095  0.00  0.00    +0.131 A 
BRANCH  22  23
ATOM     23  O   UNL     1      86.127  53.437  39.458  0.00  0.00    -0.506 OA
ATOM     24  H   UNL     1      85.304  53.315  39.889  0.00  0.00    +0.000 HD
ENDBRANCH  22  23
BRANCH  20  25
ATOM     25  O   UNL     1      90.916  53.049  39.269  0.00  0.00    -0.507 OA
ATOM     26  H   UNL     1      91.524  53.703  39.551  0.00  0.00    +0.000 HD
ENDBRANCH  20  25
ENDBRANCH  15  17
ENDBRANCH   1  15
BRANCH   1  27
ATOM     27  C   UNL     1      85.363  52.695  44.625  0.00  0.00    +0.023 C 
BRANCH  27  28
ATOM     28  C   UNL     1      85.620  52.383  46.097  0.00  0.00    -0.039 A 
ATOM     29  C   UNL     1      84.857  52.969  47.128  0.00  0.00    -0.055 A 
ATOM     30  C   UNL     1      85.121  52.673  48.469  0.00  0.00    -0.020 A 
ATOM     31  C   UNL     1      86.147  51.786  48.804  0.00  0.00    +0.117 A 
ATOM     32  C   UNL     1      86.908  51.191  47.792  0.00  0.00    -0.020 A 
ATOM     33  C   UNL     1      86.647  51.485  46.452  0.00  0.00    -0.055 A 
BRANCH  31  34
ATOM     34  O   UNL     1      86.400  51.502  50.145  0.00  0.00    -0.507 OA
ATOM     35  H   UNL     1      86.463  52.199  50.767  0.00  0.00    +0.000 HD
ENDBRANCH  31  34
ENDBRANCH  27  28
BRANCH  27  36
ATOM     36  C   UNL     1      85.470  54.192  44.331  0.00  0.00    -0.039 A 
ATOM     37  C   UNL     1      86.657  54.923  44.545  0.00  0.00    -0.055 A 
ATOM     38  C   UNL     1      86.710  56.294  44.278  0.00  0.00    -0.020 A 
ATOM     39  C   UNL     1      85.580  56.966  43.808  0.00  0.00    +0.117 A 
ATOM     40  C   UNL     1      84.389  56.260  43.609  0.00  0.00    -0.020 A 
ATOM     41  C   UNL     1      84.332  54.889  43.875  0.00  0.00    -0.055 A 
BRANCH  39  42
ATOM     42  O   UNL     1      85.650  58.332  43.547  0.00  0.00    -0.507 OA
ATOM     43  H   UNL     1      86.387  58.685  43.089  0.00  0.00    +0.000 HD
ENDBRANCH  39  42
ENDBRANCH  27  36
ENDBRANCH   1  27
TORSDOF 11
ENDMDL
MODEL 8
REMARK VINA RESULT:   -10.181      3.215      7.647
REMARK INTER + INTRA:         -16.427
REMARK INTER:                 -15.538
REMARK INTRA:                  -0.889
REMARK UNBOUND:                -0.889
REMARK  Name = 
REMARK  12 active torsions:
REMARK  status: ('A' for Active; 'I' for Inactive)
REMARK    1  A    between atoms: C_1  and  O_2
REMARK    2  A    between atoms: O_2  and  C_3
REMARK    3  A    between atoms: C_11  and  C_14
REMARK    4  A    between atoms: C_14  and  C_15
REMARK    5  A    between atoms: C_14  and  C_25
REMARK    6  A    between atoms: C_15  and  C_17
REMARK    7  A    between atoms: C_20  and  O_24
REMARK    8  A    between atoms: C_22  and  O_23
REMARK    9  A    between atoms: C_25  and  C_26
REMARK   10  A    between atoms: C_25  and  C_33
REMARK   11  A    between atoms: C_29  and  O_32
REMARK   12  A    between atoms: C_36  and  O_39
REMARK                            x       y       z     vdW  Elec       q    Type
REMARK                         _______ _______ _______ _____ _____    ______ ____
ROOT
ATOM      1  C   UNL     1      86.468  50.873  43.330  0.00  0.00    +0.065 C 
ENDROOT
BRANCH   1  10
ATOM      2  C   UNL     1      80.282  49.838  43.518  0.00  0.00    +0.121 A 
ATOM      3  C   UNL     1      80.394  48.527  44.017  0.00  0.00    -0.016 A 
ATOM      4  C   UNL     1      81.652  47.971  44.266  0.00  0.00    -0.015 A 
ATOM      5  C   UNL     1      82.811  48.712  44.020  0.00  0.00    +0.139 A 
ATOM      6  C   UNL     1      82.715  50.025  43.515  0.00  0.00    +0.068 A 
ATOM      7  C   UNL     1      81.444  50.579  43.271  0.00  0.00    -0.006 A 
ATOM      8  C   UNL     1      83.901  50.739  43.276  0.00  0.00    +0.196 A 
ATOM      9  O   UNL     1      83.851  51.927  42.851  0.00  0.00    -0.287 OA
ATOM     10  C   UNL     1      85.148  50.120  43.513  0.00  0.00    +0.046 A 
ATOM     11  C   UNL     1      85.137  48.820  44.057  0.00  0.00    +0.100 A 
ATOM     12  O   UNL     1      83.998  48.175  44.273  0.00  0.00    -0.462 OA
BRANCH   2  14
ATOM     13  C   UNL     1      78.089  50.784  44.258  0.00  0.00    +0.079 C 
ATOM     14  O   UNL     1      79.042  50.440  43.258  0.00  0.00    -0.495 OA
ENDBRANCH   2  14
ENDBRANCH   1  10
BRANCH   1  15
ATOM     15  C   UNL     1      87.244  50.840  44.643  0.00  0.00    +0.175 C 
ATOM     16  O   UNL     1      88.311  50.175  44.743  0.00  0.00    -0.291 OA
BRANCH  15  17
ATOM     17  C   UNL     1      86.789  51.627  45.814  0.00  0.00    +0.060 A 
ATOM     18  C   UNL     1      86.513  52.997  45.661  0.00  0.00    -0.044 A 
ATOM     19  C   UNL     1      86.113  53.769  46.755  0.00  0.00    -0.019 A 
ATOM     20  C   UNL     1      85.986  53.183  48.018  0.00  0.00    +0.120 A 
ATOM     21  C   UNL     1      86.248  51.820  48.180  0.00  0.00    +0.022 A 
ATOM     22  C   UNL     1      86.635  51.033  47.089  0.00  0.00    +0.131 A 
BRANCH  22  23
ATOM     23  O   UNL     1      86.830  49.666  47.303  0.00  0.00    -0.506 OA
ATOM     24  H   UNL     1      87.515  49.373  47.872  0.00  0.00    +0.000 HD
ENDBRANCH  22  23
BRANCH  20  25
ATOM     25  O   UNL     1      85.596  53.944  49.118  0.00  0.00    -0.507 OA
ATOM     26  H   UNL     1      85.185  54.776  48.990  0.00  0.00    +0.000 HD
ENDBRANCH  20  25
ENDBRANCH  15  17
ENDBRANCH   1  15
BRANCH   1  27
ATOM     27  C   UNL     1      87.319  50.435  42.079  0.00  0.00    +0.023 C 
BRANCH  27  28
ATOM     28  C   UNL     1      88.243  51.508  41.506  0.00  0.00    -0.039 A 
ATOM     29  C   UNL     1      88.901  51.342  40.269  0.00  0.00    -0.055 A 
ATOM     30  C   UNL     1      89.748  52.337  39.774  0.00  0.00    -0.020 A 
ATOM     31  C   UNL     1      89.951  53.514  40.498  0.00  0.00    +0.117 A 
ATOM     32  C   UNL     1      89.299  53.695  41.722  0.00  0.00    -0.020 A 
ATOM     33  C   UNL     1      88.451  52.704  42.221  0.00  0.00    -0.055 A 
BRANCH  31  34
ATOM     34  O   UNL     1      90.800  54.496  39.991  0.00  0.00    -0.507 OA
ATOM     35  H   UNL     1      90.493  55.085  39.331  0.00  0.00    +0.000 HD
ENDBRANCH  31  34
ENDBRANCH  27  28
BRANCH  27  36
ATOM     36  C   UNL     1      88.034  49.092  42.237  0.00  0.00    -0.039 A 
ATOM     37  C   UNL     1      89.423  48.994  42.453  0.00  0.00    -0.055 A 
ATOM     38  C   UNL     1      90.042  47.746  42.577  0.00  0.00    -0.020 A 
ATOM     39  C   UNL     1      89.291  46.573  42.473  0.00  0.00    +0.117 A 
ATOM     40  C   UNL     1      87.914  46.652  42.239  0.00  0.00    -0.020 A 
ATOM     41  C   UNL     1      87.293  47.898  42.114  0.00  0.00    -0.055 A 
BRANCH  39  42
ATOM     42  O   UNL     1      89.922  45.338  42.599  0.00  0.00    -0.507 OA
ATOM     43  H   UNL     1      89.979  44.923  43.437  0.00  0.00    +0.000 HD
ENDBRANCH  39  42
ENDBRANCH  27  36
ENDBRANCH   1  27
TORSDOF 11
ENDMDL
MODEL 9
REMARK VINA RESULT:   -10.175      2.878      8.393
REMARK INTER + INTRA:         -16.418
REMARK INTER:                 -14.963
REMARK INTRA:                  -1.455
REMARK UNBOUND:                -0.889
REMARK  Name = 
REMARK  12 active torsions:
REMARK  status: ('A' for Active; 'I' for Inactive)
REMARK    1  A    between atoms: C_1  and  O_2
REMARK    2  A    between atoms: O_2  and  C_3
REMARK    3  A    between atoms: C_11  and  C_14
REMARK    4  A    between atoms: C_14  and  C_15
REMARK    5  A    between atoms: C_14  and  C_25
REMARK    6  A    between atoms: C_15  and  C_17
REMARK    7  A    between atoms: C_20  and  O_24
REMARK    8  A    between atoms: C_22  and  O_23
REMARK    9  A    between atoms: C_25  and  C_26
REMARK   10  A    between atoms: C_25  and  C_33
REMARK   11  A    between atoms: C_29  and  O_32
REMARK   12  A    between atoms: C_36  and  O_39
REMARK                            x       y       z     vdW  Elec       q    Type
REMARK                         _______ _______ _______ _____ _____    ______ ____
ROOT
ATOM      1  C   UNL     1      87.481  51.569  43.613  0.00  0.00    +0.065 C 
ENDROOT
BRANCH   1  10
ATOM      2  C   UNL     1      84.687  56.884  45.432  0.00  0.00    +0.121 A 
ATOM      3  C   UNL     1      84.242  57.234  44.143  0.00  0.00    -0.016 A 
ATOM      4  C   UNL     1      84.527  56.411  43.050  0.00  0.00    -0.015 A 
ATOM      5  C   UNL     1      85.258  55.233  43.226  0.00  0.00    +0.139 A 
ATOM      6  C   UNL     1      85.715  54.872  44.512  0.00  0.00    +0.068 A 
ATOM      7  C   UNL     1      85.421  55.704  45.608  0.00  0.00    -0.006 A 
ATOM      8  C   UNL     1      86.450  53.683  44.651  0.00  0.00    +0.196 A 
ATOM      9  O   UNL     1      86.850  53.315  45.790  0.00  0.00    -0.287 OA
ATOM     10  C   UNL     1      86.739  52.903  43.509  0.00  0.00    +0.046 A 
ATOM     11  C   UNL     1      86.203  53.328  42.278  0.00  0.00    +0.100 A 
ATOM     12  O   UNL     1      85.510  54.456  42.182  0.00  0.00    -0.462 OA
BRANCH   2  14
ATOM     13  C   UNL     1      84.088  59.059  46.510  0.00  0.00    +0.079 C 
ATOM     14  O   UNL     1      84.421  57.676  46.560  0.00  0.00    -0.495 OA
ENDBRANCH   2  14
ENDBRANCH   1  10
BRANCH   1  15
ATOM     15  C   UNL     1      86.722  50.653  44.568  0.00  0.00    +0.175 C 
ATOM     16  O   UNL     1      87.221  50.323  45.678  0.00  0.00    -0.291 OA
BRANCH  15  17
ATOM     17  C   UNL     1      85.360  50.169  44.235  0.00  0.00    +0.060 A 
ATOM     18  C   UNL     1      84.360  51.098  43.898  0.00  0.00    -0.044 A 
ATOM     19  C   UNL     1      83.061  50.672  43.610  0.00  0.00    -0.019 A 
ATOM     20  C   UNL     1      82.742  49.311  43.657  0.00  0.00    +0.120 A 
ATOM     21  C   UNL     1      83.730  48.378  43.982  0.00  0.00    +0.022 A 
ATOM     22  C   UNL     1      85.039  48.791  44.258  0.00  0.00    +0.131 A 
BRANCH  22  23
ATOM     23  O   UNL     1      85.995  47.807  44.521  0.00  0.00    -0.506 OA
ATOM     24  H   UNL     1      86.888  47.943  44.270  0.00  0.00    +0.000 HD
ENDBRANCH  22  23
BRANCH  20  25
ATOM     25  O   UNL     1      81.448  48.875  43.381  0.00  0.00    -0.507 OA
ATOM     26  H   UNL     1      80.873  48.638  44.082  0.00  0.00    +0.000 HD
ENDBRANCH  20  25
ENDBRANCH  15  17
ENDBRANCH   1  15
BRANCH   1  27
ATOM     27  C   UNL     1      87.838  50.893  42.236  0.00  0.00    +0.023 C 
BRANCH  27  28
ATOM     28  C   UNL     1      88.638  51.760  41.267  0.00  0.00    -0.039 A 
ATOM     29  C   UNL     1      89.836  52.398  41.652  0.00  0.00    -0.055 A 
ATOM     30  C   UNL     1      90.542  53.195  40.746  0.00  0.00    -0.020 A 
ATOM     31  C   UNL     1      90.072  53.365  39.443  0.00  0.00    +0.117 A 
ATOM     32  C   UNL     1      88.890  52.731  39.044  0.00  0.00    -0.020 A 
ATOM     33  C   UNL     1      88.181  51.935  39.946  0.00  0.00    -0.055 A 
BRANCH  31  34
ATOM     34  O   UNL     1      90.786  54.163  38.552  0.00  0.00    -0.507 OA
ATOM     35  H   UNL     1      90.614  54.108  37.632  0.00  0.00    +0.000 HD
ENDBRANCH  31  34
ENDBRANCH  27  28
BRANCH  27  36
ATOM     36  C   UNL     1      88.420  49.483  42.355  0.00  0.00    -0.039 A 
ATOM     37  C   UNL     1      89.615  49.212  43.051  0.00  0.00    -0.055 A 
ATOM     38  C   UNL     1      90.123  47.912  43.123  0.00  0.00    -0.020 A 
ATOM     39  C   UNL     1      89.457  46.859  42.491  0.00  0.00    +0.117 A 
ATOM     40  C   UNL     1      88.280  47.113  41.780  0.00  0.00    -0.020 A 
ATOM     41  C   UNL     1      87.770  48.412  41.705  0.00  0.00    -0.055 A 
BRANCH  39  42
ATOM     42  O   UNL     1      89.976  45.569  42.573  0.00  0.00    -0.507 OA
ATOM     43  H   UNL     1      90.252  45.225  43.400  0.00  0.00    +0.000 HD
ENDBRANCH  39  42
ENDBRANCH  27  36
ENDBRANCH   1  27
TORSDOF 11
ENDMDL
