MODEL 1
REMARK VINA RESULT:    -8.361      0.000      0.000
REMARK INTER + INTRA:         -12.170
REMARK INTER:                 -10.580
REMARK INTRA:                  -1.590
REMARK UNBOUND:                -0.876
REMARK  Name = 
REMARK  11 active torsions:
REMARK  status: ('A' for Active; 'I' for Inactive)
REMARK    1  A    between atoms: C_1  and  C_2
REMARK    2  A    between atoms: C_2  and  C_22
REMARK    3  A    between atoms: C_3  and  C_4
REMARK    4  A    between atoms: C_4  and  C_6
REMARK    5  A    between atoms: C_12  and  C_15
REMARK    6  A    between atoms: C_15  and  C_16
REMARK    7  A    between atoms: C_16  and  C_17
REMARK    8  A    between atoms: C_16  and  O_21
REMARK    9  A    between atoms: C_17  and  O_18
REMARK   10  A    between atoms: C_17  and  C_19
REMARK   11  A    between atoms: C_17  and  C_20
REMARK                            x       y       z     vdW  Elec       q    Type
REMARK                         _______ _______ _______ _____ _____    ______ ____
ROOT
ATOM      1  C   UNL     1      85.886  52.732  47.730  0.00  0.00    +0.022 A 
ATOM      2  C   UNL     1      84.961  52.723  48.810  0.00  0.00    -0.049 A 
ATOM      3  C   UNL     1      84.129  53.828  49.058  0.00  0.00    -0.037 A 
ATOM      4  C   UNL     1      84.236  54.929  48.215  0.00  0.00    +0.047 A 
ATOM      5  C   UNL     1      85.125  54.953  47.173  0.00  0.00    +0.004 A 
ATOM      6  C   UNL     1      85.974  53.879  46.906  0.00  0.00    -0.042 A 
ATOM      7  C   UNL     1      84.982  56.182  46.553  0.00  0.00    -0.020 A 
ATOM      8  C   UNL     1      83.998  56.853  47.275  0.00  0.00    +0.006 A 
ATOM      9  N   UNL     1      83.546  56.080  48.287  0.00  0.00    -0.360 N 
ATOM     10  H   UNL     1      82.851  56.313  48.945  0.00  0.00    +0.000 HD
ENDROOT
BRANCH   1  11
ATOM     11  C   UNL     1      86.774  51.572  47.472  0.00  0.00    +0.186 C 
ATOM     12  O   UNL     1      86.946  50.721  48.386  0.00  0.00    -0.287 OA
BRANCH  11  15
ATOM     13  C   UNL     1      85.600  50.354  44.955  0.00  0.00    -0.044 C 
ATOM     14  C   UNL     1      87.007  50.885  45.054  0.00  0.00    -0.072 C 
ATOM     15  C   UNL     1      87.499  51.440  46.181  0.00  0.00    -0.016 C 
ATOM     16  C   UNL     1      87.898  50.830  43.841  0.00  0.00    -0.044 C 
ENDBRANCH  11  15
ENDBRANCH   1  11
BRANCH   7  17
ATOM     17  C   UNL     1      85.716  56.695  45.344  0.00  0.00    +0.003 C 
BRANCH  17  18
ATOM     18  C   UNL     1      84.920  56.550  44.021  0.00  0.00    +0.087 C 
BRANCH  18  19
ATOM     19  C   UNL     1      85.272  55.292  43.164  0.00  0.00    +0.087 C 
ATOM     20  C   UNL     1      86.709  54.803  43.454  0.00  0.00    -0.034 C 
ATOM     21  C   UNL     1      84.285  54.155  43.514  0.00  0.00    -0.034 C 
BRANCH  19  22
ATOM     22  O   UNL     1      85.138  55.610  41.800  0.00  0.00    -0.387 OA
ATOM     23  H   UNL     1      84.198  55.625  41.561  0.00  0.00    +0.000 HD
ENDBRANCH  19  22
ENDBRANCH  18  19
BRANCH  18  24
ATOM     24  O   UNL     1      85.088  57.708  43.241  0.00  0.00    -0.389 OA
ATOM     25  H   UNL     1      85.280  57.456  42.324  0.00  0.00    +0.000 HD
ENDBRANCH  18  24
ENDBRANCH  17  18
ENDBRANCH   7  17
TORSDOF 7
ENDMDL
MODEL 2
REMARK VINA RESULT:    -7.954      1.222      1.508
REMARK INTER + INTRA:         -11.621
REMARK INTER:                  -9.967
REMARK INTRA:                  -1.654
REMARK UNBOUND:                -0.876
REMARK  Name = 
REMARK  11 active torsions:
REMARK  status: ('A' for Active; 'I' for Inactive)
REMARK    1  A    between atoms: C_1  and  C_2
REMARK    2  A    between atoms: C_2  and  C_22
REMARK    3  A    between atoms: C_3  and  C_4
REMARK    4  A    between atoms: C_4  and  C_6
REMARK    5  A    between atoms: C_12  and  C_15
REMARK    6  A    between atoms: C_15  and  C_16
REMARK    7  A    between atoms: C_16  and  C_17
REMARK    8  A    between atoms: C_16  and  O_21
REMARK    9  A    between atoms: C_17  and  O_18
REMARK   10  A    between atoms: C_17  and  C_19
REMARK   11  A    between atoms: C_17  and  C_20
REMARK                            x       y       z     vdW  Elec       q    Type
REMARK                         _______ _______ _______ _____ _____    ______ ____
ROOT
ATOM      1  C   UNL     1      86.495  52.153  47.348  0.00  0.00    +0.022 A 
ATOM      2  C   UNL     1      85.886  52.560  48.568  0.00  0.00    -0.049 A 
ATOM      3  C   UNL     1      85.354  53.853  48.713  0.00  0.00    -0.037 A 
ATOM      4  C   UNL     1      85.440  54.721  47.630  0.00  0.00    +0.047 A 
ATOM      5  C   UNL     1      86.027  54.344  46.451  0.00  0.00    +0.004 A 
ATOM      6  C   UNL     1      86.576  53.074  46.277  0.00  0.00    -0.042 A 
ATOM      7  C   UNL     1      85.954  55.434  45.602  0.00  0.00    -0.020 A 
ATOM      8  C   UNL     1      85.320  56.436  46.332  0.00  0.00    +0.006 A 
ATOM      9  N   UNL     1      85.007  55.992  47.570  0.00  0.00    -0.360 N 
ATOM     10  H   UNL     1      84.553  56.497  48.283  0.00  0.00    +0.000 HD
ENDROOT
BRANCH   1  11
ATOM     11  C   UNL     1      87.068  50.793  47.194  0.00  0.00    +0.186 C 
ATOM     12  O   UNL     1      87.053  50.011  48.182  0.00  0.00    -0.287 OA
BRANCH  11  15
ATOM     13  C   UNL     1      85.666  49.225  45.009  0.00  0.00    -0.044 C 
ATOM     14  C   UNL     1      87.108  49.660  44.939  0.00  0.00    -0.072 C 
ATOM     15  C   UNL     1      87.702  50.375  45.917  0.00  0.00    -0.016 C 
ATOM     16  C   UNL     1      87.918  49.319  43.716  0.00  0.00    -0.044 C 
ENDBRANCH  11  15
ENDBRANCH   1  11
BRANCH   7  17
ATOM     17  C   UNL     1      86.439  55.528  44.181  0.00  0.00    +0.003 C 
BRANCH  17  18
ATOM     18  C   UNL     1      85.448  54.944  43.141  0.00  0.00    +0.087 C 
BRANCH  18  19
ATOM     19  C   UNL     1      85.923  53.640  42.424  0.00  0.00    +0.087 C 
ATOM     20  C   UNL     1      87.392  53.315  42.774  0.00  0.00    -0.034 C 
ATOM     21  C   UNL     1      85.034  52.463  42.884  0.00  0.00    -0.034 C 
BRANCH  19  22
ATOM     22  O   UNL     1      85.784  53.802  41.033  0.00  0.00    -0.387 OA
ATOM     23  H   UNL     1      85.409  54.677  40.844  0.00  0.00    +0.000 HD
ENDBRANCH  19  22
ENDBRANCH  18  19
BRANCH  18  24
ATOM     24  O   UNL     1      85.144  55.923  42.178  0.00  0.00    -0.389 OA
ATOM     25  H   UNL     1      84.654  56.648  42.598  0.00  0.00    +0.000 HD
ENDBRANCH  18  24
ENDBRANCH  17  18
ENDBRANCH   7  17
TORSDOF 7
ENDMDL
MODEL 3
REMARK VINA RESULT:    -7.899      5.178      6.359
REMARK INTER + INTRA:         -11.546
REMARK INTER:                 -10.681
REMARK INTRA:                  -0.865
REMARK UNBOUND:                -0.876
REMARK  Name = 
REMARK  11 active torsions:
REMARK  status: ('A' for Active; 'I' for Inactive)
REMARK    1  A    between atoms: C_1  and  C_2
REMARK    2  A    between atoms: C_2  and  C_22
REMARK    3  A    between atoms: C_3  and  C_4
REMARK    4  A    between atoms: C_4  and  C_6
REMARK    5  A    between atoms: C_12  and  C_15
REMARK    6  A    between atoms: C_15  and  C_16
REMARK    7  A    between atoms: C_16  and  C_17
REMARK    8  A    between atoms: C_16  and  O_21
REMARK    9  A    between atoms: C_17  and  O_18
REMARK   10  A    between atoms: C_17  and  C_19
REMARK   11  A    between atoms: C_17  and  C_20
REMARK                            x       y       z     vdW  Elec       q    Type
REMARK                         _______ _______ _______ _____ _____    ______ ____
ROOT
ATOM      1  C   UNL     1      82.934  50.814  43.205  0.00  0.00    +0.022 A 
ATOM      2  C   UNL     1      81.716  51.371  42.725  0.00  0.00    -0.049 A 
ATOM      3  C   UNL     1      81.721  52.452  41.826  0.00  0.00    -0.037 A 
ATOM      4  C   UNL     1      82.950  52.958  41.419  0.00  0.00    +0.047 A 
ATOM      5  C   UNL     1      84.131  52.434  41.875  0.00  0.00    +0.004 A 
ATOM      6  C   UNL     1      84.163  51.370  42.777  0.00  0.00    -0.042 A 
ATOM      7  C   UNL     1      85.147  53.167  41.289  0.00  0.00    -0.020 A 
ATOM      8  C   UNL     1      84.512  54.122  40.498  0.00  0.00    +0.006 A 
ATOM      9  N   UNL     1      83.170  53.986  40.582  0.00  0.00    -0.360 N 
ATOM     10  H   UNL     1      82.490  54.531  40.122  0.00  0.00    +0.000 HD
ENDROOT
BRANCH   1  11
ATOM     11  C   UNL     1      82.934  49.680  44.162  0.00  0.00    +0.186 C 
ATOM     12  O   UNL     1      84.010  49.375  44.744  0.00  0.00    -0.287 OA
BRANCH  11  15
ATOM     13  C   UNL     1      82.420  46.942  42.963  0.00  0.00    -0.044 C 
ATOM     14  C   UNL     1      81.444  47.667  43.854  0.00  0.00    -0.072 C 
ATOM     15  C   UNL     1      81.705  48.876  44.391  0.00  0.00    -0.016 C 
ATOM     16  C   UNL     1      80.133  47.007  44.195  0.00  0.00    -0.044 C 
ENDBRANCH  11  15
ENDBRANCH   1  11
BRANCH   7  17
ATOM     17  C   UNL     1      86.631  52.977  41.449  0.00  0.00    +0.003 C 
BRANCH  17  18
ATOM     18  C   UNL     1      87.312  52.312  40.225  0.00  0.00    +0.087 C 
BRANCH  18  19
ATOM     19  C   UNL     1      88.608  51.500  40.540  0.00  0.00    +0.087 C 
ATOM     20  C   UNL     1      89.602  52.337  41.376  0.00  0.00    -0.034 C 
ATOM     21  C   UNL     1      88.226  50.239  41.347  0.00  0.00    -0.034 C 
BRANCH  19  22
ATOM     22  O   UNL     1      89.211  51.104  39.331  0.00  0.00    -0.387 OA
ATOM     23  H   UNL     1      88.531  50.776  38.722  0.00  0.00    +0.000 HD
ENDBRANCH  19  22
ENDBRANCH  18  19
BRANCH  18  24
ATOM     24  O   UNL     1      87.598  53.290  39.256  0.00  0.00    -0.389 OA
ATOM     25  H   UNL     1      86.920  53.267  38.562  0.00  0.00    +0.000 HD
ENDBRANCH  18  24
ENDBRANCH  17  18
ENDBRANCH   7  17
TORSDOF 7
ENDMDL
MODEL 4
REMARK VINA RESULT:    -7.715      2.859      5.540
REMARK INTER + INTRA:         -11.297
REMARK INTER:                 -10.458
REMARK INTRA:                  -0.839
REMARK UNBOUND:                -0.876
REMARK  Name = 
REMARK  11 active torsions:
REMARK  status: ('A' for Active; 'I' for Inactive)
REMARK    1  A    between atoms: C_1  and  C_2
REMARK    2  A    between atoms: C_2  and  C_22
REMARK    3  A    between atoms: C_3  and  C_4
REMARK    4  A    between atoms: C_4  and  C_6
REMARK    5  A    between atoms: C_12  and  C_15
REMARK    6  A    between atoms: C_15  and  C_16
REMARK    7  A    between atoms: C_16  and  C_17
REMARK    8  A    between atoms: C_16  and  O_21
REMARK    9  A    between atoms: C_17  and  O_18
REMARK   10  A    between atoms: C_17  and  C_19
REMARK   11  A    between atoms: C_17  and  C_20
REMARK                            x       y       z     vdW  Elec       q    Type
REMARK                         _______ _______ _______ _____ _____    ______ ____
ROOT
ATOM      1  C   UNL     1      85.662  54.071  47.488  0.00  0.00    +0.022 A 
ATOM      2  C   UNL     1      85.561  53.370  48.721  0.00  0.00    -0.049 A 
ATOM      3  C   UNL     1      86.032  52.051  48.843  0.00  0.00    -0.037 A 
ATOM      4  C   UNL     1      86.601  51.453  47.723  0.00  0.00    +0.047 A 
ATOM      5  C   UNL     1      86.702  52.116  46.528  0.00  0.00    +0.004 A 
ATOM      6  C   UNL     1      86.234  53.420  46.369  0.00  0.00    -0.042 A 
ATOM      7  C   UNL     1      87.298  51.242  45.636  0.00  0.00    -0.020 A 
ATOM      8  C   UNL     1      87.523  50.070  46.353  0.00  0.00    +0.006 A 
ATOM      9  N   UNL     1      87.096  50.208  47.629  0.00  0.00    -0.360 N 
ATOM     10  H   UNL     1      87.140  49.532  48.344  0.00  0.00    +0.000 HD
ENDROOT
BRANCH   1  11
ATOM     11  C   UNL     1      85.157  55.459  47.351  0.00  0.00    +0.186 C 
ATOM     12  O   UNL     1      84.121  55.795  47.988  0.00  0.00    -0.287 OA
BRANCH  11  15
ATOM     13  C   UNL     1      84.267  56.023  44.507  0.00  0.00    -0.044 C 
ATOM     14  C   UNL     1      85.456  56.679  45.162  0.00  0.00    -0.072 C 
ATOM     15  C   UNL     1      85.819  56.425  46.436  0.00  0.00    -0.016 C 
ATOM     16  C   UNL     1      86.258  57.688  44.383  0.00  0.00    -0.044 C 
ENDBRANCH  11  15
ENDBRANCH   1  11
BRANCH   7  17
ATOM     17  C   UNL     1      87.650  51.495  44.195  0.00  0.00    +0.003 C 
BRANCH  17  18
ATOM     18  C   UNL     1      87.771  50.203  43.345  0.00  0.00    +0.087 C 
BRANCH  18  19
ATOM     19  C   UNL     1      88.680  50.319  42.080  0.00  0.00    +0.087 C 
ATOM     20  C   UNL     1      89.029  51.793  41.777  0.00  0.00    -0.034 C 
ATOM     21  C   UNL     1      89.993  49.544  42.334  0.00  0.00    -0.034 C 
BRANCH  19  22
ATOM     22  O   UNL     1      88.016  49.745  40.980  0.00  0.00    -0.387 OA
ATOM     23  H   UNL     1      87.057  49.834  41.098  0.00  0.00    +0.000 HD
ENDBRANCH  19  22
ENDBRANCH  18  19
BRANCH  18  24
ATOM     24  O   UNL     1      86.490  49.769  42.961  0.00  0.00    -0.389 OA
ATOM     25  H   UNL     1      85.935  50.539  42.758  0.00  0.00    +0.000 HD
ENDBRANCH  18  24
ENDBRANCH  17  18
ENDBRANCH   7  17
TORSDOF 7
ENDMDL
MODEL 5
REMARK VINA RESULT:    -7.670      2.964      5.434
REMARK INTER + INTRA:         -11.236
REMARK INTER:                 -10.718
REMARK INTRA:                  -0.518
REMARK UNBOUND:                -0.876
REMARK  Name = 
REMARK  11 active torsions:
REMARK  status: ('A' for Active; 'I' for Inactive)
REMARK    1  A    between atoms: C_1  and  C_2
REMARK    2  A    between atoms: C_2  and  C_22
REMARK    3  A    between atoms: C_3  and  C_4
REMARK    4  A    between atoms: C_4  and  C_6
REMARK    5  A    between atoms: C_12  and  C_15
REMARK    6  A    between atoms: C_15  and  C_16
REMARK    7  A    between atoms: C_16  and  C_17
REMARK    8  A    between atoms: C_16  and  O_21
REMARK    9  A    between atoms: C_17  and  O_18
REMARK   10  A    between atoms: C_17  and  C_19
REMARK   11  A    between atoms: C_17  and  C_20
REMARK                            x       y       z     vdW  Elec       q    Type
REMARK                         _______ _______ _______ _____ _____    ______ ____
ROOT
ATOM      1  C   UNL     1      86.427  52.787  47.133  0.00  0.00    +0.022 A 
ATOM      2  C   UNL     1      86.577  51.495  47.709  0.00  0.00    -0.049 A 
ATOM      3  C   UNL     1      87.057  50.415  46.947  0.00  0.00    -0.037 A 
ATOM      4  C   UNL     1      87.382  50.649  45.615  0.00  0.00    +0.047 A 
ATOM      5  C   UNL     1      87.239  51.887  45.046  0.00  0.00    +0.004 A 
ATOM      6  C   UNL     1      86.755  52.977  45.770  0.00  0.00    -0.042 A 
ATOM      7  C   UNL     1      87.636  51.768  43.726  0.00  0.00    -0.020 A 
ATOM      8  C   UNL     1      87.998  50.434  43.562  0.00  0.00    +0.006 A 
ATOM      9  N   UNL     1      87.842  49.757  44.721  0.00  0.00    -0.360 N 
ATOM     10  H   UNL     1      88.027  48.802  44.879  0.00  0.00    +0.000 HD
ENDROOT
BRANCH   1  11
ATOM     11  C   UNL     1      85.911  53.926  47.931  0.00  0.00    +0.186 C 
ATOM     12  O   UNL     1      85.696  53.760  49.162  0.00  0.00    -0.287 OA
BRANCH  11  15
ATOM     13  C   UNL     1      83.243  55.352  48.151  0.00  0.00    -0.044 C 
ATOM     14  C   UNL     1      84.411  55.871  47.350  0.00  0.00    -0.072 C 
ATOM     15  C   UNL     1      85.594  55.226  47.284  0.00  0.00    -0.016 C 
ATOM     16  C   UNL     1      84.272  57.179  46.617  0.00  0.00    -0.044 C 
ENDBRANCH  11  15
ENDBRANCH   1  11
BRANCH   7  17
ATOM     17  C   UNL     1      87.687  52.848  42.679  0.00  0.00    +0.003 C 
BRANCH  17  18
ATOM     18  C   UNL     1      87.468  52.329  41.234  0.00  0.00    +0.087 C 
BRANCH  18  19
ATOM     19  C   UNL     1      88.756  52.233  40.356  0.00  0.00    +0.087 C 
ATOM     20  C   UNL     1      89.868  53.161  40.893  0.00  0.00    -0.034 C 
ATOM     21  C   UNL     1      89.273  50.777  40.383  0.00  0.00    -0.034 C 
BRANCH  19  22
ATOM     22  O   UNL     1      88.438  52.580  39.030  0.00  0.00    -0.387 OA
ATOM     23  H   UNL     1      87.474  52.637  38.932  0.00  0.00    +0.000 HD
ENDBRANCH  19  22
ENDBRANCH  18  19
BRANCH  18  24
ATOM     24  O   UNL     1      86.517  53.136  40.583  0.00  0.00    -0.389 OA
ATOM     25  H   UNL     1      86.058  52.613  39.907  0.00  0.00    +0.000 HD
ENDBRANCH  18  24
ENDBRANCH  17  18
ENDBRANCH   7  17
TORSDOF 7
ENDMDL
MODEL 6
REMARK VINA RESULT:    -7.513      2.525      4.098
REMARK INTER + INTRA:         -11.025
REMARK INTER:                  -9.891
REMARK INTRA:                  -1.134
REMARK UNBOUND:                -0.876
REMARK  Name = 
REMARK  11 active torsions:
REMARK  status: ('A' for Active; 'I' for Inactive)
REMARK    1  A    between atoms: C_1  and  C_2
REMARK    2  A    between atoms: C_2  and  C_22
REMARK    3  A    between atoms: C_3  and  C_4
REMARK    4  A    between atoms: C_4  and  C_6
REMARK    5  A    between atoms: C_12  and  C_15
REMARK    6  A    between atoms: C_15  and  C_16
REMARK    7  A    between atoms: C_16  and  C_17
REMARK    8  A    between atoms: C_16  and  O_21
REMARK    9  A    between atoms: C_17  and  O_18
REMARK   10  A    between atoms: C_17  and  C_19
REMARK   11  A    between atoms: C_17  and  C_20
REMARK                            x       y       z     vdW  Elec       q    Type
REMARK                         _______ _______ _______ _____ _____    ______ ____
ROOT
ATOM      1  C   UNL     1      87.863  50.661  44.331  0.00  0.00    +0.022 A 
ATOM      2  C   UNL     1      87.724  49.689  45.360  0.00  0.00    -0.049 A 
ATOM      3  C   UNL     1      87.171  50.032  46.607  0.00  0.00    -0.037 A 
ATOM      4  C   UNL     1      86.763  51.347  46.802  0.00  0.00    +0.047 A 
ATOM      5  C   UNL     1      86.894  52.294  45.821  0.00  0.00    +0.004 A 
ATOM      6  C   UNL     1      87.449  51.992  44.577  0.00  0.00    -0.042 A 
ATOM      7  C   UNL     1      86.408  53.479  46.342  0.00  0.00    -0.020 A 
ATOM      8  C   UNL     1      86.007  53.181  47.642  0.00  0.00    +0.006 A 
ATOM      9  N   UNL     1      86.226  51.875  47.915  0.00  0.00    -0.360 N 
ATOM     10  H   UNL     1      86.031  51.406  48.758  0.00  0.00    +0.000 HD
ENDROOT
BRANCH   1  11
ATOM     11  C   UNL     1      88.456  50.307  43.018  0.00  0.00    +0.186 C 
ATOM     12  O   UNL     1      88.687  51.226  42.186  0.00  0.00    -0.287 OA
BRANCH  11  15
ATOM     13  C   UNL     1      91.171  48.967  43.185  0.00  0.00    -0.044 C 
ATOM     14  C   UNL     1      89.920  48.275  42.705  0.00  0.00    -0.072 C 
ATOM     15  C   UNL     1      88.720  48.889  42.659  0.00  0.00    -0.016 C 
ATOM     16  C   UNL     1      89.996  46.829  42.290  0.00  0.00    -0.044 C 
ENDBRANCH  11  15
ENDBRANCH   1  11
BRANCH   7  17
ATOM     17  C   UNL     1      86.311  54.816  45.656  0.00  0.00    +0.003 C 
BRANCH  17  18
ATOM     18  C   UNL     1      84.930  55.085  45.004  0.00  0.00    +0.087 C 
BRANCH  18  19
ATOM     19  C   UNL     1      84.868  54.874  43.458  0.00  0.00    +0.087 C 
ATOM     20  C   UNL     1      84.206  53.523  43.105  0.00  0.00    -0.034 C 
ATOM     21  C   UNL     1      84.033  56.012  42.829  0.00  0.00    -0.034 C 
BRANCH  19  22
ATOM     22  O   UNL     1      86.174  54.921  42.933  0.00  0.00    -0.387 OA
ATOM     23  H   UNL     1      86.134  54.907  41.964  0.00  0.00    +0.000 HD
ENDBRANCH  19  22
ENDBRANCH  18  19
BRANCH  18  24
ATOM     24  O   UNL     1      84.509  56.390  45.315  0.00  0.00    -0.389 OA
ATOM     25  H   UNL     1      83.540  56.416  45.361  0.00  0.00    +0.000 HD
ENDBRANCH  18  24
ENDBRANCH  17  18
ENDBRANCH   7  17
TORSDOF 7
ENDMDL
MODEL 7
REMARK VINA RESULT:    -7.434      2.420      4.929
REMARK INTER + INTRA:         -10.918
REMARK INTER:                  -9.480
REMARK INTRA:                  -1.437
REMARK UNBOUND:                -0.876
REMARK  Name = 
REMARK  11 active torsions:
REMARK  status: ('A' for Active; 'I' for Inactive)
REMARK    1  A    between atoms: C_1  and  C_2
REMARK    2  A    between atoms: C_2  and  C_22
REMARK    3  A    between atoms: C_3  and  C_4
REMARK    4  A    between atoms: C_4  and  C_6
REMARK    5  A    between atoms: C_12  and  C_15
REMARK    6  A    between atoms: C_15  and  C_16
REMARK    7  A    between atoms: C_16  and  C_17
REMARK    8  A    between atoms: C_16  and  O_21
REMARK    9  A    between atoms: C_17  and  O_18
REMARK   10  A    between atoms: C_17  and  C_19
REMARK   11  A    between atoms: C_17  and  C_20
REMARK                            x       y       z     vdW  Elec       q    Type
REMARK                         _______ _______ _______ _____ _____    ______ ____
ROOT
ATOM      1  C   UNL     1      85.767  52.463  46.594  0.00  0.00    +0.022 A 
ATOM      2  C   UNL     1      86.866  51.643  46.970  0.00  0.00    -0.049 A 
ATOM      3  C   UNL     1      87.588  50.915  46.007  0.00  0.00    -0.037 A 
ATOM      4  C   UNL     1      87.195  51.022  44.678  0.00  0.00    +0.047 A 
ATOM      5  C   UNL     1      86.136  51.806  44.301  0.00  0.00    +0.004 A 
ATOM      6  C   UNL     1      85.391  52.531  45.231  0.00  0.00    -0.042 A 
ATOM      7  C   UNL     1      86.013  51.679  42.929  0.00  0.00    -0.020 A 
ATOM      8  C   UNL     1      87.021  50.800  42.542  0.00  0.00    +0.006 A 
ATOM      9  N   UNL     1      87.740  50.405  43.616  0.00  0.00    -0.360 N 
ATOM     10  H   UNL     1      88.509  49.789  43.620  0.00  0.00    +0.000 HD
ENDROOT
BRANCH   1  11
ATOM     11  C   UNL     1      84.996  53.224  47.608  0.00  0.00    +0.186 C 
ATOM     12  O   UNL     1      84.957  52.793  48.792  0.00  0.00    -0.287 OA
BRANCH  11  15
ATOM     13  C   UNL     1      86.214  55.979  47.250  0.00  0.00    -0.044 C 
ATOM     14  C   UNL     1      84.746  55.680  47.082  0.00  0.00    -0.072 C 
ATOM     15  C   UNL     1      84.232  54.441  47.228  0.00  0.00    -0.016 C 
ATOM     16  C   UNL     1      83.809  56.797  46.702  0.00  0.00    -0.044 C 
ENDBRANCH  11  15
ENDBRANCH   1  11
BRANCH   7  17
ATOM     17  C   UNL     1      85.014  52.354  42.028  0.00  0.00    +0.003 C 
BRANCH  17  18
ATOM     18  C   UNL     1      85.512  53.699  41.439  0.00  0.00    +0.087 C 
BRANCH  18  19
ATOM     19  C   UNL     1      84.618  54.940  41.757  0.00  0.00    +0.087 C 
ATOM     20  C   UNL     1      83.145  54.525  41.974  0.00  0.00    -0.034 C 
ATOM     21  C   UNL     1      85.135  55.613  43.048  0.00  0.00    -0.034 C 
BRANCH  19  22
ATOM     22  O   UNL     1      84.707  55.858  40.694  0.00  0.00    -0.387 OA
ATOM     23  H   UNL     1      85.407  56.503  40.881  0.00  0.00    +0.000 HD
ENDBRANCH  19  22
ENDBRANCH  18  19
BRANCH  18  24
ATOM     24  O   UNL     1      85.664  53.577  40.046  0.00  0.00    -0.389 OA
ATOM     25  H   UNL     1      85.227  54.323  39.607  0.00  0.00    +0.000 HD
ENDBRANCH  18  24
ENDBRANCH  17  18
ENDBRANCH   7  17
TORSDOF 7
ENDMDL
MODEL 8
REMARK VINA RESULT:    -7.388      3.043      5.448
REMARK INTER + INTRA:         -10.855
REMARK INTER:                 -10.047
REMARK INTRA:                  -0.808
REMARK UNBOUND:                -0.876
REMARK  Name = 
REMARK  11 active torsions:
REMARK  status: ('A' for Active; 'I' for Inactive)
REMARK    1  A    between atoms: C_1  and  C_2
REMARK    2  A    between atoms: C_2  and  C_22
REMARK    3  A    between atoms: C_3  and  C_4
REMARK    4  A    between atoms: C_4  and  C_6
REMARK    5  A    between atoms: C_12  and  C_15
REMARK    6  A    between atoms: C_15  and  C_16
REMARK    7  A    between atoms: C_16  and  C_17
REMARK    8  A    between atoms: C_16  and  O_21
REMARK    9  A    between atoms: C_17  and  O_18
REMARK   10  A    between atoms: C_17  and  C_19
REMARK   11  A    between atoms: C_17  and  C_20
REMARK                            x       y       z     vdW  Elec       q    Type
REMARK                         _______ _______ _______ _____ _____    ______ ____
ROOT
ATOM      1  C   UNL     1      85.319  55.395  45.019  0.00  0.00    +0.022 A 
ATOM      2  C   UNL     1      84.450  56.423  44.559  0.00  0.00    -0.049 A 
ATOM      3  C   UNL     1      83.995  56.442  43.229  0.00  0.00    -0.037 A 
ATOM      4  C   UNL     1      84.418  55.427  42.378  0.00  0.00    +0.047 A 
ATOM      5  C   UNL     1      85.257  54.433  42.807  0.00  0.00    +0.004 A 
ATOM      6  C   UNL     1      85.738  54.389  44.116  0.00  0.00    -0.042 A 
ATOM      7  C   UNL     1      85.483  53.605  41.721  0.00  0.00    -0.020 A 
ATOM      8  C   UNL     1      84.759  54.160  40.670  0.00  0.00    +0.006 A 
ATOM      9  N   UNL     1      84.109  55.272  41.080  0.00  0.00    -0.360 N 
ATOM     10  H   UNL     1      83.527  55.851  40.537  0.00  0.00    +0.000 HD
ENDROOT
BRANCH   1  11
ATOM     11  C   UNL     1      85.811  55.376  46.419  0.00  0.00    +0.186 C 
ATOM     12  O   UNL     1      86.070  56.472  46.988  0.00  0.00    -0.287 OA
BRANCH  11  15
ATOM     13  C   UNL     1      84.110  54.316  48.695  0.00  0.00    -0.044 C 
ATOM     14  C   UNL     1      85.324  53.607  48.151  0.00  0.00    -0.072 C 
ATOM     15  C   UNL     1      86.052  54.091  47.125  0.00  0.00    -0.016 C 
ATOM     16  C   UNL     1      85.729  52.285  48.749  0.00  0.00    -0.044 C 
ENDBRANCH  11  15
ENDBRANCH   1  11
BRANCH   7  17
ATOM     17  C   UNL     1      86.321  52.355  41.675  0.00  0.00    +0.003 C 
BRANCH  17  18
ATOM     18  C   UNL     1      87.844  52.618  41.811  0.00  0.00    +0.087 C 
BRANCH  18  19
ATOM     19  C   UNL     1      88.717  52.118  40.617  0.00  0.00    +0.087 C 
ATOM     20  C   UNL     1      89.974  52.999  40.437  0.00  0.00    -0.034 C 
ATOM     21  C   UNL     1      89.169  50.667  40.899  0.00  0.00    -0.034 C 
BRANCH  19  22
ATOM     22  O   UNL     1      87.945  52.135  39.440  0.00  0.00    -0.387 OA
ATOM     23  H   UNL     1      88.203  52.894  38.894  0.00  0.00    +0.000 HD
ENDBRANCH  19  22
ENDBRANCH  18  19
BRANCH  18  24
ATOM     24  O   UNL     1      88.315  52.048  43.006  0.00  0.00    -0.389 OA
ATOM     25  H   UNL     1      87.572  51.908  43.614  0.00  0.00    +0.000 HD
ENDBRANCH  18  24
ENDBRANCH  17  18
ENDBRANCH   7  17
TORSDOF 7
ENDMDL
MODEL 9
REMARK VINA RESULT:    -7.234      4.434      7.238
REMARK INTER + INTRA:         -10.648
REMARK INTER:                  -9.772
REMARK INTRA:                  -0.876
REMARK UNBOUND:                -0.876
REMARK  Name = 
REMARK  11 active torsions:
REMARK  status: ('A' for Active; 'I' for Inactive)
REMARK    1  A    between atoms: C_1  and  C_2
REMARK    2  A    between atoms: C_2  and  C_22
REMARK    3  A    between atoms: C_3  and  C_4
REMARK    4  A    between atoms: C_4  and  C_6
REMARK    5  A    between atoms: C_12  and  C_15
REMARK    6  A    between atoms: C_15  and  C_16
REMARK    7  A    between atoms: C_16  and  C_17
REMARK    8  A    between atoms: C_16  and  O_21
REMARK    9  A    between atoms: C_17  and  O_18
REMARK   10  A    between atoms: C_17  and  C_19
REMARK   11  A    between atoms: C_17  and  C_20
REMARK                            x       y       z     vdW  Elec       q    Type
REMARK                         _______ _______ _______ _____ _____    ______ ____
ROOT
ATOM      1  C   UNL     1      84.695  53.162  43.672  0.00  0.00    +0.022 A 
ATOM      2  C   UNL     1      84.016  54.055  42.797  0.00  0.00    -0.049 A 
ATOM      3  C   UNL     1      82.796  53.691  42.198  0.00  0.00    -0.037 A 
ATOM      4  C   UNL     1      82.274  52.435  42.489  0.00  0.00    +0.047 A 
ATOM      5  C   UNL     1      82.919  51.565  43.328  0.00  0.00    +0.004 A 
ATOM      6  C   UNL     1      84.136  51.888  43.928  0.00  0.00    -0.042 A 
ATOM      7  C   UNL     1      82.143  50.421  43.389  0.00  0.00    -0.020 A 
ATOM      8  C   UNL     1      81.051  50.663  42.560  0.00  0.00    +0.006 A 
ATOM      9  N   UNL     1      81.138  51.897  42.016  0.00  0.00    -0.360 N 
ATOM     10  H   UNL     1      80.497  52.318  41.397  0.00  0.00    +0.000 HD
ENDROOT
BRANCH   1  11
ATOM     11  C   UNL     1      85.987  53.537  44.297  0.00  0.00    +0.186 C 
ATOM     12  O   UNL     1      86.999  52.817  44.081  0.00  0.00    -0.287 OA
BRANCH  11  15
ATOM     13  C   UNL     1      85.761  53.384  47.318  0.00  0.00    -0.044 C 
ATOM     14  C   UNL     1      85.964  54.668  46.553  0.00  0.00    -0.072 C 
ATOM     15  C   UNL     1      86.081  54.706  45.210  0.00  0.00    -0.016 C 
ATOM     16  C   UNL     1      86.078  55.963  47.313  0.00  0.00    -0.044 C 
ENDBRANCH  11  15
ENDBRANCH   1  11
BRANCH   7  17
ATOM     17  C   UNL     1      82.403  49.174  44.191  0.00  0.00    +0.003 C 
BRANCH  17  18
ATOM     18  C   UNL     1      81.612  47.936  43.695  0.00  0.00    +0.087 C 
BRANCH  18  19
ATOM     19  C   UNL     1      80.587  47.345  44.716  0.00  0.00    +0.087 C 
ATOM     20  C   UNL     1      80.077  48.434  45.686  0.00  0.00    -0.034 C 
ATOM     21  C   UNL     1      79.380  46.771  43.940  0.00  0.00    -0.034 C 
BRANCH  19  22
ATOM     22  O   UNL     1      81.202  46.306  45.439  0.00  0.00    -0.387 OA
ATOM     23  H   UNL     1      82.115  46.193  45.131  0.00  0.00    +0.000 HD
ENDBRANCH  19  22
ENDBRANCH  18  19
BRANCH  18  24
ATOM     24  O   UNL     1      82.511  46.929  43.300  0.00  0.00    -0.389 OA
ATOM     25  H   UNL     1      83.086  47.267  42.596  0.00  0.00    +0.000 HD
ENDBRANCH  18  24
ENDBRANCH  17  18
ENDBRANCH   7  17
TORSDOF 7
ENDMDL
