MODEL 1
REMARK VINA RESULT:    -8.025      0.000      0.000
REMARK INTER + INTRA:         -11.897
REMARK INTER:                 -10.252
REMARK INTRA:                  -1.645
REMARK UNBOUND:                -1.057
REMARK  Name = 
REMARK  11 active torsions:
REMARK  status: ('A' for Active; 'I' for Inactive)
REMARK    1  A    between atoms: C_1  and  C_2
REMARK    2  A    between atoms: C_2  and  C_22
REMARK    3  A    between atoms: C_3  and  C_4
REMARK    4  A    between atoms: C_4  and  C_6
REMARK    5  A    between atoms: C_12  and  C_15
REMARK    6  A    between atoms: C_15  and  C_16
REMARK    7  A    between atoms: C_16  and  C_17
REMARK    8  A    between atoms: C_16  and  O_21
REMARK    9  A    between atoms: C_17  and  O_18
REMARK   10  A    between atoms: C_17  and  C_19
REMARK   11  A    between atoms: C_17  and  C_20
REMARK                            x       y       z     vdW  Elec       q    Type
REMARK                         _______ _______ _______ _____ _____    ______ ____
ROOT
ATOM      1  C   UNL     1      86.070  52.455  47.461  0.00  0.00    +0.022 A 
ATOM      2  C   UNL     1      85.216  52.499  48.598  0.00  0.00    -0.049 A 
ATOM      3  C   UNL     1      84.392  53.612  48.839  0.00  0.00    -0.037 A 
ATOM      4  C   UNL     1      84.436  54.667  47.933  0.00  0.00    +0.047 A 
ATOM      5  C   UNL     1      85.256  54.639  46.836  0.00  0.00    +0.004 A 
ATOM      6  C   UNL     1      86.095  53.556  46.573  0.00  0.00    -0.042 A 
ATOM      7  C   UNL     1      85.062  55.832  46.162  0.00  0.00    -0.020 A 
ATOM      8  C   UNL     1      84.121  56.535  46.909  0.00  0.00    +0.006 A 
ATOM      9  N   UNL     1      83.741  55.816  47.988  0.00  0.00    -0.360 N 
ATOM     10  H   UNL     1      83.088  56.080  48.676  0.00  0.00    +0.000 HD
ENDROOT
BRANCH   1  11
ATOM     11  C   UNL     1      86.950  51.287  47.208  0.00  0.00    +0.186 C 
ATOM     12  O   UNL     1      87.077  50.415  48.110  0.00  0.00    -0.287 OA
BRANCH  11  15
ATOM     13  C   UNL     1      85.911  49.966  44.684  0.00  0.00    -0.044 C 
ATOM     14  C   UNL     1      87.286  50.572  44.811  0.00  0.00    -0.072 C 
ATOM     15  C   UNL     1      87.716  51.171  45.940  0.00  0.00    -0.016 C 
ATOM     16  C   UNL     1      88.212  50.543  43.624  0.00  0.00    -0.044 C 
ENDBRANCH  11  15
ENDBRANCH   1  11
BRANCH   7  17
ATOM     17  C   UNL     1      85.714  56.283  44.882  0.00  0.00    +0.003 C 
BRANCH  17  18
ATOM     18  C   UNL     1      84.894  55.944  43.611  0.00  0.00    +0.087 C 
BRANCH  18  19
ATOM     19  C   UNL     1      85.377  54.688  42.818  0.00  0.00    +0.087 C 
ATOM     20  C   UNL     1      86.854  54.362  43.136  0.00  0.00    -0.034 C 
ATOM     21  C   UNL     1      84.507  53.476  43.221  0.00  0.00    -0.034 C 
BRANCH  19  22
ATOM     22  O   UNL     1      85.222  54.924  41.439  0.00  0.00    -0.387 OA
ATOM     23  H   UNL     1      85.984  55.426  41.109  0.00  0.00    +0.000 HD
ENDBRANCH  19  22
ENDBRANCH  18  19
BRANCH  18  24
ATOM     24  O   UNL     1      84.874  57.059  42.753  0.00  0.00    -0.389 OA
ATOM     25  H   UNL     1      83.962  57.377  42.657  0.00  0.00    +0.000 HD
ENDBRANCH  18  24
ENDBRANCH  17  18
ENDBRANCH   7  17
TORSDOF 7
ENDMDL
MODEL 2
REMARK VINA RESULT:    -7.539      2.194      3.683
REMARK INTER + INTRA:         -11.241
REMARK INTER:                 -10.736
REMARK INTRA:                  -0.506
REMARK UNBOUND:                -1.057
REMARK  Name = 
REMARK  11 active torsions:
REMARK  status: ('A' for Active; 'I' for Inactive)
REMARK    1  A    between atoms: C_1  and  C_2
REMARK    2  A    between atoms: C_2  and  C_22
REMARK    3  A    between atoms: C_3  and  C_4
REMARK    4  A    between atoms: C_4  and  C_6
REMARK    5  A    between atoms: C_12  and  C_15
REMARK    6  A    between atoms: C_15  and  C_16
REMARK    7  A    between atoms: C_16  and  C_17
REMARK    8  A    between atoms: C_16  and  O_21
REMARK    9  A    between atoms: C_17  and  O_18
REMARK   10  A    between atoms: C_17  and  C_19
REMARK   11  A    between atoms: C_17  and  C_20
REMARK                            x       y       z     vdW  Elec       q    Type
REMARK                         _______ _______ _______ _____ _____    ______ ____
ROOT
ATOM      1  C   UNL     1      87.116  51.819  44.744  0.00  0.00    +0.022 A 
ATOM      2  C   UNL     1      86.976  50.665  45.563  0.00  0.00    -0.049 A 
ATOM      3  C   UNL     1      86.516  50.771  46.887  0.00  0.00    -0.037 A 
ATOM      4  C   UNL     1      86.200  52.037  47.371  0.00  0.00    +0.047 A 
ATOM      5  C   UNL     1      86.333  53.157  46.594  0.00  0.00    +0.004 A 
ATOM      6  C   UNL     1      86.799  53.090  45.280  0.00  0.00    -0.042 A 
ATOM      7  C   UNL     1      85.950  54.233  47.375  0.00  0.00    -0.020 A 
ATOM      8  C   UNL     1      85.605  53.694  48.611  0.00  0.00    +0.006 A 
ATOM      9  N   UNL     1      85.759  52.351  48.600  0.00  0.00    -0.360 N 
ATOM     10  H   UNL     1      85.583  51.729  49.343  0.00  0.00    +0.000 HD
ENDROOT
BRANCH   1  11
ATOM     11  C   UNL     1      87.612  51.714  43.350  0.00  0.00    +0.186 C 
ATOM     12  O   UNL     1      87.233  52.567  42.502  0.00  0.00    -0.287 OA
BRANCH  11  15
ATOM     13  C   UNL     1      89.843  51.936  41.307  0.00  0.00    -0.044 C 
ATOM     14  C   UNL     1      89.479  50.657  42.018  0.00  0.00    -0.072 C 
ATOM     15  C   UNL     1      88.494  50.590  42.938  0.00  0.00    -0.016 C 
ATOM     16  C   UNL     1      90.262  49.406  41.724  0.00  0.00    -0.044 C 
ENDBRANCH  11  15
ENDBRANCH   1  11
BRANCH   7  17
ATOM     17  C   UNL     1      85.896  55.684  46.980  0.00  0.00    +0.003 C 
BRANCH  17  18
ATOM     18  C   UNL     1      84.660  56.053  46.120  0.00  0.00    +0.087 C 
BRANCH  18  19
ATOM     19  C   UNL     1      84.938  57.032  44.935  0.00  0.00    +0.087 C 
ATOM     20  C   UNL     1      85.011  58.496  45.426  0.00  0.00    -0.034 C 
ATOM     21  C   UNL     1      86.291  56.663  44.286  0.00  0.00    -0.034 C 
BRANCH  19  22
ATOM     22  O   UNL     1      83.918  56.897  43.975  0.00  0.00    -0.387 OA
ATOM     23  H   UNL     1      84.265  57.128  43.099  0.00  0.00    +0.000 HD
ENDBRANCH  19  22
ENDBRANCH  18  19
BRANCH  18  24
ATOM     24  O   UNL     1      83.656  56.591  46.945  0.00  0.00    -0.389 OA
ATOM     25  H   UNL     1      84.063  57.007  47.721  0.00  0.00    +0.000 HD
ENDBRANCH  18  24
ENDBRANCH  17  18
ENDBRANCH   7  17
TORSDOF 7
ENDMDL
MODEL 3
REMARK VINA RESULT:    -7.510      2.718      5.375
REMARK INTER + INTRA:         -11.201
REMARK INTER:                 -10.355
REMARK INTRA:                  -0.847
REMARK UNBOUND:                -1.057
REMARK  Name = 
REMARK  11 active torsions:
REMARK  status: ('A' for Active; 'I' for Inactive)
REMARK    1  A    between atoms: C_1  and  C_2
REMARK    2  A    between atoms: C_2  and  C_22
REMARK    3  A    between atoms: C_3  and  C_4
REMARK    4  A    between atoms: C_4  and  C_6
REMARK    5  A    between atoms: C_12  and  C_15
REMARK    6  A    between atoms: C_15  and  C_16
REMARK    7  A    between atoms: C_16  and  C_17
REMARK    8  A    between atoms: C_16  and  O_21
REMARK    9  A    between atoms: C_17  and  O_18
REMARK   10  A    between atoms: C_17  and  C_19
REMARK   11  A    between atoms: C_17  and  C_20
REMARK                            x       y       z     vdW  Elec       q    Type
REMARK                         _______ _______ _______ _____ _____    ______ ____
ROOT
ATOM      1  C   UNL     1      85.497  54.020  47.259  0.00  0.00    +0.022 A 
ATOM      2  C   UNL     1      85.399  53.361  48.516  0.00  0.00    -0.049 A 
ATOM      3  C   UNL     1      85.984  52.098  48.717  0.00  0.00    -0.037 A 
ATOM      4  C   UNL     1      86.661  51.514  47.651  0.00  0.00    +0.047 A 
ATOM      5  C   UNL     1      86.760  52.136  46.435  0.00  0.00    +0.004 A 
ATOM      6  C   UNL     1      86.182  53.383  46.197  0.00  0.00    -0.042 A 
ATOM      7  C   UNL     1      87.479  51.289  45.610  0.00  0.00    -0.020 A 
ATOM      8  C   UNL     1      87.775  50.172  46.387  0.00  0.00    +0.006 A 
ATOM      9  N   UNL     1      87.274  50.319  47.634  0.00  0.00    -0.360 N 
ATOM     10  H   UNL     1      87.344  49.678  48.379  0.00  0.00    +0.000 HD
ENDROOT
BRANCH   1  11
ATOM     11  C   UNL     1      84.872  55.348  47.040  0.00  0.00    +0.186 C 
ATOM     12  O   UNL     1      83.715  55.558  47.494  0.00  0.00    -0.287 OA
BRANCH  11  15
ATOM     13  C   UNL     1      84.369  55.902  44.101  0.00  0.00    -0.044 C 
ATOM     14  C   UNL     1      85.377  56.649  44.937  0.00  0.00    -0.072 C 
ATOM     15  C   UNL     1      85.568  56.395  46.248  0.00  0.00    -0.016 C 
ATOM     16  C   UNL     1      86.186  57.749  44.301  0.00  0.00    -0.044 C 
ENDBRANCH  11  15
ENDBRANCH   1  11
BRANCH   7  17
ATOM     17  C   UNL     1      87.877  51.518  44.177  0.00  0.00    +0.003 C 
BRANCH  17  18
ATOM     18  C   UNL     1      87.952  50.219  43.333  0.00  0.00    +0.087 C 
BRANCH  18  19
ATOM     19  C   UNL     1      88.772  50.328  42.009  0.00  0.00    +0.087 C 
ATOM     20  C   UNL     1      89.156  51.795  41.709  0.00  0.00    -0.034 C 
ATOM     21  C   UNL     1      90.069  49.500  42.152  0.00  0.00    -0.034 C 
BRANCH  19  22
ATOM     22  O   UNL     1      88.010  49.804  40.948  0.00  0.00    -0.387 OA
ATOM     23  H   UNL     1      87.113  49.608  41.260  0.00  0.00    +0.000 HD
ENDBRANCH  19  22
ENDBRANCH  18  19
BRANCH  18  24
ATOM     24  O   UNL     1      86.651  49.772  43.041  0.00  0.00    -0.389 OA
ATOM     25  H   UNL     1      86.633  48.802  43.051  0.00  0.00    +0.000 HD
ENDBRANCH  18  24
ENDBRANCH  17  18
ENDBRANCH   7  17
TORSDOF 7
ENDMDL
MODEL 4
REMARK VINA RESULT:    -7.454      2.448      4.361
REMARK INTER + INTRA:         -11.127
REMARK INTER:                 -10.309
REMARK INTRA:                  -0.818
REMARK UNBOUND:                -1.057
REMARK  Name = 
REMARK  11 active torsions:
REMARK  status: ('A' for Active; 'I' for Inactive)
REMARK    1  A    between atoms: C_1  and  C_2
REMARK    2  A    between atoms: C_2  and  C_22
REMARK    3  A    between atoms: C_3  and  C_4
REMARK    4  A    between atoms: C_4  and  C_6
REMARK    5  A    between atoms: C_12  and  C_15
REMARK    6  A    between atoms: C_15  and  C_16
REMARK    7  A    between atoms: C_16  and  C_17
REMARK    8  A    between atoms: C_16  and  O_21
REMARK    9  A    between atoms: C_17  and  O_18
REMARK   10  A    between atoms: C_17  and  C_19
REMARK   11  A    between atoms: C_17  and  C_20
REMARK                            x       y       z     vdW  Elec       q    Type
REMARK                         _______ _______ _______ _____ _____    ______ ____
ROOT
ATOM      1  C   UNL     1      88.200  50.777  43.733  0.00  0.00    +0.022 A 
ATOM      2  C   UNL     1      88.243  49.979  44.910  0.00  0.00    -0.049 A 
ATOM      3  C   UNL     1      87.564  50.376  46.076  0.00  0.00    -0.037 A 
ATOM      4  C   UNL     1      86.848  51.568  46.042  0.00  0.00    +0.047 A 
ATOM      5  C   UNL     1      86.801  52.347  44.916  0.00  0.00    +0.004 A 
ATOM      6  C   UNL     1      87.473  51.991  43.747  0.00  0.00    -0.042 A 
ATOM      7  C   UNL     1      86.024  53.449  45.225  0.00  0.00    -0.020 A 
ATOM      8  C   UNL     1      85.641  53.277  46.552  0.00  0.00    +0.006 A 
ATOM      9  N   UNL     1      86.147  52.124  47.044  0.00  0.00    -0.360 N 
ATOM     10  H   UNL     1      86.025  51.764  47.953  0.00  0.00    +0.000 HD
ENDROOT
BRANCH   1  11
ATOM     11  C   UNL     1      88.925  50.368  42.504  0.00  0.00    +0.186 C 
ATOM     12  O   UNL     1      89.338  51.261  41.716  0.00  0.00    -0.287 OA
BRANCH  11  15
ATOM     13  C   UNL     1      91.362  48.730  43.260  0.00  0.00    -0.044 C 
ATOM     14  C   UNL     1      90.193  48.186  42.478  0.00  0.00    -0.072 C 
ATOM     15  C   UNL     1      89.112  48.932  42.172  0.00  0.00    -0.016 C 
ATOM     16  C   UNL     1      90.208  46.743  42.047  0.00  0.00    -0.044 C 
ENDBRANCH  11  15
ENDBRANCH   1  11
BRANCH   7  17
ATOM     17  C   UNL     1      85.649  54.594  44.323  0.00  0.00    +0.003 C 
BRANCH  17  18
ATOM     18  C   UNL     1      86.049  55.985  44.879  0.00  0.00    +0.087 C 
BRANCH  18  19
ATOM     19  C   UNL     1      84.867  56.984  45.091  0.00  0.00    +0.087 C 
ATOM     20  C   UNL     1      84.162  56.735  46.443  0.00  0.00    -0.034 C 
ATOM     21  C   UNL     1      85.423  58.427  45.084  0.00  0.00    -0.034 C 
BRANCH  19  22
ATOM     22  O   UNL     1      83.948  56.843  44.035  0.00  0.00    -0.387 OA
ATOM     23  H   UNL     1      83.945  57.651  43.498  0.00  0.00    +0.000 HD
ENDBRANCH  19  22
ENDBRANCH  18  19
BRANCH  18  24
ATOM     24  O   UNL     1      87.011  56.571  44.037  0.00  0.00    -0.389 OA
ATOM     25  H   UNL     1      87.740  55.947  43.895  0.00  0.00    +0.000 HD
ENDBRANCH  18  24
ENDBRANCH  17  18
ENDBRANCH   7  17
TORSDOF 7
ENDMDL
MODEL 5
REMARK VINA RESULT:    -7.418      2.838      4.842
REMARK INTER + INTRA:         -11.077
REMARK INTER:                 -10.280
REMARK INTRA:                  -0.797
REMARK UNBOUND:                -1.057
REMARK  Name = 
REMARK  11 active torsions:
REMARK  status: ('A' for Active; 'I' for Inactive)
REMARK    1  A    between atoms: C_1  and  C_2
REMARK    2  A    between atoms: C_2  and  C_22
REMARK    3  A    between atoms: C_3  and  C_4
REMARK    4  A    between atoms: C_4  and  C_6
REMARK    5  A    between atoms: C_12  and  C_15
REMARK    6  A    between atoms: C_15  and  C_16
REMARK    7  A    between atoms: C_16  and  C_17
REMARK    8  A    between atoms: C_16  and  O_21
REMARK    9  A    between atoms: C_17  and  O_18
REMARK   10  A    between atoms: C_17  and  C_19
REMARK   11  A    between atoms: C_17  and  C_20
REMARK                            x       y       z     vdW  Elec       q    Type
REMARK                         _______ _______ _______ _____ _____    ______ ____
ROOT
ATOM      1  C   UNL     1      88.259  51.087  42.928  0.00  0.00    +0.022 A 
ATOM      2  C   UNL     1      88.440  50.150  43.983  0.00  0.00    -0.049 A 
ATOM      3  C   UNL     1      87.825  50.342  45.233  0.00  0.00    -0.037 A 
ATOM      4  C   UNL     1      87.034  51.473  45.406  0.00  0.00    +0.047 A 
ATOM      5  C   UNL     1      86.854  52.385  44.400  0.00  0.00    +0.004 A 
ATOM      6  C   UNL     1      87.458  52.233  43.152  0.00  0.00    -0.042 A 
ATOM      7  C   UNL     1      86.032  53.378  44.903  0.00  0.00    -0.020 A 
ATOM      8  C   UNL     1      85.761  53.009  46.218  0.00  0.00    +0.006 A 
ATOM      9  N   UNL     1      86.375  51.842  46.517  0.00  0.00    -0.360 N 
ATOM     10  H   UNL     1      86.345  51.360  47.375  0.00  0.00    +0.000 HD
ENDROOT
BRANCH   1  11
ATOM     11  C   UNL     1      88.914  50.895  41.611  0.00  0.00    +0.186 C 
ATOM     12  O   UNL     1      88.674  49.843  40.959  0.00  0.00    -0.287 OA
BRANCH  11  15
ATOM     13  C   UNL     1      88.403  52.718  39.242  0.00  0.00    -0.044 C 
ATOM     14  C   UNL     1      89.690  52.701  40.028  0.00  0.00    -0.072 C 
ATOM     15  C   UNL     1      89.885  51.893  41.090  0.00  0.00    -0.016 C 
ATOM     16  C   UNL     1      90.798  53.644  39.640  0.00  0.00    -0.044 C 
ENDBRANCH  11  15
ENDBRANCH   1  11
BRANCH   7  17
ATOM     17  C   UNL     1      85.519  54.599  44.189  0.00  0.00    +0.003 C 
BRANCH  17  18
ATOM     18  C   UNL     1      85.979  55.936  44.826  0.00  0.00    +0.087 C 
BRANCH  18  19
ATOM     19  C   UNL     1      84.846  56.980  45.078  0.00  0.00    +0.087 C 
ATOM     20  C   UNL     1      84.137  56.720  46.426  0.00  0.00    -0.034 C 
ATOM     21  C   UNL     1      85.466  58.395  45.114  0.00  0.00    -0.034 C 
BRANCH  19  22
ATOM     22  O   UNL     1      83.914  56.915  44.025  0.00  0.00    -0.387 OA
ATOM     23  H   UNL     1      83.946  57.739  43.514  0.00  0.00    +0.000 HD
ENDBRANCH  19  22
ENDBRANCH  18  19
BRANCH  18  24
ATOM     24  O   UNL     1      86.981  56.517  44.030  0.00  0.00    -0.389 OA
ATOM     25  H   UNL     1      87.848  56.176  44.300  0.00  0.00    +0.000 HD
ENDBRANCH  18  24
ENDBRANCH  17  18
ENDBRANCH   7  17
TORSDOF 7
ENDMDL
MODEL 6
REMARK VINA RESULT:    -7.364      2.756      5.198
REMARK INTER + INTRA:         -11.004
REMARK INTER:                  -9.983
REMARK INTRA:                  -1.021
REMARK UNBOUND:                -1.057
REMARK  Name = 
REMARK  11 active torsions:
REMARK  status: ('A' for Active; 'I' for Inactive)
REMARK    1  A    between atoms: C_1  and  C_2
REMARK    2  A    between atoms: C_2  and  C_22
REMARK    3  A    between atoms: C_3  and  C_4
REMARK    4  A    between atoms: C_4  and  C_6
REMARK    5  A    between atoms: C_12  and  C_15
REMARK    6  A    between atoms: C_15  and  C_16
REMARK    7  A    between atoms: C_16  and  C_17
REMARK    8  A    between atoms: C_16  and  O_21
REMARK    9  A    between atoms: C_17  and  O_18
REMARK   10  A    between atoms: C_17  and  C_19
REMARK   11  A    between atoms: C_17  and  C_20
REMARK                            x       y       z     vdW  Elec       q    Type
REMARK                         _______ _______ _______ _____ _____    ______ ____
ROOT
ATOM      1  C   UNL     1      85.406  55.376  44.605  0.00  0.00    +0.022 A 
ATOM      2  C   UNL     1      84.674  56.503  44.141  0.00  0.00    -0.049 A 
ATOM      3  C   UNL     1      84.194  56.559  42.820  0.00  0.00    -0.037 A 
ATOM      4  C   UNL     1      84.454  55.478  41.984  0.00  0.00    +0.047 A 
ATOM      5  C   UNL     1      85.161  54.388  42.417  0.00  0.00    +0.004 A 
ATOM      6  C   UNL     1      85.662  54.305  43.716  0.00  0.00    -0.042 A 
ATOM      7  C   UNL     1      85.246  53.515  41.346  0.00  0.00    -0.020 A 
ATOM      8  C   UNL     1      84.578  54.143  40.298  0.00  0.00    +0.006 A 
ATOM      9  N   UNL     1      84.095  55.341  40.696  0.00  0.00    -0.360 N 
ATOM     10  H   UNL     1      83.584  55.984  40.153  0.00  0.00    +0.000 HD
ENDROOT
BRANCH   1  11
ATOM     11  C   UNL     1      85.925  55.318  45.994  0.00  0.00    +0.186 C 
ATOM     12  O   UNL     1      86.115  56.397  46.618  0.00  0.00    -0.287 OA
BRANCH  11  15
ATOM     13  C   UNL     1      84.000  53.618  47.608  0.00  0.00    -0.044 C 
ATOM     14  C   UNL     1      85.442  53.253  47.362  0.00  0.00    -0.072 C 
ATOM     15  C   UNL     1      86.272  54.017  46.624  0.00  0.00    -0.016 C 
ATOM     16  C   UNL     1      85.979  51.966  47.931  0.00  0.00    -0.044 C 
ENDBRANCH  11  15
ENDBRANCH   1  11
BRANCH   7  17
ATOM     17  C   UNL     1      85.904  52.163  41.310  0.00  0.00    +0.003 C 
BRANCH  17  18
ATOM     18  C   UNL     1      87.317  52.173  40.671  0.00  0.00    +0.087 C 
BRANCH  18  19
ATOM     19  C   UNL     1      88.500  52.393  41.668  0.00  0.00    +0.087 C 
ATOM     20  C   UNL     1      88.173  51.806  43.060  0.00  0.00    -0.034 C 
ATOM     21  C   UNL     1      89.759  51.686  41.118  0.00  0.00    -0.034 C 
BRANCH  19  22
ATOM     22  O   UNL     1      88.761  53.772  41.777  0.00  0.00    -0.387 OA
ATOM     23  H   UNL     1      89.719  53.921  41.782  0.00  0.00    +0.000 HD
ENDBRANCH  19  22
ENDBRANCH  18  19
BRANCH  18  24
ATOM     24  O   UNL     1      87.371  53.148  39.660  0.00  0.00    -0.389 OA
ATOM     25  H   UNL     1      86.556  53.675  39.675  0.00  0.00    +0.000 HD
ENDBRANCH  18  24
ENDBRANCH  17  18
ENDBRANCH   7  17
TORSDOF 7
ENDMDL
MODEL 7
REMARK VINA RESULT:    -7.359      2.124      3.255
REMARK INTER + INTRA:         -10.998
REMARK INTER:                  -9.932
REMARK INTRA:                  -1.065
REMARK UNBOUND:                -1.057
REMARK  Name = 
REMARK  11 active torsions:
REMARK  status: ('A' for Active; 'I' for Inactive)
REMARK    1  A    between atoms: C_1  and  C_2
REMARK    2  A    between atoms: C_2  and  C_22
REMARK    3  A    between atoms: C_3  and  C_4
REMARK    4  A    between atoms: C_4  and  C_6
REMARK    5  A    between atoms: C_12  and  C_15
REMARK    6  A    between atoms: C_15  and  C_16
REMARK    7  A    between atoms: C_16  and  C_17
REMARK    8  A    between atoms: C_16  and  O_21
REMARK    9  A    between atoms: C_17  and  O_18
REMARK   10  A    between atoms: C_17  and  C_19
REMARK   11  A    between atoms: C_17  and  C_20
REMARK                            x       y       z     vdW  Elec       q    Type
REMARK                         _______ _______ _______ _____ _____    ______ ____
ROOT
ATOM      1  C   UNL     1      87.334  50.706  44.485  0.00  0.00    +0.022 A 
ATOM      2  C   UNL     1      87.209  50.522  45.890  0.00  0.00    -0.049 A 
ATOM      3  C   UNL     1      86.837  51.588  46.728  0.00  0.00    -0.037 A 
ATOM      4  C   UNL     1      86.594  52.826  46.143  0.00  0.00    +0.047 A 
ATOM      5  C   UNL     1      86.714  53.018  44.792  0.00  0.00    +0.004 A 
ATOM      6  C   UNL     1      87.093  51.987  43.933  0.00  0.00    -0.042 A 
ATOM      7  C   UNL     1      86.416  54.348  44.550  0.00  0.00    -0.020 A 
ATOM      8  C   UNL     1      86.134  54.901  45.796  0.00  0.00    +0.006 A 
ATOM      9  N   UNL     1      86.243  53.964  46.764  0.00  0.00    -0.360 N 
ATOM     10  H   UNL     1      86.094  54.090  47.729  0.00  0.00    +0.000 HD
ENDROOT
BRANCH   1  11
ATOM     11  C   UNL     1      87.737  49.587  43.598  0.00  0.00    +0.186 C 
ATOM     12  O   UNL     1      86.840  48.916  43.019  0.00  0.00    -0.287 OA
BRANCH  11  15
ATOM     13  C   UNL     1      89.527  50.580  41.361  0.00  0.00    -0.044 C 
ATOM     14  C   UNL     1      89.979  49.631  42.441  0.00  0.00    -0.072 C 
ATOM     15  C   UNL     1      89.168  49.220  43.437  0.00  0.00    -0.016 C 
ATOM     16  C   UNL     1      91.404  49.142  42.439  0.00  0.00    -0.044 C 
ENDBRANCH  11  15
ENDBRANCH   1  11
BRANCH   7  17
ATOM     17  C   UNL     1      86.385  55.058  43.223  0.00  0.00    +0.003 C 
BRANCH  17  18
ATOM     18  C   UNL     1      84.956  55.405  42.733  0.00  0.00    +0.087 C 
BRANCH  18  19
ATOM     19  C   UNL     1      84.545  54.768  41.367  0.00  0.00    +0.087 C 
ATOM     20  C   UNL     1      85.272  53.424  41.137  0.00  0.00    -0.034 C 
ATOM     21  C   UNL     1      83.021  54.509  41.372  0.00  0.00    -0.034 C 
BRANCH  19  22
ATOM     22  O   UNL     1      84.853  55.666  40.328  0.00  0.00    -0.387 OA
ATOM     23  H   UNL     1      84.181  55.597  39.631  0.00  0.00    +0.000 HD
ENDBRANCH  19  22
ENDBRANCH  18  19
BRANCH  18  24
ATOM     24  O   UNL     1      84.808  56.801  42.661  0.00  0.00    -0.389 OA
ATOM     25  H   UNL     1      84.481  57.047  41.781  0.00  0.00    +0.000 HD
ENDBRANCH  18  24
ENDBRANCH  17  18
ENDBRANCH   7  17
TORSDOF 7
ENDMDL
MODEL 8
REMARK VINA RESULT:    -7.247      2.346      4.817
REMARK INTER + INTRA:         -10.846
REMARK INTER:                  -9.462
REMARK INTRA:                  -1.384
REMARK UNBOUND:                -1.057
REMARK  Name = 
REMARK  11 active torsions:
REMARK  status: ('A' for Active; 'I' for Inactive)
REMARK    1  A    between atoms: C_1  and  C_2
REMARK    2  A    between atoms: C_2  and  C_22
REMARK    3  A    between atoms: C_3  and  C_4
REMARK    4  A    between atoms: C_4  and  C_6
REMARK    5  A    between atoms: C_12  and  C_15
REMARK    6  A    between atoms: C_15  and  C_16
REMARK    7  A    between atoms: C_16  and  C_17
REMARK    8  A    between atoms: C_16  and  O_21
REMARK    9  A    between atoms: C_17  and  O_18
REMARK   10  A    between atoms: C_17  and  C_19
REMARK   11  A    between atoms: C_17  and  C_20
REMARK                            x       y       z     vdW  Elec       q    Type
REMARK                         _______ _______ _______ _____ _____    ______ ____
ROOT
ATOM      1  C   UNL     1      85.609  52.460  46.553  0.00  0.00    +0.022 A 
ATOM      2  C   UNL     1      86.693  51.645  46.982  0.00  0.00    -0.049 A 
ATOM      3  C   UNL     1      87.442  50.894  46.059  0.00  0.00    -0.037 A 
ATOM      4  C   UNL     1      87.093  50.973  44.715  0.00  0.00    +0.047 A 
ATOM      5  C   UNL     1      86.050  51.752  44.288  0.00  0.00    +0.004 A 
ATOM      6  C   UNL     1      85.278  52.500  45.178  0.00  0.00    -0.042 A 
ATOM      7  C   UNL     1      85.970  51.596  42.916  0.00  0.00    -0.020 A 
ATOM      8  C   UNL     1      86.987  50.705  42.581  0.00  0.00    +0.006 A 
ATOM      9  N   UNL     1      87.670  50.331  43.686  0.00  0.00    -0.360 N 
ATOM     10  H   UNL     1      88.436  49.713  43.727  0.00  0.00    +0.000 HD
ENDROOT
BRANCH   1  11
ATOM     11  C   UNL     1      84.809  53.245  47.525  0.00  0.00    +0.186 C 
ATOM     12  O   UNL     1      84.664  52.800  48.695  0.00  0.00    -0.287 OA
BRANCH  11  15
ATOM     13  C   UNL     1      86.218  55.908  47.171  0.00  0.00    -0.044 C 
ATOM     14  C   UNL     1      84.737  55.707  46.971  0.00  0.00    -0.072 C 
ATOM     15  C   UNL     1      84.138  54.507  47.116  0.00  0.00    -0.016 C 
ATOM     16  C   UNL     1      83.888  56.880  46.558  0.00  0.00    -0.044 C 
ENDBRANCH  11  15
ENDBRANCH   1  11
BRANCH   7  17
ATOM     17  C   UNL     1      85.004  52.254  41.968  0.00  0.00    +0.003 C 
BRANCH  17  18
ATOM     18  C   UNL     1      85.485  53.631  41.441  0.00  0.00    +0.087 C 
BRANCH  18  19
ATOM     19  C   UNL     1      84.433  54.783  41.526  0.00  0.00    +0.087 C 
ATOM     20  C   UNL     1      82.996  54.239  41.364  0.00  0.00    -0.034 C 
ATOM     21  C   UNL     1      84.549  55.467  42.906  0.00  0.00    -0.034 C 
BRANCH  19  22
ATOM     22  O   UNL     1      84.705  55.730  40.521  0.00  0.00    -0.387 OA
ATOM     23  H   UNL     1      83.896  56.226  40.316  0.00  0.00    +0.000 HD
ENDBRANCH  19  22
ENDBRANCH  18  19
BRANCH  18  24
ATOM     24  O   UNL     1      85.927  53.498  40.113  0.00  0.00    -0.389 OA
ATOM     25  H   UNL     1      86.371  52.643  40.004  0.00  0.00    +0.000 HD
ENDBRANCH  18  24
ENDBRANCH  17  18
ENDBRANCH   7  17
TORSDOF 7
ENDMDL
MODEL 9
REMARK VINA RESULT:    -7.166      4.307      6.040
REMARK INTER + INTRA:         -10.737
REMARK INTER:                  -9.679
REMARK INTRA:                  -1.057
REMARK UNBOUND:                -1.057
REMARK  Name = 
REMARK  11 active torsions:
REMARK  status: ('A' for Active; 'I' for Inactive)
REMARK    1  A    between atoms: C_1  and  C_2
REMARK    2  A    between atoms: C_2  and  C_22
REMARK    3  A    between atoms: C_3  and  C_4
REMARK    4  A    between atoms: C_4  and  C_6
REMARK    5  A    between atoms: C_12  and  C_15
REMARK    6  A    between atoms: C_15  and  C_16
REMARK    7  A    between atoms: C_16  and  C_17
REMARK    8  A    between atoms: C_16  and  O_21
REMARK    9  A    between atoms: C_17  and  O_18
REMARK   10  A    between atoms: C_17  and  C_19
REMARK   11  A    between atoms: C_17  and  C_20
REMARK                            x       y       z     vdW  Elec       q    Type
REMARK                         _______ _______ _______ _____ _____    ______ ____
ROOT
ATOM      1  C   UNL     1      82.884  50.208  42.893  0.00  0.00    +0.022 A 
ATOM      2  C   UNL     1      81.757  50.758  42.222  0.00  0.00    -0.049 A 
ATOM      3  C   UNL     1      81.824  52.025  41.616  0.00  0.00    -0.037 A 
ATOM      4  C   UNL     1      83.024  52.724  41.693  0.00  0.00    +0.047 A 
ATOM      5  C   UNL     1      84.116  52.208  42.339  0.00  0.00    +0.004 A 
ATOM      6  C   UNL     1      84.081  50.960  42.961  0.00  0.00    -0.042 A 
ATOM      7  C   UNL     1      85.123  53.151  42.237  0.00  0.00    -0.020 A 
ATOM      8  C   UNL     1      84.571  54.213  41.525  0.00  0.00    +0.006 A 
ATOM      9  N   UNL     1      83.289  53.943  41.195  0.00  0.00    -0.360 N 
ATOM     10  H   UNL     1      82.673  54.523  40.690  0.00  0.00    +0.000 HD
ENDROOT
BRANCH   1  11
ATOM     11  C   UNL     1      82.815  48.876  43.543  0.00  0.00    +0.186 C 
ATOM     12  O   UNL     1      83.752  48.523  44.309  0.00  0.00    -0.287 OA
BRANCH  11  15
ATOM     13  C   UNL     1      80.241  48.735  45.140  0.00  0.00    -0.044 C 
ATOM     14  C   UNL     1      80.547  47.849  43.960  0.00  0.00    -0.072 C 
ATOM     15  C   UNL     1      81.693  47.945  43.254  0.00  0.00    -0.016 C 
ATOM     16  C   UNL     1      79.525  46.833  43.521  0.00  0.00    -0.044 C 
ENDBRANCH  11  15
ENDBRANCH   1  11
BRANCH   7  17
ATOM     17  C   UNL     1      86.530  53.058  42.765  0.00  0.00    +0.003 C 
BRANCH  17  18
ATOM     18  C   UNL     1      87.582  52.708  41.682  0.00  0.00    +0.087 C 
BRANCH  18  19
ATOM     19  C   UNL     1      88.188  51.272  41.779  0.00  0.00    +0.087 C 
ATOM     20  C   UNL     1      89.686  51.271  41.398  0.00  0.00    -0.034 C 
ATOM     21  C   UNL     1      88.050  50.765  43.232  0.00  0.00    -0.034 C 
BRANCH  19  22
ATOM     22  O   UNL     1      87.474  50.410  40.924  0.00  0.00    -0.387 OA
ATOM     23  H   UNL     1      88.007  49.621  40.741  0.00  0.00    +0.000 HD
ENDBRANCH  19  22
ENDBRANCH  18  19
BRANCH  18  24
ATOM     24  O   UNL     1      88.621  53.656  41.710  0.00  0.00    -0.389 OA
ATOM     25  H   UNL     1      88.502  54.288  40.983  0.00  0.00    +0.000 HD
ENDBRANCH  18  24
ENDBRANCH  17  18
ENDBRANCH   7  17
TORSDOF 7
ENDMDL
