MODEL 1
REMARK VINA RESULT:    -6.521      0.000      0.000
REMARK INTER + INTRA:         -15.958
REMARK INTER:                 -12.295
REMARK INTRA:                  -3.664
REMARK UNBOUND:                -3.339
REMARK  Name = 
REMARK  18 active torsions:
REMARK  status: ('A' for Active; 'I' for Inactive)
REMARK    1  A    between atoms: C_1  and  C_2
REMARK    2  A    between atoms: C_2  and  C_3
REMARK    3  A    between atoms: C_3  and  C_4
REMARK    4  A    between atoms: C_5  and  C_6
REMARK    5  A    between atoms: C_6  and  C_7
REMARK    6  A    between atoms: C_7  and  C_8
REMARK    7  A    between atoms: C_8  and  C_9
REMARK    8  A    between atoms: C_9  and  C_10
REMARK    9  A    between atoms: C_10  and  C_11
REMARK   10  A    between atoms: C_11  and  C_12
REMARK   11  A    between atoms: C_12  and  C_13
REMARK   12  A    between atoms: C_13  and  C_14
REMARK   13  A    between atoms: C_14  and  C_15
REMARK   14  A    between atoms: C_15  and  C_16
REMARK   15  A    between atoms: C_16  and  C_17
REMARK   16  A    between atoms: C_17  and  C_18
REMARK   17  A    between atoms: C_22  and  O_25
REMARK   18  A    between atoms: C_23  and  O_24
REMARK                            x       y       z     vdW  Elec       q    Type
REMARK                         _______ _______ _______ _____ _____    ______ ____
ROOT
ATOM      1  C   UNL     1      87.468  51.528  46.241  0.00  0.00    -0.053 C 
ENDROOT
BRANCH   1   2
ATOM      2  C   UNL     1      86.608  51.311  47.497  0.00  0.00    -0.053 C 
BRANCH   2   3
ATOM      3  C   UNL     1      85.480  52.347  47.623  0.00  0.00    -0.049 C 
BRANCH   3   4
ATOM      4  C   UNL     1      85.953  53.668  48.249  0.00  0.00    -0.024 C 
BRANCH   4   5
ATOM      5  C   UNL     1      85.657  54.829  47.329  0.00  0.00    -0.002 A 
ATOM      6  C   UNL     1      86.540  55.088  46.266  0.00  0.00    -0.055 A 
ATOM      7  C   UNL     1      86.302  56.141  45.383  0.00  0.00    -0.058 A 
ATOM      8  C   UNL     1      85.175  56.947  45.542  0.00  0.00    -0.017 A 
ATOM      9  C   UNL     1      84.273  56.700  46.579  0.00  0.00    +0.158 A 
ATOM     10  C   UNL     1      84.499  55.636  47.476  0.00  0.00    +0.161 A 
BRANCH   9  11
ATOM     11  O   UNL     1      83.151  57.519  46.703  0.00  0.00    -0.503 OA
ATOM     12  H   UNL     1      83.166  58.248  47.293  0.00  0.00    +0.000 HD
ENDBRANCH   9  11
BRANCH  10  13
ATOM     13  O   UNL     1      83.562  55.407  48.488  0.00  0.00    -0.503 OA
ATOM     14  H   UNL     1      82.657  55.600  48.341  0.00  0.00    +0.000 HD
ENDBRANCH  10  13
ENDBRANCH   4   5
ENDBRANCH   3   4
ENDBRANCH   2   3
ENDBRANCH   1   2
BRANCH   1  15
ATOM     15  C   UNL     1      87.622  50.254  45.389  0.00  0.00    -0.053 C 
BRANCH  15  16
ATOM     16  C   UNL     1      86.343  49.415  45.218  0.00  0.00    -0.053 C 
BRANCH  16  17
ATOM     17  C   UNL     1      85.545  49.784  43.956  0.00  0.00    -0.053 C 
BRANCH  17  18
ATOM     18  C   UNL     1      84.109  50.245  44.266  0.00  0.00    -0.053 C 
BRANCH  18  19
ATOM     19  C   UNL     1      83.691  51.576  43.617  0.00  0.00    -0.053 C 
BRANCH  19  20
ATOM     20  C   UNL     1      84.482  52.781  44.150  0.00  0.00    -0.053 C 
BRANCH  20  21
ATOM     21  C   UNL     1      84.619  53.868  43.078  0.00  0.00    -0.050 C 
BRANCH  21  22
ATOM     22  C   UNL     1      85.863  53.634  42.213  0.00  0.00    -0.035 C 
BRANCH  22  24
ATOM     23  C   UNL     1      88.064  52.466  42.634  0.00  0.00    -0.088 C 
ATOM     24  C   UNL     1      87.035  53.219  43.066  0.00  0.00    -0.088 C 
BRANCH  23  25
ATOM     25  C   UNL     1      88.155  51.848  41.263  0.00  0.00    -0.035 C 
BRANCH  25  27
ATOM     26  C   UNL     1      90.099  53.201  40.395  0.00  0.00    -0.065 C 
ATOM     27  C   UNL     1      89.611  51.809  40.783  0.00  0.00    -0.052 C 
ENDBRANCH  25  27
ENDBRANCH  23  25
ENDBRANCH  22  24
ENDBRANCH  21  22
ENDBRANCH  20  21
ENDBRANCH  19  20
ENDBRANCH  18  19
ENDBRANCH  17  18
ENDBRANCH  16  17
ENDBRANCH  15  16
ENDBRANCH   1  15
TORSDOF 17
ENDMDL
MODEL 2
REMARK VINA RESULT:    -6.470      1.346      2.039
REMARK INTER + INTRA:         -15.861
REMARK INTER:                 -12.422
REMARK INTRA:                  -3.439
REMARK UNBOUND:                -3.339
REMARK  Name = 
REMARK  18 active torsions:
REMARK  status: ('A' for Active; 'I' for Inactive)
REMARK    1  A    between atoms: C_1  and  C_2
REMARK    2  A    between atoms: C_2  and  C_3
REMARK    3  A    between atoms: C_3  and  C_4
REMARK    4  A    between atoms: C_5  and  C_6
REMARK    5  A    between atoms: C_6  and  C_7
REMARK    6  A    between atoms: C_7  and  C_8
REMARK    7  A    between atoms: C_8  and  C_9
REMARK    8  A    between atoms: C_9  and  C_10
REMARK    9  A    between atoms: C_10  and  C_11
REMARK   10  A    between atoms: C_11  and  C_12
REMARK   11  A    between atoms: C_12  and  C_13
REMARK   12  A    between atoms: C_13  and  C_14
REMARK   13  A    between atoms: C_14  and  C_15
REMARK   14  A    between atoms: C_15  and  C_16
REMARK   15  A    between atoms: C_16  and  C_17
REMARK   16  A    between atoms: C_17  and  C_18
REMARK   17  A    between atoms: C_22  and  O_25
REMARK   18  A    between atoms: C_23  and  O_24
REMARK                            x       y       z     vdW  Elec       q    Type
REMARK                         _______ _______ _______ _____ _____    ______ ____
ROOT
ATOM      1  C   UNL     1      86.283  51.474  48.846  0.00  0.00    -0.053 C 
ENDROOT
BRANCH   1   2
ATOM      2  C   UNL     1      85.138  52.476  48.626  0.00  0.00    -0.053 C 
BRANCH   2   3
ATOM      3  C   UNL     1      85.643  53.916  48.441  0.00  0.00    -0.049 C 
BRANCH   3   4
ATOM      4  C   UNL     1      84.577  54.848  47.847  0.00  0.00    -0.024 C 
BRANCH   4   5
ATOM      5  C   UNL     1      85.144  55.638  46.690  0.00  0.00    -0.002 A 
ATOM      6  C   UNL     1      86.276  55.137  46.024  0.00  0.00    -0.055 A 
ATOM      7  C   UNL     1      86.828  55.825  44.943  0.00  0.00    -0.058 A 
ATOM      8  C   UNL     1      86.253  57.017  44.505  0.00  0.00    -0.017 A 
ATOM      9  C   UNL     1      85.117  57.526  45.138  0.00  0.00    +0.158 A 
ATOM     10  C   UNL     1      84.547  56.840  46.229  0.00  0.00    +0.161 A 
BRANCH   9  11
ATOM     11  O   UNL     1      84.563  58.717  44.668  0.00  0.00    -0.503 OA
ATOM     12  H   UNL     1      85.121  59.397  44.344  0.00  0.00    +0.000 HD
ENDBRANCH   9  11
BRANCH  10  13
ATOM     13  O   UNL     1      83.397  57.370  46.823  0.00  0.00    -0.503 OA
ATOM     14  H   UNL     1      82.779  56.800  47.236  0.00  0.00    +0.000 HD
ENDBRANCH  10  13
ENDBRANCH   4   5
ENDBRANCH   3   4
ENDBRANCH   2   3
ENDBRANCH   1   2
BRANCH   1  15
ATOM     15  C   UNL     1      87.105  51.210  47.569  0.00  0.00    -0.053 C 
BRANCH  15  16
ATOM     16  C   UNL     1      86.318  50.612  46.389  0.00  0.00    -0.053 C 
BRANCH  16  17
ATOM     17  C   UNL     1      86.139  51.600  45.224  0.00  0.00    -0.053 C 
BRANCH  17  18
ATOM     18  C   UNL     1      84.663  51.949  44.953  0.00  0.00    -0.053 C 
BRANCH  18  19
ATOM     19  C   UNL     1      84.322  52.271  43.487  0.00  0.00    -0.053 C 
BRANCH  19  20
ATOM     20  C   UNL     1      84.375  53.774  43.173  0.00  0.00    -0.053 C 
BRANCH  20  21
ATOM     21  C   UNL     1      85.302  54.055  41.984  0.00  0.00    -0.050 C 
BRANCH  21  22
ATOM     22  C   UNL     1      86.157  52.828  41.651  0.00  0.00    -0.035 C 
BRANCH  22  24
ATOM     23  C   UNL     1      88.454  52.030  42.340  0.00  0.00    -0.088 C 
ATOM     24  C   UNL     1      87.579  53.027  42.111  0.00  0.00    -0.088 C 
BRANCH  23  25
ATOM     25  C   UNL     1      88.119  50.563  42.261  0.00  0.00    -0.035 C 
BRANCH  25  27
ATOM     26  C   UNL     1      90.219  49.219  42.643  0.00  0.00    -0.065 C 
ATOM     27  C   UNL     1      88.944  49.765  43.277  0.00  0.00    -0.052 C 
ENDBRANCH  25  27
ENDBRANCH  23  25
ENDBRANCH  22  24
ENDBRANCH  21  22
ENDBRANCH  20  21
ENDBRANCH  19  20
ENDBRANCH  18  19
ENDBRANCH  17  18
ENDBRANCH  16  17
ENDBRANCH  15  16
ENDBRANCH   1  15
TORSDOF 17
ENDMDL
MODEL 3
REMARK VINA RESULT:    -6.456      1.366      3.452
REMARK INTER + INTRA:         -15.834
REMARK INTER:                 -12.571
REMARK INTRA:                  -3.262
REMARK UNBOUND:                -3.339
REMARK  Name = 
REMARK  18 active torsions:
REMARK  status: ('A' for Active; 'I' for Inactive)
REMARK    1  A    between atoms: C_1  and  C_2
REMARK    2  A    between atoms: C_2  and  C_3
REMARK    3  A    between atoms: C_3  and  C_4
REMARK    4  A    between atoms: C_5  and  C_6
REMARK    5  A    between atoms: C_6  and  C_7
REMARK    6  A    between atoms: C_7  and  C_8
REMARK    7  A    between atoms: C_8  and  C_9
REMARK    8  A    between atoms: C_9  and  C_10
REMARK    9  A    between atoms: C_10  and  C_11
REMARK   10  A    between atoms: C_11  and  C_12
REMARK   11  A    between atoms: C_12  and  C_13
REMARK   12  A    between atoms: C_13  and  C_14
REMARK   13  A    between atoms: C_14  and  C_15
REMARK   14  A    between atoms: C_15  and  C_16
REMARK   15  A    between atoms: C_16  and  C_17
REMARK   16  A    between atoms: C_17  and  C_18
REMARK   17  A    between atoms: C_22  and  O_25
REMARK   18  A    between atoms: C_23  and  O_24
REMARK                            x       y       z     vdW  Elec       q    Type
REMARK                         _______ _______ _______ _____ _____    ______ ____
ROOT
ATOM      1  C   UNL     1      85.526  52.130  48.923  0.00  0.00    -0.053 C 
ENDROOT
BRANCH   1   2
ATOM      2  C   UNL     1      85.828  53.635  48.835  0.00  0.00    -0.053 C 
BRANCH   2   3
ATOM      3  C   UNL     1      84.597  54.458  48.420  0.00  0.00    -0.049 C 
BRANCH   3   4
ATOM      4  C   UNL     1      84.233  54.275  46.939  0.00  0.00    -0.024 C 
BRANCH   4   5
ATOM      5  C   UNL     1      84.876  55.352  46.096  0.00  0.00    -0.002 A 
ATOM      6  C   UNL     1      86.050  55.042  45.388  0.00  0.00    -0.055 A 
ATOM      7  C   UNL     1      86.672  55.999  44.587  0.00  0.00    -0.058 A 
ATOM      8  C   UNL     1      86.128  57.277  44.473  0.00  0.00    -0.017 A 
ATOM      9  C   UNL     1      84.951  57.606  45.151  0.00  0.00    +0.158 A 
ATOM     10  C   UNL     1      84.310  56.647  45.961  0.00  0.00    +0.161 A 
BRANCH   9  11
ATOM     11  O   UNL     1      84.429  58.891  45.007  0.00  0.00    -0.503 OA
ATOM     12  H   UNL     1      84.199  59.210  44.156  0.00  0.00    +0.000 HD
ENDBRANCH   9  11
BRANCH  10  13
ATOM     13  O   UNL     1      83.123  57.006  46.607  0.00  0.00    -0.503 OA
ATOM     14  H   UNL     1      82.298  56.844  46.193  0.00  0.00    +0.000 HD
ENDBRANCH  10  13
ENDBRANCH   4   5
ENDBRANCH   3   4
ENDBRANCH   2   3
ENDBRANCH   1   2
BRANCH   1  15
ATOM     15  C   UNL     1      86.602  51.259  48.246  0.00  0.00    -0.053 C 
BRANCH  15  16
ATOM     16  C   UNL     1      86.408  51.021  46.738  0.00  0.00    -0.053 C 
BRANCH  16  17
ATOM     17  C   UNL     1      87.504  51.675  45.880  0.00  0.00    -0.053 C 
BRANCH  17  18
ATOM     18  C   UNL     1      87.135  51.747  44.386  0.00  0.00    -0.053 C 
BRANCH  18  19
ATOM     19  C   UNL     1      88.190  51.177  43.421  0.00  0.00    -0.053 C 
BRANCH  19  20
ATOM     20  C   UNL     1      88.392  52.045  42.169  0.00  0.00    -0.053 C 
BRANCH  20  21
ATOM     21  C   UNL     1      87.415  53.227  42.156  0.00  0.00    -0.050 C 
BRANCH  21  22
ATOM     22  C   UNL     1      86.173  52.904  41.318  0.00  0.00    -0.035 C 
BRANCH  22  24
ATOM     23  C   UNL     1      84.173  53.921  42.482  0.00  0.00    -0.088 C 
ATOM     24  C   UNL     1      85.108  53.954  41.514  0.00  0.00    -0.088 C 
BRANCH  23  25
ATOM     25  C   UNL     1      83.992  52.787  43.458  0.00  0.00    -0.035 C 
BRANCH  25  27
ATOM     26  C   UNL     1      83.533  50.313  43.280  0.00  0.00    -0.065 C 
ATOM     27  C   UNL     1      83.074  51.709  42.869  0.00  0.00    -0.052 C 
ENDBRANCH  25  27
ENDBRANCH  23  25
ENDBRANCH  22  24
ENDBRANCH  21  22
ENDBRANCH  20  21
ENDBRANCH  19  20
ENDBRANCH  18  19
ENDBRANCH  17  18
ENDBRANCH  16  17
ENDBRANCH  15  16
ENDBRANCH   1  15
TORSDOF 17
ENDMDL
MODEL 4
REMARK VINA RESULT:    -6.402      2.322      4.849
REMARK INTER + INTRA:         -15.730
REMARK INTER:                 -12.632
REMARK INTRA:                  -3.098
REMARK UNBOUND:                -3.339
REMARK  Name = 
REMARK  18 active torsions:
REMARK  status: ('A' for Active; 'I' for Inactive)
REMARK    1  A    between atoms: C_1  and  C_2
REMARK    2  A    between atoms: C_2  and  C_3
REMARK    3  A    between atoms: C_3  and  C_4
REMARK    4  A    between atoms: C_5  and  C_6
REMARK    5  A    between atoms: C_6  and  C_7
REMARK    6  A    between atoms: C_7  and  C_8
REMARK    7  A    between atoms: C_8  and  C_9
REMARK    8  A    between atoms: C_9  and  C_10
REMARK    9  A    between atoms: C_10  and  C_11
REMARK   10  A    between atoms: C_11  and  C_12
REMARK   11  A    between atoms: C_12  and  C_13
REMARK   12  A    between atoms: C_13  and  C_14
REMARK   13  A    between atoms: C_14  and  C_15
REMARK   14  A    between atoms: C_15  and  C_16
REMARK   15  A    between atoms: C_16  and  C_17
REMARK   16  A    between atoms: C_17  and  C_18
REMARK   17  A    between atoms: C_22  and  O_25
REMARK   18  A    between atoms: C_23  and  O_24
REMARK                            x       y       z     vdW  Elec       q    Type
REMARK                         _______ _______ _______ _____ _____    ______ ____
ROOT
ATOM      1  C   UNL     1      84.717  56.119  47.093  0.00  0.00    -0.053 C 
ENDROOT
BRANCH   1   2
ATOM      2  C   UNL     1      86.168  55.677  46.843  0.00  0.00    -0.053 C 
BRANCH   2   3
ATOM      3  C   UNL     1      86.392  55.179  45.406  0.00  0.00    -0.049 C 
BRANCH   3   4
ATOM      4  C   UNL     1      85.266  55.600  44.450  0.00  0.00    -0.024 C 
BRANCH   4   5
ATOM      5  C   UNL     1      84.782  54.417  43.643  0.00  0.00    -0.002 A 
ATOM      6  C   UNL     1      84.415  53.243  44.323  0.00  0.00    -0.055 A 
ATOM      7  C   UNL     1      83.951  52.130  43.622  0.00  0.00    -0.058 A 
ATOM      8  C   UNL     1      83.839  52.175  42.233  0.00  0.00    -0.017 A 
ATOM      9  C   UNL     1      84.180  53.335  41.535  0.00  0.00    +0.158 A 
ATOM     10  C   UNL     1      84.647  54.469  42.231  0.00  0.00    +0.161 A 
BRANCH   9  11
ATOM     11  O   UNL     1      84.047  53.348  40.147  0.00  0.00    -0.503 OA
ATOM     12  H   UNL     1      83.318  53.785  39.750  0.00  0.00    +0.000 HD
ENDBRANCH   9  11
BRANCH  10  13
ATOM     13  O   UNL     1      84.958  55.619  41.499  0.00  0.00    -0.503 OA
ATOM     14  H   UNL     1      84.459  55.838  40.737  0.00  0.00    +0.000 HD
ENDBRANCH  10  13
ENDBRANCH   4   5
ENDBRANCH   3   4
ENDBRANCH   2   3
ENDBRANCH   1   2
BRANCH   1  15
ATOM     15  C   UNL     1      83.822  54.979  47.617  0.00  0.00    -0.053 C 
BRANCH  15  16
ATOM     16  C   UNL     1      84.448  54.098  48.713  0.00  0.00    -0.053 C 
BRANCH  16  17
ATOM     17  C   UNL     1      84.774  52.675  48.227  0.00  0.00    -0.053 C 
BRANCH  17  18
ATOM     18  C   UNL     1      86.094  52.130  48.806  0.00  0.00    -0.053 C 
BRANCH  18  19
ATOM     19  C   UNL     1      86.726  50.968  48.021  0.00  0.00    -0.053 C 
BRANCH  19  20
ATOM     20  C   UNL     1      86.408  51.014  46.518  0.00  0.00    -0.053 C 
BRANCH  20  21
ATOM     21  C   UNL     1      87.468  51.818  45.756  0.00  0.00    -0.050 C 
BRANCH  21  22
ATOM     22  C   UNL     1      87.848  51.121  44.444  0.00  0.00    -0.035 C 
BRANCH  22  24
ATOM     23  C   UNL     1      88.457  52.047  42.173  0.00  0.00    -0.088 C 
ATOM     24  C   UNL     1      87.683  52.059  43.275  0.00  0.00    -0.088 C 
BRANCH  23  25
ATOM     25  C   UNL     1      89.659  51.160  41.981  0.00  0.00    -0.035 C 
BRANCH  25  27
ATOM     26  C   UNL     1      90.358  48.773  41.561  0.00  0.00    -0.065 C 
ATOM     27  C   UNL     1      89.243  49.802  41.404  0.00  0.00    -0.052 C 
ENDBRANCH  25  27
ENDBRANCH  23  25
ENDBRANCH  22  24
ENDBRANCH  21  22
ENDBRANCH  20  21
ENDBRANCH  19  20
ENDBRANCH  18  19
ENDBRANCH  17  18
ENDBRANCH  16  17
ENDBRANCH  15  16
ENDBRANCH   1  15
TORSDOF 17
ENDMDL
MODEL 5
REMARK VINA RESULT:    -6.377      1.001      2.222
REMARK INTER + INTRA:         -15.681
REMARK INTER:                 -11.994
REMARK INTRA:                  -3.688
REMARK UNBOUND:                -3.339
REMARK  Name = 
REMARK  18 active torsions:
REMARK  status: ('A' for Active; 'I' for Inactive)
REMARK    1  A    between atoms: C_1  and  C_2
REMARK    2  A    between atoms: C_2  and  C_3
REMARK    3  A    between atoms: C_3  and  C_4
REMARK    4  A    between atoms: C_5  and  C_6
REMARK    5  A    between atoms: C_6  and  C_7
REMARK    6  A    between atoms: C_7  and  C_8
REMARK    7  A    between atoms: C_8  and  C_9
REMARK    8  A    between atoms: C_9  and  C_10
REMARK    9  A    between atoms: C_10  and  C_11
REMARK   10  A    between atoms: C_11  and  C_12
REMARK   11  A    between atoms: C_12  and  C_13
REMARK   12  A    between atoms: C_13  and  C_14
REMARK   13  A    between atoms: C_14  and  C_15
REMARK   14  A    between atoms: C_15  and  C_16
REMARK   15  A    between atoms: C_16  and  C_17
REMARK   16  A    between atoms: C_17  and  C_18
REMARK   17  A    between atoms: C_22  and  O_25
REMARK   18  A    between atoms: C_23  and  O_24
REMARK                            x       y       z     vdW  Elec       q    Type
REMARK                         _______ _______ _______ _____ _____    ______ ____
ROOT
ATOM      1  C   UNL     1      86.314  51.420  48.526  0.00  0.00    -0.053 C 
ENDROOT
BRANCH   1   2
ATOM      2  C   UNL     1      85.208  52.386  48.070  0.00  0.00    -0.053 C 
BRANCH   2   3
ATOM      3  C   UNL     1      85.592  53.859  48.278  0.00  0.00    -0.049 C 
BRANCH   3   4
ATOM      4  C   UNL     1      84.519  54.831  47.764  0.00  0.00    -0.024 C 
BRANCH   4   5
ATOM      5  C   UNL     1      85.068  55.687  46.646  0.00  0.00    -0.002 A 
ATOM      6  C   UNL     1      86.209  55.243  45.955  0.00  0.00    -0.055 A 
ATOM      7  C   UNL     1      86.744  55.993  44.908  0.00  0.00    -0.058 A 
ATOM      8  C   UNL     1      86.144  57.192  44.529  0.00  0.00    -0.017 A 
ATOM      9  C   UNL     1      84.999  57.647  45.186  0.00  0.00    +0.158 A 
ATOM     10  C   UNL     1      84.445  56.898  46.243  0.00  0.00    +0.161 A 
BRANCH   9  11
ATOM     11  O   UNL     1      84.419  58.847  44.774  0.00  0.00    -0.503 OA
ATOM     12  H   UNL     1      84.164  58.961  43.879  0.00  0.00    +0.000 HD
ENDBRANCH   9  11
BRANCH  10  13
ATOM     13  O   UNL     1      83.286  57.374  46.863  0.00  0.00    -0.503 OA
ATOM     14  H   UNL     1      82.445  57.078  46.573  0.00  0.00    +0.000 HD
ENDBRANCH  10  13
ENDBRANCH   4   5
ENDBRANCH   3   4
ENDBRANCH   2   3
ENDBRANCH   1   2
BRANCH   1  15
ATOM     15  C   UNL     1      86.933  50.620  47.364  0.00  0.00    -0.053 C 
BRANCH  15  16
ATOM     16  C   UNL     1      87.869  51.418  46.438  0.00  0.00    -0.053 C 
BRANCH  16  17
ATOM     17  C   UNL     1      87.358  51.497  44.990  0.00  0.00    -0.053 C 
BRANCH  17  18
ATOM     18  C   UNL     1      87.036  50.116  44.389  0.00  0.00    -0.053 C 
BRANCH  18  19
ATOM     19  C   UNL     1      85.635  49.979  43.768  0.00  0.00    -0.053 C 
BRANCH  19  20
ATOM     20  C   UNL     1      84.558  50.764  44.533  0.00  0.00    -0.053 C 
BRANCH  20  21
ATOM     21  C   UNL     1      83.820  51.734  43.603  0.00  0.00    -0.050 C 
BRANCH  21  22
ATOM     22  C   UNL     1      84.248  53.182  43.866  0.00  0.00    -0.035 C 
BRANCH  22  24
ATOM     23  C   UNL     1      85.531  54.067  41.877  0.00  0.00    -0.088 C 
ATOM     24  C   UNL     1      84.385  53.942  42.571  0.00  0.00    -0.088 C 
BRANCH  23  25
ATOM     25  C   UNL     1      86.869  53.544  42.333  0.00  0.00    -0.035 C 
BRANCH  25  27
ATOM     26  C   UNL     1      88.865  52.163  41.646  0.00  0.00    -0.065 C 
ATOM     27  C   UNL     1      87.407  52.501  41.348  0.00  0.00    -0.052 C 
ENDBRANCH  25  27
ENDBRANCH  23  25
ENDBRANCH  22  24
ENDBRANCH  21  22
ENDBRANCH  20  21
ENDBRANCH  19  20
ENDBRANCH  18  19
ENDBRANCH  17  18
ENDBRANCH  16  17
ENDBRANCH  15  16
ENDBRANCH   1  15
TORSDOF 17
ENDMDL
MODEL 6
REMARK VINA RESULT:    -6.300      4.174      7.684
REMARK INTER + INTRA:         -15.531
REMARK INTER:                 -13.370
REMARK INTRA:                  -2.160
REMARK UNBOUND:                -3.339
REMARK  Name = 
REMARK  18 active torsions:
REMARK  status: ('A' for Active; 'I' for Inactive)
REMARK    1  A    between atoms: C_1  and  C_2
REMARK    2  A    between atoms: C_2  and  C_3
REMARK    3  A    between atoms: C_3  and  C_4
REMARK    4  A    between atoms: C_5  and  C_6
REMARK    5  A    between atoms: C_6  and  C_7
REMARK    6  A    between atoms: C_7  and  C_8
REMARK    7  A    between atoms: C_8  and  C_9
REMARK    8  A    between atoms: C_9  and  C_10
REMARK    9  A    between atoms: C_10  and  C_11
REMARK   10  A    between atoms: C_11  and  C_12
REMARK   11  A    between atoms: C_12  and  C_13
REMARK   12  A    between atoms: C_13  and  C_14
REMARK   13  A    between atoms: C_14  and  C_15
REMARK   14  A    between atoms: C_15  and  C_16
REMARK   15  A    between atoms: C_16  and  C_17
REMARK   16  A    between atoms: C_17  and  C_18
REMARK   17  A    between atoms: C_22  and  O_25
REMARK   18  A    between atoms: C_23  and  O_24
REMARK                            x       y       z     vdW  Elec       q    Type
REMARK                         _______ _______ _______ _____ _____    ______ ____
ROOT
ATOM      1  C   UNL     1      87.361  52.097  42.324  0.00  0.00    -0.053 C 
ENDROOT
BRANCH   1   2
ATOM      2  C   UNL     1      88.684  52.692  41.813  0.00  0.00    -0.053 C 
BRANCH   2   3
ATOM      3  C   UNL     1      89.669  51.613  41.334  0.00  0.00    -0.049 C 
BRANCH   3   4
ATOM      4  C   UNL     1      88.980  50.274  41.032  0.00  0.00    -0.024 C 
BRANCH   4   5
ATOM      5  C   UNL     1      89.657  49.147  41.778  0.00  0.00    -0.002 A 
ATOM      6  C   UNL     1      90.777  49.443  42.574  0.00  0.00    -0.055 A 
ATOM      7  C   UNL     1      91.426  48.439  43.291  0.00  0.00    -0.058 A 
ATOM      8  C   UNL     1      90.963  47.126  43.232  0.00  0.00    -0.017 A 
ATOM      9  C   UNL     1      89.841  46.808  42.463  0.00  0.00    +0.158 A 
ATOM     10  C   UNL     1      89.172  47.813  41.737  0.00  0.00    +0.161 A 
BRANCH   9  11
ATOM     11  O   UNL     1      89.400  45.485  42.434  0.00  0.00    -0.503 OA
ATOM     12  H   UNL     1      89.785  44.876  41.835  0.00  0.00    +0.000 HD
ENDBRANCH   9  11
BRANCH  10  13
ATOM     13  O   UNL     1      88.040  47.460  40.996  0.00  0.00    -0.503 OA
ATOM     14  H   UNL     1      87.941  46.583  40.684  0.00  0.00    +0.000 HD
ENDBRANCH  10  13
ENDBRANCH   4   5
ENDBRANCH   3   4
ENDBRANCH   2   3
ENDBRANCH   1   2
BRANCH   1  15
ATOM     15  C   UNL     1      87.172  52.264  43.843  0.00  0.00    -0.053 C 
BRANCH  15  16
ATOM     16  C   UNL     1      87.829  51.178  44.715  0.00  0.00    -0.053 C 
BRANCH  16  17
ATOM     17  C   UNL     1      86.821  50.428  45.602  0.00  0.00    -0.053 C 
BRANCH  17  18
ATOM     18  C   UNL     1      86.717  51.015  47.022  0.00  0.00    -0.053 C 
BRANCH  18  19
ATOM     19  C   UNL     1      85.747  52.200  47.174  0.00  0.00    -0.053 C 
BRANCH  19  20
ATOM     20  C   UNL     1      85.745  52.799  48.589  0.00  0.00    -0.053 C 
BRANCH  20  21
ATOM     21  C   UNL     1      84.590  53.792  48.765  0.00  0.00    -0.050 C 
BRANCH  21  22
ATOM     22  C   UNL     1      84.234  54.462  47.433  0.00  0.00    -0.035 C 
BRANCH  22  24
ATOM     23  C   UNL     1      85.809  56.286  46.673  0.00  0.00    -0.088 C 
ATOM     24  C   UNL     1      84.748  55.879  47.394  0.00  0.00    -0.088 C 
BRANCH  23  25
ATOM     25  C   UNL     1      86.699  55.374  45.869  0.00  0.00    -0.035 C 
BRANCH  25  27
ATOM     26  C   UNL     1      86.180  57.251  44.265  0.00  0.00    -0.065 C 
ATOM     27  C   UNL     1      86.839  55.884  44.430  0.00  0.00    -0.052 C 
ENDBRANCH  25  27
ENDBRANCH  23  25
ENDBRANCH  22  24
ENDBRANCH  21  22
ENDBRANCH  20  21
ENDBRANCH  19  20
ENDBRANCH  18  19
ENDBRANCH  17  18
ENDBRANCH  16  17
ENDBRANCH  15  16
ENDBRANCH   1  15
TORSDOF 17
ENDMDL
MODEL 7
REMARK VINA RESULT:    -6.182      4.625      7.545
REMARK INTER + INTRA:         -15.303
REMARK INTER:                 -12.758
REMARK INTRA:                  -2.544
REMARK UNBOUND:                -3.339
REMARK  Name = 
REMARK  18 active torsions:
REMARK  status: ('A' for Active; 'I' for Inactive)
REMARK    1  A    between atoms: C_1  and  C_2
REMARK    2  A    between atoms: C_2  and  C_3
REMARK    3  A    between atoms: C_3  and  C_4
REMARK    4  A    between atoms: C_5  and  C_6
REMARK    5  A    between atoms: C_6  and  C_7
REMARK    6  A    between atoms: C_7  and  C_8
REMARK    7  A    between atoms: C_8  and  C_9
REMARK    8  A    between atoms: C_9  and  C_10
REMARK    9  A    between atoms: C_10  and  C_11
REMARK   10  A    between atoms: C_11  and  C_12
REMARK   11  A    between atoms: C_12  and  C_13
REMARK   12  A    between atoms: C_13  and  C_14
REMARK   13  A    between atoms: C_14  and  C_15
REMARK   14  A    between atoms: C_15  and  C_16
REMARK   15  A    between atoms: C_16  and  C_17
REMARK   16  A    between atoms: C_17  and  C_18
REMARK   17  A    between atoms: C_22  and  O_25
REMARK   18  A    between atoms: C_23  and  O_24
REMARK                            x       y       z     vdW  Elec       q    Type
REMARK                         _______ _______ _______ _____ _____    ______ ____
ROOT
ATOM      1  C   UNL     1      85.544  44.304  43.964  0.00  0.00    -0.053 C 
ENDROOT
BRANCH   1   2
ATOM      2  C   UNL     1      85.038  45.706  44.344  0.00  0.00    -0.053 C 
BRANCH   2   3
ATOM      3  C   UNL     1      83.924  46.202  43.407  0.00  0.00    -0.049 C 
BRANCH   3   4
ATOM      4  C   UNL     1      82.519  45.980  43.986  0.00  0.00    -0.024 C 
BRANCH   4   5
ATOM      5  C   UNL     1      81.684  47.233  43.854  0.00  0.00    -0.002 A 
ATOM      6  C   UNL     1      82.093  48.221  42.942  0.00  0.00    -0.055 A 
ATOM      7  C   UNL     1      81.348  49.388  42.776  0.00  0.00    -0.058 A 
ATOM      8  C   UNL     1      80.180  49.583  43.511  0.00  0.00    -0.017 A 
ATOM      9  C   UNL     1      79.742  48.609  44.410  0.00  0.00    +0.158 A 
ATOM     10  C   UNL     1      80.482  47.422  44.585  0.00  0.00    +0.161 A 
BRANCH   9  11
ATOM     11  O   UNL     1      78.563  48.832  45.122  0.00  0.00    -0.503 OA
ATOM     12  H   UNL     1      77.734  48.760  44.690  0.00  0.00    +0.000 HD
ENDBRANCH   9  11
BRANCH  10  13
ATOM     13  O   UNL     1      80.000  46.461  45.478  0.00  0.00    -0.503 OA
ATOM     14  H   UNL     1      79.103  46.195  45.440  0.00  0.00    +0.000 HD
ENDBRANCH  10  13
ENDBRANCH   4   5
ENDBRANCH   3   4
ENDBRANCH   2   3
ENDBRANCH   1   2
BRANCH   1  15
ATOM     15  C   UNL     1      86.378  44.295  42.669  0.00  0.00    -0.053 C 
BRANCH  15  16
ATOM     16  C   UNL     1      87.894  44.109  42.861  0.00  0.00    -0.053 C 
BRANCH  16  17
ATOM     17  C   UNL     1      88.708  45.353  42.469  0.00  0.00    -0.053 C 
BRANCH  17  18
ATOM     18  C   UNL     1      87.828  46.511  41.961  0.00  0.00    -0.053 C 
BRANCH  18  19
ATOM     19  C   UNL     1      88.594  47.712  41.378  0.00  0.00    -0.053 C 
BRANCH  19  20
ATOM     20  C   UNL     1      90.065  47.759  41.820  0.00  0.00    -0.053 C 
BRANCH  20  21
ATOM     21  C   UNL     1      90.341  48.997  42.682  0.00  0.00    -0.050 C 
BRANCH  21  22
ATOM     22  C   UNL     1      89.074  49.843  42.850  0.00  0.00    -0.035 C 
BRANCH  22  24
ATOM     23  C   UNL     1      87.319  49.661  44.660  0.00  0.00    -0.088 C 
ATOM     24  C   UNL     1      88.602  49.819  44.282  0.00  0.00    -0.088 C 
BRANCH  23  25
ATOM     25  C   UNL     1      86.152  49.575  43.711  0.00  0.00    -0.035 C 
BRANCH  25  27
ATOM     26  C   UNL     1      84.298  51.284  43.783  0.00  0.00    -0.065 C 
ATOM     27  C   UNL     1      84.857  50.009  44.407  0.00  0.00    -0.052 C 
ENDBRANCH  25  27
ENDBRANCH  23  25
ENDBRANCH  22  24
ENDBRANCH  21  22
ENDBRANCH  20  21
ENDBRANCH  19  20
ENDBRANCH  18  19
ENDBRANCH  17  18
ENDBRANCH  16  17
ENDBRANCH  15  16
ENDBRANCH   1  15
TORSDOF 17
ENDMDL
MODEL 8
REMARK VINA RESULT:    -6.179      2.966      6.517
REMARK INTER + INTRA:         -15.297
REMARK INTER:                 -12.766
REMARK INTRA:                  -2.531
REMARK UNBOUND:                -3.339
REMARK  Name = 
REMARK  18 active torsions:
REMARK  status: ('A' for Active; 'I' for Inactive)
REMARK    1  A    between atoms: C_1  and  C_2
REMARK    2  A    between atoms: C_2  and  C_3
REMARK    3  A    between atoms: C_3  and  C_4
REMARK    4  A    between atoms: C_5  and  C_6
REMARK    5  A    between atoms: C_6  and  C_7
REMARK    6  A    between atoms: C_7  and  C_8
REMARK    7  A    between atoms: C_8  and  C_9
REMARK    8  A    between atoms: C_9  and  C_10
REMARK    9  A    between atoms: C_10  and  C_11
REMARK   10  A    between atoms: C_11  and  C_12
REMARK   11  A    between atoms: C_12  and  C_13
REMARK   12  A    between atoms: C_13  and  C_14
REMARK   13  A    between atoms: C_14  and  C_15
REMARK   14  A    between atoms: C_15  and  C_16
REMARK   15  A    between atoms: C_16  and  C_17
REMARK   16  A    between atoms: C_17  and  C_18
REMARK   17  A    between atoms: C_22  and  O_25
REMARK   18  A    between atoms: C_23  and  O_24
REMARK                            x       y       z     vdW  Elec       q    Type
REMARK                         _______ _______ _______ _____ _____    ______ ____
ROOT
ATOM      1  C   UNL     1      86.479  54.425  43.392  0.00  0.00    -0.053 C 
ENDROOT
BRANCH   1   2
ATOM      2  C   UNL     1      85.334  54.052  42.436  0.00  0.00    -0.053 C 
BRANCH   2   3
ATOM      3  C   UNL     1      84.221  53.253  43.135  0.00  0.00    -0.049 C 
BRANCH   3   4
ATOM      4  C   UNL     1      84.601  51.783  43.365  0.00  0.00    -0.024 C 
BRANCH   4   5
ATOM      5  C   UNL     1      83.381  50.896  43.267  0.00  0.00    -0.002 A 
ATOM      6  C   UNL     1      82.240  51.391  42.612  0.00  0.00    -0.055 A 
ATOM      7  C   UNL     1      81.095  50.605  42.486  0.00  0.00    -0.058 A 
ATOM      8  C   UNL     1      81.075  49.310  43.002  0.00  0.00    -0.017 A 
ATOM      9  C   UNL     1      82.202  48.788  43.640  0.00  0.00    +0.158 A 
ATOM     10  C   UNL     1      83.367  49.569  43.772  0.00  0.00    +0.161 A 
BRANCH   9  11
ATOM     11  O   UNL     1      82.150  47.485  44.137  0.00  0.00    -0.503 OA
ATOM     12  H   UNL     1      81.394  46.954  43.979  0.00  0.00    +0.000 HD
ENDBRANCH   9  11
BRANCH  10  13
ATOM     13  O   UNL     1      84.482  49.004  44.398  0.00  0.00    -0.503 OA
ATOM     14  H   UNL     1      85.117  48.538  43.891  0.00  0.00    +0.000 HD
ENDBRANCH  10  13
ENDBRANCH   4   5
ENDBRANCH   3   4
ENDBRANCH   2   3
ENDBRANCH   1   2
BRANCH   1  15
ATOM     15  C   UNL     1      86.072  55.483  44.435  0.00  0.00    -0.053 C 
BRANCH  15  16
ATOM     16  C   UNL     1      86.641  55.269  45.850  0.00  0.00    -0.053 C 
BRANCH  16  17
ATOM     17  C   UNL     1      85.997  56.188  46.902  0.00  0.00    -0.053 C 
BRANCH  17  18
ATOM     18  C   UNL     1      84.462  56.243  46.794  0.00  0.00    -0.053 C 
BRANCH  18  19
ATOM     19  C   UNL     1      83.721  55.001  47.321  0.00  0.00    -0.053 C 
BRANCH  19  20
ATOM     20  C   UNL     1      83.934  54.765  48.824  0.00  0.00    -0.053 C 
BRANCH  20  21
ATOM     21  C   UNL     1      84.261  53.295  49.109  0.00  0.00    -0.050 C 
BRANCH  21  22
ATOM     22  C   UNL     1      85.203  52.724  48.043  0.00  0.00    -0.035 C 
BRANCH  22  24
ATOM     23  C   UNL     1      86.855  50.813  47.962  0.00  0.00    -0.088 C 
ATOM     24  C   UNL     1      86.170  51.743  48.655  0.00  0.00    -0.088 C 
BRANCH  23  25
ATOM     25  C   UNL     1      86.691  50.553  46.487  0.00  0.00    -0.035 C 
BRANCH  25  27
ATOM     26  C   UNL     1      88.032  50.814  44.366  0.00  0.00    -0.065 C 
ATOM     27  C   UNL     1      87.600  51.478  45.670  0.00  0.00    -0.052 C 
ENDBRANCH  25  27
ENDBRANCH  23  25
ENDBRANCH  22  24
ENDBRANCH  21  22
ENDBRANCH  20  21
ENDBRANCH  19  20
ENDBRANCH  18  19
ENDBRANCH  17  18
ENDBRANCH  16  17
ENDBRANCH  15  16
ENDBRANCH   1  15
TORSDOF 17
ENDMDL
MODEL 9
REMARK VINA RESULT:    -6.068      2.624      5.757
REMARK INTER + INTRA:         -15.082
REMARK INTER:                 -11.744
REMARK INTRA:                  -3.339
REMARK UNBOUND:                -3.339
REMARK  Name = 
REMARK  18 active torsions:
REMARK  status: ('A' for Active; 'I' for Inactive)
REMARK    1  A    between atoms: C_1  and  C_2
REMARK    2  A    between atoms: C_2  and  C_3
REMARK    3  A    between atoms: C_3  and  C_4
REMARK    4  A    between atoms: C_5  and  C_6
REMARK    5  A    between atoms: C_6  and  C_7
REMARK    6  A    between atoms: C_7  and  C_8
REMARK    7  A    between atoms: C_8  and  C_9
REMARK    8  A    between atoms: C_9  and  C_10
REMARK    9  A    between atoms: C_10  and  C_11
REMARK   10  A    between atoms: C_11  and  C_12
REMARK   11  A    between atoms: C_12  and  C_13
REMARK   12  A    between atoms: C_13  and  C_14
REMARK   13  A    between atoms: C_14  and  C_15
REMARK   14  A    between atoms: C_15  and  C_16
REMARK   15  A    between atoms: C_16  and  C_17
REMARK   16  A    between atoms: C_17  and  C_18
REMARK   17  A    between atoms: C_22  and  O_25
REMARK   18  A    between atoms: C_23  and  O_24
REMARK                            x       y       z     vdW  Elec       q    Type
REMARK                         _______ _______ _______ _____ _____    ______ ____
ROOT
ATOM      1  C   UNL     1      86.250  55.215  45.373  0.00  0.00    -0.053 C 
ENDROOT
BRANCH   1   2
ATOM      2  C   UNL     1      85.033  54.860  44.502  0.00  0.00    -0.053 C 
BRANCH   2   3
ATOM      3  C   UNL     1      85.045  53.392  44.045  0.00  0.00    -0.049 C 
BRANCH   3   4
ATOM      4  C   UNL     1      84.109  53.134  42.855  0.00  0.00    -0.024 C 
BRANCH   4   5
ATOM      5  C   UNL     1      83.370  51.827  43.033  0.00  0.00    -0.002 A 
ATOM      6  C   UNL     1      83.967  50.816  43.806  0.00  0.00    -0.055 A 
ATOM      7  C   UNL     1      83.318  49.598  44.008  0.00  0.00    -0.058 A 
ATOM      8  C   UNL     1      82.060  49.375  43.451  0.00  0.00    -0.017 A 
ATOM      9  C   UNL     1      81.437  50.370  42.694  0.00  0.00    +0.158 A 
ATOM     10  C   UNL     1      82.080  51.607  42.485  0.00  0.00    +0.161 A 
BRANCH   9  11
ATOM     11  O   UNL     1      80.174  50.116  42.159  0.00  0.00    -0.503 OA
ATOM     12  H   UNL     1      79.427  50.582  42.480  0.00  0.00    +0.000 HD
ENDBRANCH   9  11
BRANCH  10  13
ATOM     13  O   UNL     1      81.415  52.586  41.740  0.00  0.00    -0.503 OA
ATOM     14  H   UNL     1      80.485  52.674  41.808  0.00  0.00    +0.000 HD
ENDBRANCH  10  13
ENDBRANCH   4   5
ENDBRANCH   3   4
ENDBRANCH   2   3
ENDBRANCH   1   2
BRANCH   1  15
ATOM     15  C   UNL     1      85.873  56.000  46.643  0.00  0.00    -0.053 C 
BRANCH  15  16
ATOM     16  C   UNL     1      84.366  56.085  46.945  0.00  0.00    -0.053 C 
BRANCH  16  17
ATOM     17  C   UNL     1      83.953  55.267  48.180  0.00  0.00    -0.053 C 
BRANCH  17  18
ATOM     18  C   UNL     1      83.840  53.758  47.891  0.00  0.00    -0.053 C 
BRANCH  18  19
ATOM     19  C   UNL     1      84.770  52.858  48.723  0.00  0.00    -0.053 C 
BRANCH  19  20
ATOM     20  C   UNL     1      86.132  52.617  48.054  0.00  0.00    -0.053 C 
BRANCH  20  21
ATOM     21  C   UNL     1      86.026  51.547  46.961  0.00  0.00    -0.050 C 
BRANCH  21  22
ATOM     22  C   UNL     1      87.384  51.310  46.290  0.00  0.00    -0.035 C 
BRANCH  22  24
ATOM     23  C   UNL     1      87.679  50.135  44.073  0.00  0.00    -0.088 C 
ATOM     24  C   UNL     1      87.324  50.116  45.371  0.00  0.00    -0.088 C 
BRANCH  23  25
ATOM     25  C   UNL     1      88.101  51.369  43.318  0.00  0.00    -0.035 C 
BRANCH  25  27
ATOM     26  C   UNL     1      88.211  51.145  40.808  0.00  0.00    -0.065 C 
ATOM     27  C   UNL     1      87.325  51.490  42.002  0.00  0.00    -0.052 C 
ENDBRANCH  25  27
ENDBRANCH  23  25
ENDBRANCH  22  24
ENDBRANCH  21  22
ENDBRANCH  20  21
ENDBRANCH  19  20
ENDBRANCH  18  19
ENDBRANCH  17  18
ENDBRANCH  16  17
ENDBRANCH  15  16
ENDBRANCH   1  15
TORSDOF 17
ENDMDL
