MODEL 1
REMARK VINA RESULT:    -6.894      0.000      0.000
REMARK INTER + INTRA:         -16.044
REMARK INTER:                 -12.896
REMARK INTRA:                  -3.148
REMARK UNBOUND:                -2.702
REMARK  Name = 
REMARK  18 active torsions:
REMARK  status: ('A' for Active; 'I' for Inactive)
REMARK    1  A    between atoms: C_1  and  C_2
REMARK    2  A    between atoms: C_2  and  C_3
REMARK    3  A    between atoms: C_3  and  C_4
REMARK    4  A    between atoms: C_5  and  C_6
REMARK    5  A    between atoms: C_6  and  C_7
REMARK    6  A    between atoms: C_7  and  C_8
REMARK    7  A    between atoms: C_8  and  C_9
REMARK    8  A    between atoms: C_9  and  C_10
REMARK    9  A    between atoms: C_10  and  C_11
REMARK   10  A    between atoms: C_11  and  C_12
REMARK   11  A    between atoms: C_12  and  C_13
REMARK   12  A    between atoms: C_13  and  C_14
REMARK   13  A    between atoms: C_14  and  C_15
REMARK   14  A    between atoms: C_15  and  C_16
REMARK   15  A    between atoms: C_16  and  C_17
REMARK   16  A    between atoms: C_17  and  C_18
REMARK   17  A    between atoms: C_22  and  O_25
REMARK   18  A    between atoms: C_23  and  O_24
REMARK                            x       y       z     vdW  Elec       q    Type
REMARK                         _______ _______ _______ _____ _____    ______ ____
ROOT
ATOM      1  C   UNL     1      83.866  53.033  48.980  0.00  0.00    -0.053 C 
ENDROOT
BRANCH   1   2
ATOM      2  C   UNL     1      83.093  54.251  48.448  0.00  0.00    -0.053 C 
BRANCH   2   3
ATOM      3  C   UNL     1      83.937  55.535  48.463  0.00  0.00    -0.049 C 
BRANCH   3   4
ATOM      4  C   UNL     1      83.560  56.506  47.333  0.00  0.00    -0.024 C 
BRANCH   4   5
ATOM      5  C   UNL     1      84.656  56.564  46.294  0.00  0.00    -0.002 A 
ATOM      6  C   UNL     1      85.498  55.449  46.139  0.00  0.00    -0.055 A 
ATOM      7  C   UNL     1      86.515  55.452  45.184  0.00  0.00    -0.058 A 
ATOM      8  C   UNL     1      86.702  56.563  44.365  0.00  0.00    -0.017 A 
ATOM      9  C   UNL     1      85.868  57.677  44.486  0.00  0.00    +0.158 A 
ATOM     10  C   UNL     1      84.834  57.687  45.443  0.00  0.00    +0.161 A 
BRANCH   9  11
ATOM     11  O   UNL     1      86.078  58.768  43.642  0.00  0.00    -0.503 OA
ATOM     12  H   UNL     1      86.588  59.498  43.938  0.00  0.00    +0.000 HD
ENDBRANCH   9  11
BRANCH  10  13
ATOM     13  O   UNL     1      84.006  58.811  45.519  0.00  0.00    -0.503 OA
ATOM     14  H   UNL     1      84.317  59.593  45.930  0.00  0.00    +0.000 HD
ENDBRANCH  10  13
ENDBRANCH   4   5
ENDBRANCH   3   4
ENDBRANCH   2   3
ENDBRANCH   1   2
BRANCH   1  15
ATOM     15  C   UNL     1      85.289  52.922  48.399  0.00  0.00    -0.053 C 
BRANCH  15  16
ATOM     16  C   UNL     1      86.089  51.684  48.842  0.00  0.00    -0.053 C 
BRANCH  16  17
ATOM     17  C   UNL     1      86.935  51.078  47.710  0.00  0.00    -0.053 C 
BRANCH  17  18
ATOM     18  C   UNL     1      87.201  52.069  46.561  0.00  0.00    -0.053 C 
BRANCH  18  19
ATOM     19  C   UNL     1      87.545  51.427  45.205  0.00  0.00    -0.053 C 
BRANCH  19  20
ATOM     20  C   UNL     1      86.608  51.874  44.073  0.00  0.00    -0.053 C 
BRANCH  20  21
ATOM     21  C   UNL     1      85.195  51.313  44.273  0.00  0.00    -0.050 C 
BRANCH  21  22
ATOM     22  C   UNL     1      84.173  52.443  44.440  0.00  0.00    -0.035 C 
BRANCH  22  24
ATOM     23  C   UNL     1      82.983  53.511  42.483  0.00  0.00    -0.088 C 
ATOM     24  C   UNL     1      83.198  52.455  43.290  0.00  0.00    -0.088 C 
BRANCH  23  25
ATOM     25  C   UNL     1      83.614  54.868  42.662  0.00  0.00    -0.035 C 
BRANCH  25  27
ATOM     26  C   UNL     1      85.028  53.912  40.805  0.00  0.00    -0.065 C 
ATOM     27  C   UNL     1      84.550  55.188  41.491  0.00  0.00    -0.052 C 
ENDBRANCH  25  27
ENDBRANCH  23  25
ENDBRANCH  22  24
ENDBRANCH  21  22
ENDBRANCH  20  21
ENDBRANCH  19  20
ENDBRANCH  18  19
ENDBRANCH  17  18
ENDBRANCH  16  17
ENDBRANCH  15  16
ENDBRANCH   1  15
TORSDOF 17
ENDMDL
MODEL 2
REMARK VINA RESULT:    -6.771      2.018      3.901
REMARK INTER + INTRA:         -15.806
REMARK INTER:                 -11.935
REMARK INTRA:                  -3.871
REMARK UNBOUND:                -2.702
REMARK  Name = 
REMARK  18 active torsions:
REMARK  status: ('A' for Active; 'I' for Inactive)
REMARK    1  A    between atoms: C_1  and  C_2
REMARK    2  A    between atoms: C_2  and  C_3
REMARK    3  A    between atoms: C_3  and  C_4
REMARK    4  A    between atoms: C_5  and  C_6
REMARK    5  A    between atoms: C_6  and  C_7
REMARK    6  A    between atoms: C_7  and  C_8
REMARK    7  A    between atoms: C_8  and  C_9
REMARK    8  A    between atoms: C_9  and  C_10
REMARK    9  A    between atoms: C_10  and  C_11
REMARK   10  A    between atoms: C_11  and  C_12
REMARK   11  A    between atoms: C_12  and  C_13
REMARK   12  A    between atoms: C_13  and  C_14
REMARK   13  A    between atoms: C_14  and  C_15
REMARK   14  A    between atoms: C_15  and  C_16
REMARK   15  A    between atoms: C_16  and  C_17
REMARK   16  A    between atoms: C_17  and  C_18
REMARK   17  A    between atoms: C_22  and  O_25
REMARK   18  A    between atoms: C_23  and  O_24
REMARK                            x       y       z     vdW  Elec       q    Type
REMARK                         _______ _______ _______ _____ _____    ______ ____
ROOT
ATOM      1  C   UNL     1      84.556  55.512  46.550  0.00  0.00    -0.053 C 
ENDROOT
BRANCH   1   2
ATOM      2  C   UNL     1      85.965  56.127  46.495  0.00  0.00    -0.053 C 
BRANCH   2   3
ATOM      3  C   UNL     1      86.521  56.194  45.063  0.00  0.00    -0.049 C 
BRANCH   3   4
ATOM      4  C   UNL     1      85.416  56.176  43.996  0.00  0.00    -0.024 C 
BRANCH   4   5
ATOM      5  C   UNL     1      85.645  55.052  43.011  0.00  0.00    -0.002 A 
ATOM      6  C   UNL     1      86.736  54.189  43.216  0.00  0.00    -0.055 A 
ATOM      7  C   UNL     1      86.980  53.131  42.341  0.00  0.00    -0.058 A 
ATOM      8  C   UNL     1      86.136  52.912  41.254  0.00  0.00    -0.017 A 
ATOM      9  C   UNL     1      85.034  53.744  41.039  0.00  0.00    +0.158 A 
ATOM     10  C   UNL     1      84.773  54.815  41.917  0.00  0.00    +0.161 A 
BRANCH   9  11
ATOM     11  O   UNL     1      84.204  53.490  39.947  0.00  0.00    -0.503 OA
ATOM     12  H   UNL     1      83.429  52.975  40.057  0.00  0.00    +0.000 HD
ENDBRANCH   9  11
BRANCH  10  13
ATOM     13  O   UNL     1      83.649  55.612  41.681  0.00  0.00    -0.503 OA
ATOM     14  H   UNL     1      83.755  56.500  41.402  0.00  0.00    +0.000 HD
ENDBRANCH  10  13
ENDBRANCH   4   5
ENDBRANCH   3   4
ENDBRANCH   2   3
ENDBRANCH   1   2
BRANCH   1  15
ATOM     15  C   UNL     1      83.821  55.811  47.870  0.00  0.00    -0.053 C 
BRANCH  15  16
ATOM     16  C   UNL     1      83.791  54.655  48.887  0.00  0.00    -0.053 C 
BRANCH  16  17
ATOM     17  C   UNL     1      84.125  53.292  48.257  0.00  0.00    -0.053 C 
BRANCH  17  18
ATOM     18  C   UNL     1      85.217  52.525  49.028  0.00  0.00    -0.053 C 
BRANCH  18  19
ATOM     19  C   UNL     1      86.296  51.862  48.154  0.00  0.00    -0.053 C 
BRANCH  19  20
ATOM     20  C   UNL     1      86.372  52.455  46.738  0.00  0.00    -0.053 C 
BRANCH  20  21
ATOM     21  C   UNL     1      86.747  51.380  45.711  0.00  0.00    -0.050 C 
BRANCH  21  22
ATOM     22  C   UNL     1      85.511  50.899  44.942  0.00  0.00    -0.035 C 
BRANCH  22  24
ATOM     23  C   UNL     1      83.439  51.984  43.986  0.00  0.00    -0.088 C 
ATOM     24  C   UNL     1      84.494  52.005  44.822  0.00  0.00    -0.088 C 
BRANCH  23  25
ATOM     25  C   UNL     1      83.166  50.896  42.980  0.00  0.00    -0.035 C 
BRANCH  25  27
ATOM     26  C   UNL     1      81.653  52.747  42.176  0.00  0.00    -0.065 C 
ATOM     27  C   UNL     1      81.954  51.252  42.113  0.00  0.00    -0.052 C 
ENDBRANCH  25  27
ENDBRANCH  23  25
ENDBRANCH  22  24
ENDBRANCH  21  22
ENDBRANCH  20  21
ENDBRANCH  19  20
ENDBRANCH  18  19
ENDBRANCH  17  18
ENDBRANCH  16  17
ENDBRANCH  15  16
ENDBRANCH   1  15
TORSDOF 17
ENDMDL
MODEL 3
REMARK VINA RESULT:    -6.765      2.850      5.047
REMARK INTER + INTRA:         -15.794
REMARK INTER:                 -13.528
REMARK INTRA:                  -2.267
REMARK UNBOUND:                -2.702
REMARK  Name = 
REMARK  18 active torsions:
REMARK  status: ('A' for Active; 'I' for Inactive)
REMARK    1  A    between atoms: C_1  and  C_2
REMARK    2  A    between atoms: C_2  and  C_3
REMARK    3  A    between atoms: C_3  and  C_4
REMARK    4  A    between atoms: C_5  and  C_6
REMARK    5  A    between atoms: C_6  and  C_7
REMARK    6  A    between atoms: C_7  and  C_8
REMARK    7  A    between atoms: C_8  and  C_9
REMARK    8  A    between atoms: C_9  and  C_10
REMARK    9  A    between atoms: C_10  and  C_11
REMARK   10  A    between atoms: C_11  and  C_12
REMARK   11  A    between atoms: C_12  and  C_13
REMARK   12  A    between atoms: C_13  and  C_14
REMARK   13  A    between atoms: C_14  and  C_15
REMARK   14  A    between atoms: C_15  and  C_16
REMARK   15  A    between atoms: C_16  and  C_17
REMARK   16  A    between atoms: C_17  and  C_18
REMARK   17  A    between atoms: C_22  and  O_25
REMARK   18  A    between atoms: C_23  and  O_24
REMARK                            x       y       z     vdW  Elec       q    Type
REMARK                         _______ _______ _______ _____ _____    ______ ____
ROOT
ATOM      1  C   UNL     1      87.286  50.719  48.083  0.00  0.00    -0.053 C 
ENDROOT
BRANCH   1   2
ATOM      2  C   UNL     1      86.356  51.372  49.121  0.00  0.00    -0.053 C 
BRANCH   2   3
ATOM      3  C   UNL     1      85.426  52.425  48.496  0.00  0.00    -0.049 C 
BRANCH   3   4
ATOM      4  C   UNL     1      85.694  53.842  49.026  0.00  0.00    -0.024 C 
BRANCH   4   5
ATOM      5  C   UNL     1      85.453  54.869  47.943  0.00  0.00    -0.002 A 
ATOM      6  C   UNL     1      86.350  54.932  46.863  0.00  0.00    -0.055 A 
ATOM      7  C   UNL     1      86.162  55.854  45.834  0.00  0.00    -0.058 A 
ATOM      8  C   UNL     1      85.071  56.722  45.863  0.00  0.00    -0.017 A 
ATOM      9  C   UNL     1      84.155  56.667  46.916  0.00  0.00    +0.158 A 
ATOM     10  C   UNL     1      84.330  55.737  47.960  0.00  0.00    +0.161 A 
BRANCH   9  11
ATOM     11  O   UNL     1      83.070  57.544  46.908  0.00  0.00    -0.503 OA
ATOM     12  H   UNL     1      82.631  57.739  46.103  0.00  0.00    +0.000 HD
ENDBRANCH   9  11
BRANCH  10  13
ATOM     13  O   UNL     1      83.380  55.698  48.985  0.00  0.00    -0.503 OA
ATOM     14  H   UNL     1      82.468  55.664  48.776  0.00  0.00    +0.000 HD
ENDBRANCH  10  13
ENDBRANCH   4   5
ENDBRANCH   3   4
ENDBRANCH   2   3
ENDBRANCH   1   2
BRANCH   1  15
ATOM     15  C   UNL     1      86.937  51.107  46.634  0.00  0.00    -0.053 C 
BRANCH  15  16
ATOM     16  C   UNL     1      87.692  50.328  45.541  0.00  0.00    -0.053 C 
BRANCH  16  17
ATOM     17  C   UNL     1      87.621  51.005  44.162  0.00  0.00    -0.053 C 
BRANCH  17  18
ATOM     18  C   UNL     1      86.867  52.347  44.189  0.00  0.00    -0.053 C 
BRANCH  18  19
ATOM     19  C   UNL     1      87.196  53.310  43.034  0.00  0.00    -0.053 C 
BRANCH  19  20
ATOM     20  C   UNL     1      87.731  52.592  41.786  0.00  0.00    -0.053 C 
BRANCH  20  21
ATOM     21  C   UNL     1      89.238  52.819  41.624  0.00  0.00    -0.050 C 
BRANCH  21  22
ATOM     22  C   UNL     1      89.877  51.700  40.794  0.00  0.00    -0.035 C 
BRANCH  22  24
ATOM     23  C   UNL     1      89.476  49.323  41.554  0.00  0.00    -0.088 C 
ATOM     24  C   UNL     1      89.072  50.429  40.901  0.00  0.00    -0.088 C 
BRANCH  23  25
ATOM     25  C   UNL     1      90.829  49.155  42.197  0.00  0.00    -0.035 C 
BRANCH  25  27
ATOM     26  C   UNL     1      90.947  47.068  43.608  0.00  0.00    -0.065 C 
ATOM     27  C   UNL     1      90.688  48.571  43.607  0.00  0.00    -0.052 C 
ENDBRANCH  25  27
ENDBRANCH  23  25
ENDBRANCH  22  24
ENDBRANCH  21  22
ENDBRANCH  20  21
ENDBRANCH  19  20
ENDBRANCH  18  19
ENDBRANCH  17  18
ENDBRANCH  16  17
ENDBRANCH  15  16
ENDBRANCH   1  15
TORSDOF 17
ENDMDL
MODEL 4
REMARK VINA RESULT:    -6.752      1.414      2.815
REMARK INTER + INTRA:         -15.769
REMARK INTER:                 -12.333
REMARK INTRA:                  -3.436
REMARK UNBOUND:                -2.702
REMARK  Name = 
REMARK  18 active torsions:
REMARK  status: ('A' for Active; 'I' for Inactive)
REMARK    1  A    between atoms: C_1  and  C_2
REMARK    2  A    between atoms: C_2  and  C_3
REMARK    3  A    between atoms: C_3  and  C_4
REMARK    4  A    between atoms: C_5  and  C_6
REMARK    5  A    between atoms: C_6  and  C_7
REMARK    6  A    between atoms: C_7  and  C_8
REMARK    7  A    between atoms: C_8  and  C_9
REMARK    8  A    between atoms: C_9  and  C_10
REMARK    9  A    between atoms: C_10  and  C_11
REMARK   10  A    between atoms: C_11  and  C_12
REMARK   11  A    between atoms: C_12  and  C_13
REMARK   12  A    between atoms: C_13  and  C_14
REMARK   13  A    between atoms: C_14  and  C_15
REMARK   14  A    between atoms: C_15  and  C_16
REMARK   15  A    between atoms: C_16  and  C_17
REMARK   16  A    between atoms: C_17  and  C_18
REMARK   17  A    between atoms: C_22  and  O_25
REMARK   18  A    between atoms: C_23  and  O_24
REMARK                            x       y       z     vdW  Elec       q    Type
REMARK                         _______ _______ _______ _____ _____    ______ ____
ROOT
ATOM      1  C   UNL     1      86.424  51.546  48.628  0.00  0.00    -0.053 C 
ENDROOT
BRANCH   1   2
ATOM      2  C   UNL     1      85.349  52.571  49.027  0.00  0.00    -0.053 C 
BRANCH   2   3
ATOM      3  C   UNL     1      85.649  53.979  48.488  0.00  0.00    -0.049 C 
BRANCH   3   4
ATOM      4  C   UNL     1      84.487  54.562  47.671  0.00  0.00    -0.024 C 
BRANCH   4   5
ATOM      5  C   UNL     1      84.997  55.558  46.655  0.00  0.00    -0.002 A 
ATOM      6  C   UNL     1      86.152  55.239  45.920  0.00  0.00    -0.055 A 
ATOM      7  C   UNL     1      86.653  56.121  44.963  0.00  0.00    -0.058 A 
ATOM      8  C   UNL     1      86.005  57.330  44.718  0.00  0.00    -0.017 A 
ATOM      9  C   UNL     1      84.844  57.663  45.422  0.00  0.00    +0.158 A 
ATOM     10  C   UNL     1      84.325  56.780  46.389  0.00  0.00    +0.161 A 
BRANCH   9  11
ATOM     11  O   UNL     1      84.216  58.877  45.145  0.00  0.00    -0.503 OA
ATOM     12  H   UNL     1      83.932  59.429  45.847  0.00  0.00    +0.000 HD
ENDBRANCH   9  11
BRANCH  10  13
ATOM     13  O   UNL     1      83.150  57.138  47.057  0.00  0.00    -0.503 OA
ATOM     14  H   UNL     1      83.131  57.155  47.993  0.00  0.00    +0.000 HD
ENDBRANCH  10  13
ENDBRANCH   4   5
ENDBRANCH   3   4
ENDBRANCH   2   3
ENDBRANCH   1   2
BRANCH   1  15
ATOM     15  C   UNL     1      86.657  51.480  47.107  0.00  0.00    -0.053 C 
BRANCH  15  16
ATOM     16  C   UNL     1      87.247  50.158  46.585  0.00  0.00    -0.053 C 
BRANCH  16  17
ATOM     17  C   UNL     1      87.843  50.280  45.173  0.00  0.00    -0.053 C 
BRANCH  17  18
ATOM     18  C   UNL     1      87.547  51.639  44.511  0.00  0.00    -0.053 C 
BRANCH  18  19
ATOM     19  C   UNL     1      87.999  51.769  43.046  0.00  0.00    -0.053 C 
BRANCH  19  20
ATOM     20  C   UNL     1      86.851  52.135  42.092  0.00  0.00    -0.053 C 
BRANCH  20  21
ATOM     21  C   UNL     1      86.063  53.340  42.618  0.00  0.00    -0.050 C 
BRANCH  21  22
ATOM     22  C   UNL     1      84.562  53.033  42.675  0.00  0.00    -0.035 C 
BRANCH  22  24
ATOM     23  C   UNL     1      83.894  51.813  44.784  0.00  0.00    -0.088 C 
ATOM     24  C   UNL     1      84.086  52.958  44.103  0.00  0.00    -0.088 C 
BRANCH  23  25
ATOM     25  C   UNL     1      84.039  50.433  44.196  0.00  0.00    -0.035 C 
BRANCH  25  27
ATOM     26  C   UNL     1      81.729  50.200  43.209  0.00  0.00    -0.065 C 
ATOM     27  C   UNL     1      82.707  49.677  44.257  0.00  0.00    -0.052 C 
ENDBRANCH  25  27
ENDBRANCH  23  25
ENDBRANCH  22  24
ENDBRANCH  21  22
ENDBRANCH  20  21
ENDBRANCH  19  20
ENDBRANCH  18  19
ENDBRANCH  17  18
ENDBRANCH  16  17
ENDBRANCH  15  16
ENDBRANCH   1  15
TORSDOF 17
ENDMDL
MODEL 5
REMARK VINA RESULT:    -6.682      2.182      4.630
REMARK INTER + INTRA:         -15.634
REMARK INTER:                 -12.334
REMARK INTRA:                  -3.300
REMARK UNBOUND:                -2.702
REMARK  Name = 
REMARK  18 active torsions:
REMARK  status: ('A' for Active; 'I' for Inactive)
REMARK    1  A    between atoms: C_1  and  C_2
REMARK    2  A    between atoms: C_2  and  C_3
REMARK    3  A    between atoms: C_3  and  C_4
REMARK    4  A    between atoms: C_5  and  C_6
REMARK    5  A    between atoms: C_6  and  C_7
REMARK    6  A    between atoms: C_7  and  C_8
REMARK    7  A    between atoms: C_8  and  C_9
REMARK    8  A    between atoms: C_9  and  C_10
REMARK    9  A    between atoms: C_10  and  C_11
REMARK   10  A    between atoms: C_11  and  C_12
REMARK   11  A    between atoms: C_12  and  C_13
REMARK   12  A    between atoms: C_13  and  C_14
REMARK   13  A    between atoms: C_14  and  C_15
REMARK   14  A    between atoms: C_15  and  C_16
REMARK   15  A    between atoms: C_16  and  C_17
REMARK   16  A    between atoms: C_17  and  C_18
REMARK   17  A    between atoms: C_22  and  O_25
REMARK   18  A    between atoms: C_23  and  O_24
REMARK                            x       y       z     vdW  Elec       q    Type
REMARK                         _______ _______ _______ _____ _____    ______ ____
ROOT
ATOM      1  C   UNL     1      84.079  56.851  46.813  0.00  0.00    -0.053 C 
ENDROOT
BRANCH   1   2
ATOM      2  C   UNL     1      85.589  56.640  47.017  0.00  0.00    -0.053 C 
BRANCH   2   3
ATOM      3  C   UNL     1      86.305  56.226  45.722  0.00  0.00    -0.049 C 
BRANCH   3   4
ATOM      4  C   UNL     1      86.637  54.727  45.680  0.00  0.00    -0.024 C 
BRANCH   4   5
ATOM      5  C   UNL     1      85.895  54.048  44.551  0.00  0.00    -0.002 A 
ATOM      6  C   UNL     1      84.681  53.400  44.837  0.00  0.00    -0.055 A 
ATOM      7  C   UNL     1      83.955  52.771  43.825  0.00  0.00    -0.058 A 
ATOM      8  C   UNL     1      84.425  52.787  42.513  0.00  0.00    -0.017 A 
ATOM      9  C   UNL     1      85.619  53.440  42.200  0.00  0.00    +0.158 A 
ATOM     10  C   UNL     1      86.361  54.083  43.211  0.00  0.00    +0.161 A 
BRANCH   9  11
ATOM     11  O   UNL     1      86.055  53.444  40.875  0.00  0.00    -0.503 OA
ATOM     12  H   UNL     1      85.430  53.475  40.176  0.00  0.00    +0.000 HD
ENDBRANCH   9  11
BRANCH  10  13
ATOM     13  O   UNL     1      87.540  54.744  42.855  0.00  0.00    -0.503 OA
ATOM     14  H   UNL     1      88.343  54.266  42.790  0.00  0.00    +0.000 HD
ENDBRANCH  10  13
ENDBRANCH   4   5
ENDBRANCH   3   4
ENDBRANCH   2   3
ENDBRANCH   1   2
BRANCH   1  15
ATOM     15  C   UNL     1      83.221  55.789  47.524  0.00  0.00    -0.053 C 
BRANCH  15  16
ATOM     16  C   UNL     1      83.826  55.205  48.814  0.00  0.00    -0.053 C 
BRANCH  16  17
ATOM     17  C   UNL     1      84.166  53.709  48.695  0.00  0.00    -0.053 C 
BRANCH  17  18
ATOM     18  C   UNL     1      85.666  53.417  48.881  0.00  0.00    -0.053 C 
BRANCH  18  19
ATOM     19  C   UNL     1      86.060  51.931  48.814  0.00  0.00    -0.053 C 
BRANCH  19  20
ATOM     20  C   UNL     1      86.471  51.480  47.404  0.00  0.00    -0.053 C 
BRANCH  20  21
ATOM     21  C   UNL     1      87.285  50.182  47.457  0.00  0.00    -0.050 C 
BRANCH  21  22
ATOM     22  C   UNL     1      87.990  49.921  46.121  0.00  0.00    -0.035 C 
BRANCH  22  24
ATOM     23  C   UNL     1      87.844  50.841  43.772  0.00  0.00    -0.088 C 
ATOM     24  C   UNL     1      87.563  50.930  45.085  0.00  0.00    -0.088 C 
BRANCH  23  25
ATOM     25  C   UNL     1      88.702  49.770  43.151  0.00  0.00    -0.035 C 
BRANCH  25  27
ATOM     26  C   UNL     1      89.124  51.778  41.685  0.00  0.00    -0.065 C 
ATOM     27  C   UNL     1      89.539  50.345  42.003  0.00  0.00    -0.052 C 
ENDBRANCH  25  27
ENDBRANCH  23  25
ENDBRANCH  22  24
ENDBRANCH  21  22
ENDBRANCH  20  21
ENDBRANCH  19  20
ENDBRANCH  18  19
ENDBRANCH  17  18
ENDBRANCH  16  17
ENDBRANCH  15  16
ENDBRANCH   1  15
TORSDOF 17
ENDMDL
MODEL 6
REMARK VINA RESULT:    -6.650      2.362      5.093
REMARK INTER + INTRA:         -15.572
REMARK INTER:                 -12.116
REMARK INTRA:                  -3.455
REMARK UNBOUND:                -2.702
REMARK  Name = 
REMARK  18 active torsions:
REMARK  status: ('A' for Active; 'I' for Inactive)
REMARK    1  A    between atoms: C_1  and  C_2
REMARK    2  A    between atoms: C_2  and  C_3
REMARK    3  A    between atoms: C_3  and  C_4
REMARK    4  A    between atoms: C_5  and  C_6
REMARK    5  A    between atoms: C_6  and  C_7
REMARK    6  A    between atoms: C_7  and  C_8
REMARK    7  A    between atoms: C_8  and  C_9
REMARK    8  A    between atoms: C_9  and  C_10
REMARK    9  A    between atoms: C_10  and  C_11
REMARK   10  A    between atoms: C_11  and  C_12
REMARK   11  A    between atoms: C_12  and  C_13
REMARK   12  A    between atoms: C_13  and  C_14
REMARK   13  A    between atoms: C_14  and  C_15
REMARK   14  A    between atoms: C_15  and  C_16
REMARK   15  A    between atoms: C_16  and  C_17
REMARK   16  A    between atoms: C_17  and  C_18
REMARK   17  A    between atoms: C_22  and  O_25
REMARK   18  A    between atoms: C_23  and  O_24
REMARK                            x       y       z     vdW  Elec       q    Type
REMARK                         _______ _______ _______ _____ _____    ______ ____
ROOT
ATOM      1  C   UNL     1      85.416  49.369  44.172  0.00  0.00    -0.053 C 
ENDROOT
BRANCH   1   2
ATOM      2  C   UNL     1      84.075  50.054  44.486  0.00  0.00    -0.053 C 
BRANCH   2   3
ATOM      3  C   UNL     1      83.631  51.016  43.373  0.00  0.00    -0.049 C 
BRANCH   3   4
ATOM      4  C   UNL     1      84.773  51.914  42.874  0.00  0.00    -0.024 C 
BRANCH   4   5
ATOM      5  C   UNL     1      84.246  52.968  41.927  0.00  0.00    -0.002 A 
ATOM      6  C   UNL     1      82.933  53.437  42.104  0.00  0.00    -0.055 A 
ATOM      7  C   UNL     1      82.408  54.417  41.263  0.00  0.00    -0.058 A 
ATOM      8  C   UNL     1      83.187  54.952  40.239  0.00  0.00    -0.017 A 
ATOM      9  C   UNL     1      84.502  54.517  40.053  0.00  0.00    +0.158 A 
ATOM     10  C   UNL     1      85.047  53.529  40.898  0.00  0.00    +0.161 A 
BRANCH   9  11
ATOM     11  O   UNL     1      85.257  55.079  39.024  0.00  0.00    -0.503 OA
ATOM     12  H   UNL     1      86.160  54.847  38.924  0.00  0.00    +0.000 HD
ENDBRANCH   9  11
BRANCH  10  13
ATOM     13  O   UNL     1      86.373  53.135  40.694  0.00  0.00    -0.503 OA
ATOM     14  H   UNL     1      87.070  53.615  41.095  0.00  0.00    +0.000 HD
ENDBRANCH  10  13
ENDBRANCH   4   5
ENDBRANCH   3   4
ENDBRANCH   2   3
ENDBRANCH   1   2
BRANCH   1  15
ATOM     15  C   UNL     1      86.290  49.155  45.422  0.00  0.00    -0.053 C 
BRANCH  15  16
ATOM     16  C   UNL     1      87.528  50.065  45.527  0.00  0.00    -0.053 C 
BRANCH  16  17
ATOM     17  C   UNL     1      87.678  50.719  46.910  0.00  0.00    -0.053 C 
BRANCH  17  18
ATOM     18  C   UNL     1      86.447  51.551  47.319  0.00  0.00    -0.053 C 
BRANCH  18  19
ATOM     19  C   UNL     1      86.155  52.773  46.430  0.00  0.00    -0.053 C 
BRANCH  19  20
ATOM     20  C   UNL     1      84.666  53.151  46.397  0.00  0.00    -0.053 C 
BRANCH  20  21
ATOM     21  C   UNL     1      84.311  54.089  47.557  0.00  0.00    -0.050 C 
BRANCH  21  22
ATOM     22  C   UNL     1      85.380  55.173  47.735  0.00  0.00    -0.035 C 
BRANCH  22  24
ATOM     23  C   UNL     1      85.420  56.873  45.865  0.00  0.00    -0.088 C 
ATOM     24  C   UNL     1      84.960  56.454  47.059  0.00  0.00    -0.088 C 
BRANCH  23  25
ATOM     25  C   UNL     1      86.490  56.174  45.067  0.00  0.00    -0.035 C 
BRANCH  25  27
ATOM     26  C   UNL     1      84.653  56.495  43.368  0.00  0.00    -0.065 C 
ATOM     27  C   UNL     1      85.961  55.775  43.685  0.00  0.00    -0.052 C 
ENDBRANCH  25  27
ENDBRANCH  23  25
ENDBRANCH  22  24
ENDBRANCH  21  22
ENDBRANCH  20  21
ENDBRANCH  19  20
ENDBRANCH  18  19
ENDBRANCH  17  18
ENDBRANCH  16  17
ENDBRANCH  15  16
ENDBRANCH   1  15
TORSDOF 17
ENDMDL
MODEL 7
REMARK VINA RESULT:    -6.600      2.116      3.694
REMARK INTER + INTRA:         -15.474
REMARK INTER:                 -12.252
REMARK INTRA:                  -3.222
REMARK UNBOUND:                -2.702
REMARK  Name = 
REMARK  18 active torsions:
REMARK  status: ('A' for Active; 'I' for Inactive)
REMARK    1  A    between atoms: C_1  and  C_2
REMARK    2  A    between atoms: C_2  and  C_3
REMARK    3  A    between atoms: C_3  and  C_4
REMARK    4  A    between atoms: C_5  and  C_6
REMARK    5  A    between atoms: C_6  and  C_7
REMARK    6  A    between atoms: C_7  and  C_8
REMARK    7  A    between atoms: C_8  and  C_9
REMARK    8  A    between atoms: C_9  and  C_10
REMARK    9  A    between atoms: C_10  and  C_11
REMARK   10  A    between atoms: C_11  and  C_12
REMARK   11  A    between atoms: C_12  and  C_13
REMARK   12  A    between atoms: C_13  and  C_14
REMARK   13  A    between atoms: C_14  and  C_15
REMARK   14  A    between atoms: C_15  and  C_16
REMARK   15  A    between atoms: C_16  and  C_17
REMARK   16  A    between atoms: C_17  and  C_18
REMARK   17  A    between atoms: C_22  and  O_25
REMARK   18  A    between atoms: C_23  and  O_24
REMARK                            x       y       z     vdW  Elec       q    Type
REMARK                         _______ _______ _______ _____ _____    ______ ____
ROOT
ATOM      1  C   UNL     1      87.359  51.972  46.438  0.00  0.00    -0.053 C 
ENDROOT
BRANCH   1   2
ATOM      2  C   UNL     1      85.922  52.122  46.966  0.00  0.00    -0.053 C 
BRANCH   2   3
ATOM      3  C   UNL     1      85.469  53.590  47.029  0.00  0.00    -0.049 C 
BRANCH   3   4
ATOM      4  C   UNL     1      86.496  54.554  46.415  0.00  0.00    -0.024 C 
BRANCH   4   5
ATOM      5  C   UNL     1      85.846  55.873  46.067  0.00  0.00    -0.002 A 
ATOM      6  C   UNL     1      84.785  56.333  46.866  0.00  0.00    -0.055 A 
ATOM      7  C   UNL     1      84.162  57.550  46.591  0.00  0.00    -0.058 A 
ATOM      8  C   UNL     1      84.594  58.331  45.520  0.00  0.00    -0.017 A 
ATOM      9  C   UNL     1      85.658  57.906  44.722  0.00  0.00    +0.158 A 
ATOM     10  C   UNL     1      86.299  56.680  44.991  0.00  0.00    +0.161 A 
BRANCH   9  11
ATOM     11  O   UNL     1      86.071  58.717  43.665  0.00  0.00    -0.503 OA
ATOM     12  H   UNL     1      86.536  58.344  42.942  0.00  0.00    +0.000 HD
ENDBRANCH   9  11
BRANCH  10  13
ATOM     13  O   UNL     1      87.375  56.299  44.183  0.00  0.00    -0.503 OA
ATOM     14  H   UNL     1      87.688  56.878  43.517  0.00  0.00    +0.000 HD
ENDBRANCH  10  13
ENDBRANCH   4   5
ENDBRANCH   3   4
ENDBRANCH   2   3
ENDBRANCH   1   2
BRANCH   1  15
ATOM     15  C   UNL     1      87.619  50.603  45.783  0.00  0.00    -0.053 C 
BRANCH  15  16
ATOM     16  C   UNL     1      86.425  49.631  45.785  0.00  0.00    -0.053 C 
BRANCH  16  17
ATOM     17  C   UNL     1      85.706  49.557  44.428  0.00  0.00    -0.053 C 
BRANCH  17  18
ATOM     18  C   UNL     1      84.174  49.653  44.553  0.00  0.00    -0.053 C 
BRANCH  18  19
ATOM     19  C   UNL     1      83.529  50.850  43.832  0.00  0.00    -0.053 C 
BRANCH  19  20
ATOM     20  C   UNL     1      84.498  51.577  42.887  0.00  0.00    -0.053 C 
BRANCH  20  21
ATOM     21  C   UNL     1      84.780  53.002  43.377  0.00  0.00    -0.050 C 
BRANCH  21  22
ATOM     22  C   UNL     1      85.981  53.608  42.643  0.00  0.00    -0.035 C 
BRANCH  22  24
ATOM     23  C   UNL     1      88.155  52.366  42.299  0.00  0.00    -0.088 C 
ATOM     24  C   UNL     1      87.267  52.973  43.108  0.00  0.00    -0.088 C 
BRANCH  23  25
ATOM     25  C   UNL     1      87.957  52.150  40.821  0.00  0.00    -0.035 C 
BRANCH  25  27
ATOM     26  C   UNL     1      90.197  53.213  40.355  0.00  0.00    -0.065 C 
ATOM     27  C   UNL     1      89.307  51.998  40.111  0.00  0.00    -0.052 C 
ENDBRANCH  25  27
ENDBRANCH  23  25
ENDBRANCH  22  24
ENDBRANCH  21  22
ENDBRANCH  20  21
ENDBRANCH  19  20
ENDBRANCH  18  19
ENDBRANCH  17  18
ENDBRANCH  16  17
ENDBRANCH  15  16
ENDBRANCH   1  15
TORSDOF 17
ENDMDL
MODEL 8
REMARK VINA RESULT:    -6.462      2.827      6.432
REMARK INTER + INTRA:         -15.207
REMARK INTER:                 -11.976
REMARK INTRA:                  -3.231
REMARK UNBOUND:                -2.702
REMARK  Name = 
REMARK  18 active torsions:
REMARK  status: ('A' for Active; 'I' for Inactive)
REMARK    1  A    between atoms: C_1  and  C_2
REMARK    2  A    between atoms: C_2  and  C_3
REMARK    3  A    between atoms: C_3  and  C_4
REMARK    4  A    between atoms: C_5  and  C_6
REMARK    5  A    between atoms: C_6  and  C_7
REMARK    6  A    between atoms: C_7  and  C_8
REMARK    7  A    between atoms: C_8  and  C_9
REMARK    8  A    between atoms: C_9  and  C_10
REMARK    9  A    between atoms: C_10  and  C_11
REMARK   10  A    between atoms: C_11  and  C_12
REMARK   11  A    between atoms: C_12  and  C_13
REMARK   12  A    between atoms: C_13  and  C_14
REMARK   13  A    between atoms: C_14  and  C_15
REMARK   14  A    between atoms: C_15  and  C_16
REMARK   15  A    between atoms: C_16  and  C_17
REMARK   16  A    between atoms: C_17  and  C_18
REMARK   17  A    between atoms: C_22  and  O_25
REMARK   18  A    between atoms: C_23  and  O_24
REMARK                            x       y       z     vdW  Elec       q    Type
REMARK                         _______ _______ _______ _____ _____    ______ ____
ROOT
ATOM      1  C   UNL     1      84.219  54.731  43.605  0.00  0.00    -0.053 C 
ENDROOT
BRANCH   1   2
ATOM      2  C   UNL     1      83.570  54.556  42.222  0.00  0.00    -0.053 C 
BRANCH   2   3
ATOM      3  C   UNL     1      84.030  53.271  41.515  0.00  0.00    -0.049 C 
BRANCH   3   4
ATOM      4  C   UNL     1      85.273  53.488  40.639  0.00  0.00    -0.024 C 
BRANCH   4   5
ATOM      5  C   UNL     1      86.422  52.633  41.123  0.00  0.00    -0.002 A 
ATOM      6  C   UNL     1      86.284  51.948  42.342  0.00  0.00    -0.055 A 
ATOM      7  C   UNL     1      87.312  51.138  42.824  0.00  0.00    -0.058 A 
ATOM      8  C   UNL     1      88.489  50.991  42.091  0.00  0.00    -0.017 A 
ATOM      9  C   UNL     1      88.643  51.646  40.867  0.00  0.00    +0.158 A 
ATOM     10  C   UNL     1      87.611  52.465  40.367  0.00  0.00    +0.161 A 
BRANCH   9  11
ATOM     11  O   UNL     1      89.830  51.469  40.156  0.00  0.00    -0.503 OA
ATOM     12  H   UNL     1      89.806  51.134  39.280  0.00  0.00    +0.000 HD
ENDBRANCH   9  11
BRANCH  10  13
ATOM     13  O   UNL     1      87.795  53.087  39.128  0.00  0.00    -0.503 OA
ATOM     14  H   UNL     1      88.304  52.665  38.464  0.00  0.00    +0.000 HD
ENDBRANCH  10  13
ENDBRANCH   4   5
ENDBRANCH   3   4
ENDBRANCH   2   3
ENDBRANCH   1   2
BRANCH   1  15
ATOM     15  C   UNL     1      85.548  55.508  43.553  0.00  0.00    -0.053 C 
BRANCH  15  16
ATOM     16  C   UNL     1      85.802  56.462  44.734  0.00  0.00    -0.053 C 
BRANCH  16  17
ATOM     17  C   UNL     1      86.616  55.814  45.867  0.00  0.00    -0.053 C 
BRANCH  17  18
ATOM     18  C   UNL     1      86.059  56.135  47.267  0.00  0.00    -0.053 C 
BRANCH  18  19
ATOM     19  C   UNL     1      84.533  56.321  47.341  0.00  0.00    -0.053 C 
BRANCH  19  20
ATOM     20  C   UNL     1      83.791  55.039  47.750  0.00  0.00    -0.053 C 
BRANCH  20  21
ATOM     21  C   UNL     1      84.594  54.245  48.786  0.00  0.00    -0.050 C 
BRANCH  21  22
ATOM     22  C   UNL     1      84.831  52.806  48.313  0.00  0.00    -0.035 C 
BRANCH  22  24
ATOM     23  C   UNL     1      85.707  52.301  45.997  0.00  0.00    -0.088 C 
ATOM     24  C   UNL     1      84.718  52.712  46.813  0.00  0.00    -0.088 C 
BRANCH  23  25
ATOM     25  C   UNL     1      87.104  51.961  46.450  0.00  0.00    -0.035 C 
BRANCH  25  27
ATOM     26  C   UNL     1      88.103  50.211  47.967  0.00  0.00    -0.065 C 
ATOM     27  C   UNL     1      87.226  50.461  46.743  0.00  0.00    -0.052 C 
ENDBRANCH  25  27
ENDBRANCH  23  25
ENDBRANCH  22  24
ENDBRANCH  21  22
ENDBRANCH  20  21
ENDBRANCH  19  20
ENDBRANCH  18  19
ENDBRANCH  17  18
ENDBRANCH  16  17
ENDBRANCH  15  16
ENDBRANCH   1  15
TORSDOF 17
ENDMDL
MODEL 9
REMARK VINA RESULT:    -6.388      2.758      5.374
REMARK INTER + INTRA:         -15.065
REMARK INTER:                 -12.364
REMARK INTRA:                  -2.702
REMARK UNBOUND:                -2.702
REMARK  Name = 
REMARK  18 active torsions:
REMARK  status: ('A' for Active; 'I' for Inactive)
REMARK    1  A    between atoms: C_1  and  C_2
REMARK    2  A    between atoms: C_2  and  C_3
REMARK    3  A    between atoms: C_3  and  C_4
REMARK    4  A    between atoms: C_5  and  C_6
REMARK    5  A    between atoms: C_6  and  C_7
REMARK    6  A    between atoms: C_7  and  C_8
REMARK    7  A    between atoms: C_8  and  C_9
REMARK    8  A    between atoms: C_9  and  C_10
REMARK    9  A    between atoms: C_10  and  C_11
REMARK   10  A    between atoms: C_11  and  C_12
REMARK   11  A    between atoms: C_12  and  C_13
REMARK   12  A    between atoms: C_13  and  C_14
REMARK   13  A    between atoms: C_14  and  C_15
REMARK   14  A    between atoms: C_15  and  C_16
REMARK   15  A    between atoms: C_16  and  C_17
REMARK   16  A    between atoms: C_17  and  C_18
REMARK   17  A    between atoms: C_22  and  O_25
REMARK   18  A    between atoms: C_23  and  O_24
REMARK                            x       y       z     vdW  Elec       q    Type
REMARK                         _______ _______ _______ _____ _____    ______ ____
ROOT
ATOM      1  C   UNL     1      86.297  52.373  45.739  0.00  0.00    -0.053 C 
ENDROOT
BRANCH   1   2
ATOM      2  C   UNL     1      85.119  51.888  44.877  0.00  0.00    -0.053 C 
BRANCH   2   3
ATOM      3  C   UNL     1      85.582  51.138  43.618  0.00  0.00    -0.049 C 
BRANCH   3   4
ATOM      4  C   UNL     1      85.552  52.017  42.358  0.00  0.00    -0.024 C 
BRANCH   4   5
ATOM      5  C   UNL     1      86.905  52.030  41.685  0.00  0.00    -0.002 A 
ATOM      6  C   UNL     1      87.954  51.297  42.266  0.00  0.00    -0.055 A 
ATOM      7  C   UNL     1      89.216  51.268  41.675  0.00  0.00    -0.058 A 
ATOM      8  C   UNL     1      89.449  51.964  40.490  0.00  0.00    -0.017 A 
ATOM      9  C   UNL     1      88.419  52.685  39.881  0.00  0.00    +0.158 A 
ATOM     10  C   UNL     1      87.137  52.719  40.466  0.00  0.00    +0.161 A 
BRANCH   9  11
ATOM     11  O   UNL     1      88.685  53.362  38.691  0.00  0.00    -0.503 OA
ATOM     12  H   UNL     1      88.013  53.870  38.281  0.00  0.00    +0.000 HD
ENDBRANCH   9  11
BRANCH  10  13
ATOM     13  O   UNL     1      86.127  53.434  39.816  0.00  0.00    -0.503 OA
ATOM     14  H   UNL     1      85.265  53.073  39.752  0.00  0.00    +0.000 HD
ENDBRANCH  10  13
ENDBRANCH   4   5
ENDBRANCH   3   4
ENDBRANCH   2   3
ENDBRANCH   1   2
BRANCH   1  15
ATOM     15  C   UNL     1      86.597  51.441  46.928  0.00  0.00    -0.053 C 
BRANCH  15  16
ATOM     16  C   UNL     1      86.405  52.065  48.322  0.00  0.00    -0.053 C 
BRANCH  16  17
ATOM     17  C   UNL     1      84.975  52.577  48.561  0.00  0.00    -0.053 C 
BRANCH  17  18
ATOM     18  C   UNL     1      84.906  54.103  48.752  0.00  0.00    -0.053 C 
BRANCH  18  19
ATOM     19  C   UNL     1      84.010  54.852  47.750  0.00  0.00    -0.053 C 
BRANCH  19  20
ATOM     20  C   UNL     1      84.652  56.141  47.215  0.00  0.00    -0.053 C 
BRANCH  20  21
ATOM     21  C   UNL     1      86.119  55.909  46.835  0.00  0.00    -0.050 C 
BRANCH  21  22
ATOM     22  C   UNL     1      86.324  56.047  45.322  0.00  0.00    -0.035 C 
BRANCH  22  24
ATOM     23  C   UNL     1      84.646  56.826  43.601  0.00  0.00    -0.088 C 
ATOM     24  C   UNL     1      85.339  57.027  44.737  0.00  0.00    -0.088 C 
BRANCH  23  25
ATOM     25  C   UNL     1      84.815  55.634  42.695  0.00  0.00    -0.035 C 
BRANCH  25  27
ATOM     26  C   UNL     1      83.164  54.942  40.918  0.00  0.00    -0.065 C 
ATOM     27  C   UNL     1      83.462  54.971  42.414  0.00  0.00    -0.052 C 
ENDBRANCH  25  27
ENDBRANCH  23  25
ENDBRANCH  22  24
ENDBRANCH  21  22
ENDBRANCH  20  21
ENDBRANCH  19  20
ENDBRANCH  18  19
ENDBRANCH  17  18
ENDBRANCH  16  17
ENDBRANCH  15  16
ENDBRANCH   1  15
TORSDOF 17
ENDMDL
