MODEL 1
REMARK VINA RESULT:    -5.841      0.000      0.000
REMARK INTER + INTRA:          -6.368
REMARK INTER:                  -6.353
REMARK INTRA:                  -0.014
REMARK UNBOUND:                -0.015
REMARK  Name = 
REMARK  2 active torsions:
REMARK  status: ('A' for Active; 'I' for Inactive)
REMARK    1  A    between atoms: C_2  and  C_3
REMARK    2  A    between atoms: C_7  and  O_9
REMARK                            x       y       z     vdW  Elec       q    Type
REMARK                         _______ _______ _______ _____ _____    ______ ____
ROOT
ATOM      1  C   UNL     1      83.120  50.595  54.698  0.00  0.00    +0.018 A 
ATOM      2  C   UNL     1      82.892  51.183  55.954  0.00  0.00    -0.051 A 
ATOM      3  C   UNL     1      83.741  50.901  57.028  0.00  0.00    -0.058 A 
ATOM      4  C   UNL     1      84.824  50.033  56.858  0.00  0.00    -0.020 A 
ATOM      5  C   UNL     1      85.060  49.441  55.610  0.00  0.00    +0.118 A 
ATOM      6  C   UNL     1      84.209  49.723  54.534  0.00  0.00    -0.010 A 
ENDROOT
BRANCH   1   8
ATOM      7  O   UNL     1      82.702  51.304  52.461  0.00  0.00    -0.296 OA
ATOM      8  C   UNL     1      82.236  50.879  53.552  0.00  0.00    +0.150 C 
ENDBRANCH   1   8
BRANCH   5   9
ATOM      9  O   UNL     1      86.134  48.574  55.429  0.00  0.00    -0.507 OA
ATOM     10  H   UNL     1      86.938  48.721  55.885  0.00  0.00    +0.000 HD
ENDBRANCH   5   9
TORSDOF 2
ENDMDL
MODEL 2
REMARK VINA RESULT:    -5.677      0.800      3.437
REMARK INTER + INTRA:          -6.190
REMARK INTER:                  -6.176
REMARK INTRA:                  -0.014
REMARK UNBOUND:                -0.015
REMARK  Name = 
REMARK  2 active torsions:
REMARK  status: ('A' for Active; 'I' for Inactive)
REMARK    1  A    between atoms: C_2  and  C_3
REMARK    2  A    between atoms: C_7  and  O_9
REMARK                            x       y       z     vdW  Elec       q    Type
REMARK                         _______ _______ _______ _____ _____    ______ ____
ROOT
ATOM      1  C   UNL     1      84.796  49.493  55.410  0.00  0.00    +0.018 A 
ATOM      2  C   UNL     1      84.134  50.021  56.532  0.00  0.00    -0.051 A 
ATOM      3  C   UNL     1      83.044  50.880  56.367  0.00  0.00    -0.058 A 
ATOM      4  C   UNL     1      82.605  51.219  55.084  0.00  0.00    -0.020 A 
ATOM      5  C   UNL     1      83.259  50.699  53.958  0.00  0.00    +0.118 A 
ATOM      6  C   UNL     1      84.351  49.839  54.123  0.00  0.00    -0.010 A 
ENDROOT
BRANCH   1   8
ATOM      7  O   UNL     1      85.892  47.391  55.162  0.00  0.00    -0.296 OA
ATOM      8  C   UNL     1      85.949  48.585  55.561  0.00  0.00    +0.150 C 
ENDBRANCH   1   8
BRANCH   5   9
ATOM      9  O   UNL     1      82.831  51.030  52.675  0.00  0.00    -0.507 OA
ATOM     10  H   UNL     1      81.916  51.105  52.490  0.00  0.00    +0.000 HD
ENDBRANCH   5   9
TORSDOF 2
ENDMDL
MODEL 3
REMARK VINA RESULT:    -5.280      1.752      3.765
REMARK INTER + INTRA:          -5.758
REMARK INTER:                  -5.744
REMARK INTRA:                  -0.014
REMARK UNBOUND:                -0.015
REMARK  Name = 
REMARK  2 active torsions:
REMARK  status: ('A' for Active; 'I' for Inactive)
REMARK    1  A    between atoms: C_2  and  C_3
REMARK    2  A    between atoms: C_7  and  O_9
REMARK                            x       y       z     vdW  Elec       q    Type
REMARK                         _______ _______ _______ _____ _____    ______ ____
ROOT
ATOM      1  C   UNL     1      84.787  49.534  55.283  0.00  0.00    +0.018 A 
ATOM      2  C   UNL     1      84.411  49.783  53.952  0.00  0.00    -0.051 A 
ATOM      3  C   UNL     1      83.319  50.609  53.671  0.00  0.00    -0.058 A 
ATOM      4  C   UNL     1      82.594  51.193  54.714  0.00  0.00    -0.020 A 
ATOM      5  C   UNL     1      82.960  50.951  56.045  0.00  0.00    +0.118 A 
ATOM      6  C   UNL     1      84.054  50.123  56.327  0.00  0.00    -0.010 A 
ENDROOT
BRANCH   1   8
ATOM      7  O   UNL     1      85.978  47.471  55.205  0.00  0.00    -0.296 OA
ATOM      8  C   UNL     1      85.936  48.666  55.602  0.00  0.00    +0.150 C 
ENDBRANCH   1   8
BRANCH   5   9
ATOM      9  O   UNL     1      82.245  51.526  57.092  0.00  0.00    -0.507 OA
ATOM     10  H   UNL     1      81.325  51.680  57.004  0.00  0.00    +0.000 HD
ENDBRANCH   5   9
TORSDOF 2
ENDMDL
MODEL 4
REMARK VINA RESULT:    -4.818      9.724     11.254
REMARK INTER + INTRA:          -5.255
REMARK INTER:                  -5.237
REMARK INTRA:                  -0.018
REMARK UNBOUND:                -0.015
REMARK  Name = 
REMARK  2 active torsions:
REMARK  status: ('A' for Active; 'I' for Inactive)
REMARK    1  A    between atoms: C_2  and  C_3
REMARK    2  A    between atoms: C_7  and  O_9
REMARK                            x       y       z     vdW  Elec       q    Type
REMARK                         _______ _______ _______ _____ _____    ______ ____
ROOT
ATOM      1  C   UNL     1      85.347  56.958  45.475  0.00  0.00    +0.018 A 
ATOM      2  C   UNL     1      86.437  56.083  45.315  0.00  0.00    -0.051 A 
ATOM      3  C   UNL     1      86.620  55.019  46.203  0.00  0.00    -0.058 A 
ATOM      4  C   UNL     1      85.721  54.817  47.254  0.00  0.00    -0.020 A 
ATOM      5  C   UNL     1      84.632  55.683  47.422  0.00  0.00    +0.118 A 
ATOM      6  C   UNL     1      84.448  56.750  46.534  0.00  0.00    -0.010 A 
ENDROOT
BRANCH   1   8
ATOM      7  O   UNL     1      85.929  58.307  43.598  0.00  0.00    -0.296 OA
ATOM      8  C   UNL     1      85.134  58.087  44.550  0.00  0.00    +0.150 C 
ENDBRANCH   1   8
BRANCH   5   9
ATOM      9  O   UNL     1      83.730  55.493  48.465  0.00  0.00    -0.507 OA
ATOM     10  H   UNL     1      83.442  56.223  48.976  0.00  0.00    +0.000 HD
ENDBRANCH   5   9
TORSDOF 2
ENDMDL
MODEL 5
REMARK VINA RESULT:    -4.740     10.067     11.927
REMARK INTER + INTRA:          -5.171
REMARK INTER:                  -5.154
REMARK INTRA:                  -0.017
REMARK UNBOUND:                -0.015
REMARK  Name = 
REMARK  2 active torsions:
REMARK  status: ('A' for Active; 'I' for Inactive)
REMARK    1  A    between atoms: C_2  and  C_3
REMARK    2  A    between atoms: C_7  and  O_9
REMARK                            x       y       z     vdW  Elec       q    Type
REMARK                         _______ _______ _______ _____ _____    ______ ____
ROOT
ATOM      1  C   UNL     1      85.662  55.868  46.455  0.00  0.00    +0.018 A 
ATOM      2  C   UNL     1      86.578  55.508  45.451  0.00  0.00    -0.051 A 
ATOM      3  C   UNL     1      86.747  56.322  44.327  0.00  0.00    -0.058 A 
ATOM      4  C   UNL     1      86.004  57.499  44.194  0.00  0.00    -0.020 A 
ATOM      5  C   UNL     1      85.087  57.866  45.189  0.00  0.00    +0.118 A 
ATOM      6  C   UNL     1      84.918  57.052  46.315  0.00  0.00    -0.010 A 
ENDROOT
BRANCH   1   8
ATOM      7  O   UNL     1      84.417  55.103  48.337  0.00  0.00    -0.296 OA
ATOM      8  C   UNL     1      85.468  55.025  47.649  0.00  0.00    +0.150 C 
ENDBRANCH   1   8
BRANCH   5   9
ATOM      9  O   UNL     1      84.341  59.036  45.067  0.00  0.00    -0.507 OA
ATOM     10  H   UNL     1      84.152  59.385  44.219  0.00  0.00    +0.000 HD
ENDBRANCH   5   9
TORSDOF 2
ENDMDL
MODEL 6
REMARK VINA RESULT:    -4.644      9.727     11.273
REMARK INTER + INTRA:          -5.066
REMARK INTER:                  -5.053
REMARK INTRA:                  -0.013
REMARK UNBOUND:                -0.015
REMARK  Name = 
REMARK  2 active torsions:
REMARK  status: ('A' for Active; 'I' for Inactive)
REMARK    1  A    between atoms: C_2  and  C_3
REMARK    2  A    between atoms: C_7  and  O_9
REMARK                            x       y       z     vdW  Elec       q    Type
REMARK                         _______ _______ _______ _____ _____    ______ ____
ROOT
ATOM      1  C   UNL     1      86.110  55.845  45.338  0.00  0.00    +0.018 A 
ATOM      2  C   UNL     1      86.516  54.990  46.378  0.00  0.00    -0.051 A 
ATOM      3  C   UNL     1      85.747  54.882  47.540  0.00  0.00    -0.058 A 
ATOM      4  C   UNL     1      84.570  55.623  47.676  0.00  0.00    -0.020 A 
ATOM      5  C   UNL     1      84.157  56.479  46.645  0.00  0.00    +0.118 A 
ATOM      6  C   UNL     1      84.926  56.588  45.480  0.00  0.00    -0.010 A 
ENDROOT
BRANCH   1   8
ATOM      7  O   UNL     1      86.824  55.116  43.184  0.00  0.00    -0.296 OA
ATOM      8  C   UNL     1      86.906  55.974  44.102  0.00  0.00    +0.150 C 
ENDBRANCH   1   8
BRANCH   5   9
ATOM      9  O   UNL     1      82.986  57.223  46.769  0.00  0.00    -0.507 OA
ATOM     10  H   UNL     1      82.477  57.169  47.553  0.00  0.00    +0.000 HD
ENDBRANCH   5   9
TORSDOF 2
ENDMDL
MODEL 7
REMARK VINA RESULT:    -4.587     11.652     12.526
REMARK INTER + INTRA:          -5.004
REMARK INTER:                  -4.987
REMARK INTRA:                  -0.017
REMARK UNBOUND:                -0.015
REMARK  Name = 
REMARK  2 active torsions:
REMARK  status: ('A' for Active; 'I' for Inactive)
REMARK    1  A    between atoms: C_2  and  C_3
REMARK    2  A    between atoms: C_7  and  O_9
REMARK                            x       y       z     vdW  Elec       q    Type
REMARK                         _______ _______ _______ _____ _____    ______ ____
ROOT
ATOM      1  C   UNL     1      80.843  47.732  44.145  0.00  0.00    +0.018 A 
ATOM      2  C   UNL     1      82.060  48.065  43.525  0.00  0.00    -0.051 A 
ATOM      3  C   UNL     1      82.189  49.269  42.827  0.00  0.00    -0.058 A 
ATOM      4  C   UNL     1      81.107  50.150  42.741  0.00  0.00    -0.020 A 
ATOM      5  C   UNL     1      79.889  49.828  43.354  0.00  0.00    +0.118 A 
ATOM      6  C   UNL     1      79.759  48.622  44.054  0.00  0.00    -0.010 A 
ENDROOT
BRANCH   1   8
ATOM      7  O   UNL     1      79.544  45.999  45.139  0.00  0.00    -0.296 OA
ATOM      8  C   UNL     1      80.685  46.468  44.887  0.00  0.00    +0.150 C 
ENDBRANCH   1   8
BRANCH   5   9
ATOM      9  O   UNL     1      78.804  50.697  43.275  0.00  0.00    -0.507 OA
ATOM     10  H   UNL     1      78.148  50.692  43.944  0.00  0.00    +0.000 HD
ENDBRANCH   5   9
TORSDOF 2
ENDMDL
MODEL 8
REMARK VINA RESULT:    -4.500     12.534     13.705
REMARK INTER + INTRA:          -4.910
REMARK INTER:                  -4.895
REMARK INTRA:                  -0.015
REMARK UNBOUND:                -0.015
REMARK  Name = 
REMARK  2 active torsions:
REMARK  status: ('A' for Active; 'I' for Inactive)
REMARK    1  A    between atoms: C_2  and  C_3
REMARK    2  A    between atoms: C_7  and  O_9
REMARK                            x       y       z     vdW  Elec       q    Type
REMARK                         _______ _______ _______ _____ _____    ______ ____
ROOT
ATOM      1  C   UNL     1      87.588  46.079  42.411  0.00  0.00    +0.018 A 
ATOM      2  C   UNL     1      87.985  44.732  42.347  0.00  0.00    -0.051 A 
ATOM      3  C   UNL     1      87.286  43.758  43.067  0.00  0.00    -0.058 A 
ATOM      4  C   UNL     1      86.188  44.118  43.853  0.00  0.00    -0.020 A 
ATOM      5  C   UNL     1      85.785  45.458  43.923  0.00  0.00    +0.118 A 
ATOM      6  C   UNL     1      86.484  46.434  43.204  0.00  0.00    -0.010 A 
ENDROOT
BRANCH   1   8
ATOM      7  O   UNL     1      87.689  47.987  40.986  0.00  0.00    -0.296 OA
ATOM      8  C   UNL     1      88.311  47.123  41.660  0.00  0.00    +0.150 C 
ENDBRANCH   1   8
BRANCH   5   9
ATOM      9  O   UNL     1      84.693  45.829  44.704  0.00  0.00    -0.507 OA
ATOM     10  H   UNL     1      84.614  46.710  45.011  0.00  0.00    +0.000 HD
ENDBRANCH   5   9
TORSDOF 2
ENDMDL
MODEL 9
REMARK VINA RESULT:    -4.478     12.142     12.565
REMARK INTER + INTRA:          -4.886
REMARK INTER:                  -4.872
REMARK INTRA:                  -0.014
REMARK UNBOUND:                -0.015
REMARK  Name = 
REMARK  2 active torsions:
REMARK  status: ('A' for Active; 'I' for Inactive)
REMARK    1  A    between atoms: C_2  and  C_3
REMARK    2  A    between atoms: C_7  and  O_9
REMARK                            x       y       z     vdW  Elec       q    Type
REMARK                         _______ _______ _______ _____ _____    ______ ____
ROOT
ATOM      1  C   UNL     1      82.056  46.855  43.606  0.00  0.00    +0.018 A 
ATOM      2  C   UNL     1      82.190  48.207  43.244  0.00  0.00    -0.051 A 
ATOM      3  C   UNL     1      81.075  49.050  43.244  0.00  0.00    -0.058 A 
ATOM      4  C   UNL     1      79.819  48.553  43.604  0.00  0.00    -0.020 A 
ATOM      5  C   UNL     1      79.674  47.207  43.966  0.00  0.00    +0.118 A 
ATOM      6  C   UNL     1      80.790  46.362  43.966  0.00  0.00    -0.010 A 
ENDROOT
BRANCH   1   8
ATOM      7  O   UNL     1      84.184  46.135  44.399  0.00  0.00    -0.296 OA
ATOM      8  C   UNL     1      83.219  45.948  43.613  0.00  0.00    +0.150 C 
ENDBRANCH   1   8
BRANCH   5   9
ATOM      9  O   UNL     1      78.428  46.701  44.326  0.00  0.00    -0.507 OA
ATOM     10  H   UNL     1      78.231  46.535  45.227  0.00  0.00    +0.000 HD
ENDBRANCH   5   9
TORSDOF 2
ENDMDL
