MODEL 1
REMARK VINA RESULT:    -5.697      0.000      0.000
REMARK INTER + INTRA:          -6.533
REMARK INTER:                  -6.692
REMARK INTRA:                   0.159
REMARK UNBOUND:                 0.163
REMARK  Name = 
REMARK  7 active torsions:
REMARK  status: ('A' for Active; 'I' for Inactive)
REMARK    1  A    between atoms: C_1  and  O_2
REMARK    2  A    between atoms: O_2  and  C_3
REMARK    3  A    between atoms: C_9  and  O_14
REMARK    4  A    between atoms: C_10  and  C_11
REMARK    5  A    between atoms: C_11  and  C_12
REMARK    6  A    between atoms: C_11  and  C_13
REMARK    7  A    between atoms: O_14  and  C_15
REMARK                            x       y       z     vdW  Elec       q    Type
REMARK                         _______ _______ _______ _____ _____    ______ ____
ROOT
ATOM      1  C   UNL     1      85.136  55.030  46.091  0.00  0.00    +0.128 C 
ATOM      2  C   UNL     1      85.006  56.308  46.493  0.00  0.00    -0.009 C 
ATOM      3  C   UNL     1      85.066  57.421  45.535  0.00  0.00    +0.022 C 
ATOM      4  C   UNL     1      84.933  58.681  45.963  0.00  0.00    -0.088 C 
ATOM      5  C   UNL     1      85.272  57.101  44.112  0.00  0.00    +0.227 C 
ATOM      6  O   UNL     1      85.328  58.032  43.265  0.00  0.00    -0.283 OA
ATOM      7  C   UNL     1      85.412  55.674  43.701  0.00  0.00    +0.174 C 
ATOM      8  C   UNL     1      85.347  54.692  44.642  0.00  0.00    +0.042 C 
ENDROOT
BRANCH   8   9
ATOM      9  C   UNL     1      85.486  53.214  44.258  0.00  0.00    -0.014 C 
ATOM     10  C   UNL     1      84.227  52.402  44.594  0.00  0.00    -0.058 C 
ATOM     11  C   UNL     1      86.751  52.574  44.847  0.00  0.00    -0.058 C 
ENDBRANCH   8   9
BRANCH   1  13
ATOM     12  C   UNL     1      85.661  53.979  48.320  0.00  0.00    +0.079 C 
ATOM     13  O   UNL     1      85.076  53.973  47.020  0.00  0.00    -0.495 OA
ENDBRANCH   1  13
BRANCH   7  14
ATOM     14  O   UNL     1      85.612  55.307  42.356  0.00  0.00    -0.491 OA
ATOM     15  C   UNL     1      84.609  55.180  41.355  0.00  0.00    +0.079 C 
ENDBRANCH   7  14
TORSDOF 3
ENDMDL
MODEL 2
REMARK VINA RESULT:    -5.578      1.296      3.624
REMARK INTER + INTRA:          -6.392
REMARK INTER:                  -6.606
REMARK INTRA:                   0.214
REMARK UNBOUND:                 0.163
REMARK  Name = 
REMARK  7 active torsions:
REMARK  status: ('A' for Active; 'I' for Inactive)
REMARK    1  A    between atoms: C_1  and  O_2
REMARK    2  A    between atoms: O_2  and  C_3
REMARK    3  A    between atoms: C_9  and  O_14
REMARK    4  A    between atoms: C_10  and  C_11
REMARK    5  A    between atoms: C_11  and  C_12
REMARK    6  A    between atoms: C_11  and  C_13
REMARK    7  A    between atoms: O_14  and  C_15
REMARK                            x       y       z     vdW  Elec       q    Type
REMARK                         _______ _______ _______ _____ _____    ______ ____
ROOT
ATOM      1  C   UNL     1      84.562  54.329  45.159  0.00  0.00    +0.128 C 
ATOM      2  C   UNL     1      84.490  54.341  43.815  0.00  0.00    -0.009 C 
ATOM      3  C   UNL     1      84.659  55.585  43.051  0.00  0.00    +0.022 C 
ATOM      4  C   UNL     1      84.582  55.568  41.716  0.00  0.00    -0.088 C 
ATOM      5  C   UNL     1      84.912  56.829  43.799  0.00  0.00    +0.227 C 
ATOM      6  O   UNL     1      85.062  57.913  43.173  0.00  0.00    -0.283 OA
ATOM      7  C   UNL     1      84.986  56.780  45.287  0.00  0.00    +0.174 C 
ATOM      8  C   UNL     1      84.820  55.592  45.932  0.00  0.00    +0.042 C 
ENDROOT
BRANCH   8   9
ATOM      9  C   UNL     1      84.889  55.502  47.461  0.00  0.00    -0.014 C 
ATOM     10  C   UNL     1      85.870  54.421  47.939  0.00  0.00    -0.058 C 
ATOM     11  C   UNL     1      83.503  55.337  48.100  0.00  0.00    -0.058 C 
ENDBRANCH   8   9
BRANCH   1  13
ATOM     12  C   UNL     1      84.758  51.830  45.416  0.00  0.00    +0.079 C 
ATOM     13  O   UNL     1      84.398  53.130  45.878  0.00  0.00    -0.495 OA
ENDBRANCH   1  13
BRANCH   7  14
ATOM     14  O   UNL     1      85.225  57.936  46.055  0.00  0.00    -0.491 OA
ATOM     15  C   UNL     1      84.270  58.933  46.403  0.00  0.00    +0.079 C 
ENDBRANCH   7  14
TORSDOF 3
ENDMDL
MODEL 3
REMARK VINA RESULT:    -5.456      4.024      6.317
REMARK INTER + INTRA:          -6.249
REMARK INTER:                  -6.594
REMARK INTRA:                   0.345
REMARK UNBOUND:                 0.163
REMARK  Name = 
REMARK  7 active torsions:
REMARK  status: ('A' for Active; 'I' for Inactive)
REMARK    1  A    between atoms: C_1  and  O_2
REMARK    2  A    between atoms: O_2  and  C_3
REMARK    3  A    between atoms: C_9  and  O_14
REMARK    4  A    between atoms: C_10  and  C_11
REMARK    5  A    between atoms: C_11  and  C_12
REMARK    6  A    between atoms: C_11  and  C_13
REMARK    7  A    between atoms: O_14  and  C_15
REMARK                            x       y       z     vdW  Elec       q    Type
REMARK                         _______ _______ _______ _____ _____    ______ ____
ROOT
ATOM      1  C   UNL     1      89.050  49.814  43.142  0.00  0.00    +0.128 C 
ATOM      2  C   UNL     1      89.556  50.423  42.054  0.00  0.00    -0.009 C 
ATOM      3  C   UNL     1      89.125  51.772  41.663  0.00  0.00    +0.022 C 
ATOM      4  C   UNL     1      89.645  52.353  40.576  0.00  0.00    -0.088 C 
ATOM      5  C   UNL     1      88.119  52.449  42.500  0.00  0.00    +0.227 C 
ATOM      6  O   UNL     1      87.728  53.606  42.191  0.00  0.00    -0.283 OA
ATOM      7  C   UNL     1      87.579  51.746  43.699  0.00  0.00    +0.174 C 
ATOM      8  C   UNL     1      88.023  50.495  44.003  0.00  0.00    +0.042 C 
ENDROOT
BRANCH   8   9
ATOM      9  C   UNL     1      87.492  49.740  45.228  0.00  0.00    -0.014 C 
ATOM     10  C   UNL     1      86.075  49.191  45.007  0.00  0.00    -0.058 C 
ATOM     11  C   UNL     1      87.585  50.573  46.513  0.00  0.00    -0.058 C 
ENDBRANCH   8   9
BRANCH   1  13
ATOM     12  C   UNL     1      90.826  48.078  43.572  0.00  0.00    +0.079 C 
ATOM     13  O   UNL     1      89.472  48.520  43.506  0.00  0.00    -0.495 OA
ENDBRANCH   1  13
BRANCH   7  14
ATOM     14  O   UNL     1      86.615  52.341  44.535  0.00  0.00    -0.491 OA
ATOM     15  C   UNL     1      85.260  52.620  44.200  0.00  0.00    +0.079 C 
ENDBRANCH   7  14
TORSDOF 3
ENDMDL
MODEL 4
REMARK VINA RESULT:    -5.411      1.832      3.998
REMARK INTER + INTRA:          -6.196
REMARK INTER:                  -6.367
REMARK INTRA:                   0.171
REMARK UNBOUND:                 0.163
REMARK  Name = 
REMARK  7 active torsions:
REMARK  status: ('A' for Active; 'I' for Inactive)
REMARK    1  A    between atoms: C_1  and  O_2
REMARK    2  A    between atoms: O_2  and  C_3
REMARK    3  A    between atoms: C_9  and  O_14
REMARK    4  A    between atoms: C_10  and  C_11
REMARK    5  A    between atoms: C_11  and  C_12
REMARK    6  A    between atoms: C_11  and  C_13
REMARK    7  A    between atoms: O_14  and  C_15
REMARK                            x       y       z     vdW  Elec       q    Type
REMARK                         _______ _______ _______ _____ _____    ______ ____
ROOT
ATOM      1  C   UNL     1      85.812  54.997  45.944  0.00  0.00    +0.128 C 
ATOM      2  C   UNL     1      86.203  53.909  46.635  0.00  0.00    -0.009 C 
ATOM      3  C   UNL     1      86.761  52.732  45.956  0.00  0.00    +0.022 C 
ATOM      4  C   UNL     1      87.142  51.665  46.667  0.00  0.00    -0.088 C 
ATOM      5  C   UNL     1      86.884  52.771  44.488  0.00  0.00    +0.227 C 
ATOM      6  O   UNL     1      87.358  51.778  43.875  0.00  0.00    -0.283 OA
ATOM      7  C   UNL     1      86.441  53.991  43.754  0.00  0.00    +0.174 C 
ATOM      8  C   UNL     1      85.933  55.047  44.447  0.00  0.00    +0.042 C 
ENDROOT
BRANCH   8   9
ATOM      9  C   UNL     1      85.467  56.319  43.727  0.00  0.00    -0.014 C 
ATOM     10  C   UNL     1      86.118  57.586  44.300  0.00  0.00    -0.058 C 
ATOM     11  C   UNL     1      83.937  56.436  43.680  0.00  0.00    -0.058 C 
ENDBRANCH   8   9
BRANCH   1  13
ATOM     12  C   UNL     1      84.208  56.093  47.549  0.00  0.00    +0.079 C 
ATOM     13  O   UNL     1      85.279  56.118  46.608  0.00  0.00    -0.495 OA
ENDBRANCH   1  13
BRANCH   7  14
ATOM     14  O   UNL     1      86.533  54.086  42.352  0.00  0.00    -0.491 OA
ATOM     15  C   UNL     1      85.662  53.480  41.404  0.00  0.00    +0.079 C 
ENDBRANCH   7  14
TORSDOF 3
ENDMDL
MODEL 5
REMARK VINA RESULT:    -5.406      1.282      3.742
REMARK INTER + INTRA:          -6.191
REMARK INTER:                  -6.342
REMARK INTRA:                   0.151
REMARK UNBOUND:                 0.163
REMARK  Name = 
REMARK  7 active torsions:
REMARK  status: ('A' for Active; 'I' for Inactive)
REMARK    1  A    between atoms: C_1  and  O_2
REMARK    2  A    between atoms: O_2  and  C_3
REMARK    3  A    between atoms: C_9  and  O_14
REMARK    4  A    between atoms: C_10  and  C_11
REMARK    5  A    between atoms: C_11  and  C_12
REMARK    6  A    between atoms: C_11  and  C_13
REMARK    7  A    between atoms: O_14  and  C_15
REMARK                            x       y       z     vdW  Elec       q    Type
REMARK                         _______ _______ _______ _____ _____    ______ ____
ROOT
ATOM      1  C   UNL     1      85.460  55.714  43.350  0.00  0.00    +0.128 C 
ATOM      2  C   UNL     1      85.083  56.938  43.766  0.00  0.00    -0.009 C 
ATOM      3  C   UNL     1      85.198  57.335  45.176  0.00  0.00    +0.022 C 
ATOM      4  C   UNL     1      84.816  58.558  45.561  0.00  0.00    -0.088 C 
ATOM      5  C   UNL     1      85.742  56.355  46.131  0.00  0.00    +0.227 C 
ATOM      6  O   UNL     1      85.853  56.664  47.347  0.00  0.00    -0.283 OA
ATOM      7  C   UNL     1      86.150  55.008  45.637  0.00  0.00    +0.174 C 
ATOM      8  C   UNL     1      86.016  54.706  44.316  0.00  0.00    +0.042 C 
ENDROOT
BRANCH   8   9
ATOM      9  C   UNL     1      86.425  53.332  43.770  0.00  0.00    -0.014 C 
ATOM     10  C   UNL     1      87.468  53.436  42.648  0.00  0.00    -0.058 C 
ATOM     11  C   UNL     1      85.214  52.488  43.347  0.00  0.00    -0.058 C 
ENDBRANCH   8   9
BRANCH   1  13
ATOM     12  C   UNL     1      84.144  55.382  41.227  0.00  0.00    +0.079 C 
ATOM     13  O   UNL     1      85.344  55.346  41.996  0.00  0.00    -0.495 OA
ENDBRANCH   1  13
BRANCH   7  14
ATOM     14  O   UNL     1      86.675  54.029  46.503  0.00  0.00    -0.491 OA
ATOM     15  C   UNL     1      85.932  53.182  47.372  0.00  0.00    +0.079 C 
ENDBRANCH   7  14
TORSDOF 3
ENDMDL
MODEL 6
REMARK VINA RESULT:    -5.369      6.812      9.437
REMARK INTER + INTRA:          -6.148
REMARK INTER:                  -6.384
REMARK INTRA:                   0.236
REMARK UNBOUND:                 0.163
REMARK  Name = 
REMARK  7 active torsions:
REMARK  status: ('A' for Active; 'I' for Inactive)
REMARK    1  A    between atoms: C_1  and  O_2
REMARK    2  A    between atoms: O_2  and  C_3
REMARK    3  A    between atoms: C_9  and  O_14
REMARK    4  A    between atoms: C_10  and  C_11
REMARK    5  A    between atoms: C_11  and  C_12
REMARK    6  A    between atoms: C_11  and  C_13
REMARK    7  A    between atoms: O_14  and  C_15
REMARK                            x       y       z     vdW  Elec       q    Type
REMARK                         _______ _______ _______ _____ _____    ______ ____
ROOT
ATOM      1  C   UNL     1      87.756  46.950  42.651  0.00  0.00    +0.128 C 
ATOM      2  C   UNL     1      87.532  45.630  42.792  0.00  0.00    -0.009 C 
ATOM      3  C   UNL     1      86.429  45.125  43.621  0.00  0.00    +0.022 C 
ATOM      4  C   UNL     1      86.229  43.809  43.742  0.00  0.00    -0.088 C 
ATOM      5  C   UNL     1      85.567  46.108  44.301  0.00  0.00    +0.227 C 
ATOM      6  O   UNL     1      84.613  45.707  45.021  0.00  0.00    -0.283 OA
ATOM      7  C   UNL     1      85.843  47.562  44.125  0.00  0.00    +0.174 C 
ATOM      8  C   UNL     1      86.882  47.961  43.341  0.00  0.00    +0.042 C 
ENDROOT
BRANCH   8   9
ATOM      9  C   UNL     1      87.198  49.448  43.135  0.00  0.00    -0.014 C 
ATOM     10  C   UNL     1      87.355  49.812  41.652  0.00  0.00    -0.058 C 
ATOM     11  C   UNL     1      88.403  49.909  43.966  0.00  0.00    -0.058 C 
ENDBRANCH   8   9
BRANCH   1  13
ATOM     12  C   UNL     1      90.200  47.164  42.079  0.00  0.00    +0.079 C 
ATOM     13  O   UNL     1      88.816  47.420  41.853  0.00  0.00    -0.495 OA
ENDBRANCH   1  13
BRANCH   7  14
ATOM     14  O   UNL     1      85.054  48.547  44.751  0.00  0.00    -0.491 OA
ATOM     15  C   UNL     1      83.845  49.107  44.251  0.00  0.00    +0.079 C 
ENDBRANCH   7  14
TORSDOF 3
ENDMDL
MODEL 7
REMARK VINA RESULT:    -5.349      4.148      7.224
REMARK INTER + INTRA:          -6.123
REMARK INTER:                  -6.292
REMARK INTRA:                   0.168
REMARK UNBOUND:                 0.163
REMARK  Name = 
REMARK  7 active torsions:
REMARK  status: ('A' for Active; 'I' for Inactive)
REMARK    1  A    between atoms: C_1  and  O_2
REMARK    2  A    between atoms: O_2  and  C_3
REMARK    3  A    between atoms: C_9  and  O_14
REMARK    4  A    between atoms: C_10  and  C_11
REMARK    5  A    between atoms: C_11  and  C_12
REMARK    6  A    between atoms: C_11  and  C_13
REMARK    7  A    between atoms: O_14  and  C_15
REMARK                            x       y       z     vdW  Elec       q    Type
REMARK                         _______ _______ _______ _____ _____    ______ ____
ROOT
ATOM      1  C   UNL     1      82.281  51.384  43.141  0.00  0.00    +0.128 C 
ATOM      2  C   UNL     1      81.081  50.775  43.107  0.00  0.00    -0.009 C 
ATOM      3  C   UNL     1      80.900  49.412  43.624  0.00  0.00    +0.022 C 
ATOM      4  C   UNL     1      79.696  48.832  43.579  0.00  0.00    -0.088 C 
ATOM      5  C   UNL     1      82.074  48.721  44.186  0.00  0.00    +0.227 C 
ATOM      6  O   UNL     1      81.952  47.551  44.637  0.00  0.00    -0.283 OA
ATOM      7  C   UNL     1      83.389  49.424  44.208  0.00  0.00    +0.174 C 
ATOM      8  C   UNL     1      83.486  50.689  43.712  0.00  0.00    +0.042 C 
ENDROOT
BRANCH   8   9
ATOM      9  C   UNL     1      84.821  51.444  43.716  0.00  0.00    -0.014 C 
ATOM     10  C   UNL     1      84.773  52.709  44.585  0.00  0.00    -0.058 C 
ATOM     11  C   UNL     1      85.327  51.744  42.299  0.00  0.00    -0.058 C 
ENDBRANCH   8   9
BRANCH   1  13
ATOM     12  C   UNL     1      81.617  53.307  41.654  0.00  0.00    +0.079 C 
ATOM     13  O   UNL     1      82.441  52.691  42.642  0.00  0.00    -0.495 OA
ENDBRANCH   1  13
BRANCH   7  14
ATOM     14  O   UNL     1      84.546  48.815  44.731  0.00  0.00    -0.491 OA
ATOM     15  C   UNL     1      85.387  47.882  44.062  0.00  0.00    +0.079 C 
ENDBRANCH   7  14
TORSDOF 3
ENDMDL
MODEL 8
REMARK VINA RESULT:    -5.312      1.779      4.890
REMARK INTER + INTRA:          -6.081
REMARK INTER:                  -6.446
REMARK INTRA:                   0.366
REMARK UNBOUND:                 0.163
REMARK  Name = 
REMARK  7 active torsions:
REMARK  status: ('A' for Active; 'I' for Inactive)
REMARK    1  A    between atoms: C_1  and  O_2
REMARK    2  A    between atoms: O_2  and  C_3
REMARK    3  A    between atoms: C_9  and  O_14
REMARK    4  A    between atoms: C_10  and  C_11
REMARK    5  A    between atoms: C_11  and  C_12
REMARK    6  A    between atoms: C_11  and  C_13
REMARK    7  A    between atoms: O_14  and  C_15
REMARK                            x       y       z     vdW  Elec       q    Type
REMARK                         _______ _______ _______ _____ _____    ______ ____
ROOT
ATOM      1  C   UNL     1      86.421  54.009  43.810  0.00  0.00    +0.128 C 
ATOM      2  C   UNL     1      86.806  52.907  44.480  0.00  0.00    -0.009 C 
ATOM      3  C   UNL     1      86.698  52.824  45.943  0.00  0.00    +0.022 C 
ATOM      4  C   UNL     1      87.089  51.716  46.582  0.00  0.00    -0.088 C 
ATOM      5  C   UNL     1      86.152  53.986  46.665  0.00  0.00    +0.227 C 
ATOM      6  O   UNL     1      86.046  53.947  47.920  0.00  0.00    -0.283 OA
ATOM      7  C   UNL     1      85.734  55.191  45.893  0.00  0.00    +0.174 C 
ATOM      8  C   UNL     1      85.862  55.201  44.537  0.00  0.00    +0.042 C 
ENDROOT
BRANCH   8   9
ATOM      9  C   UNL     1      85.444  56.422  43.709  0.00  0.00    -0.014 C 
ATOM     10  C   UNL     1      85.999  57.734  44.280  0.00  0.00    -0.058 C 
ATOM     11  C   UNL     1      83.925  56.490  43.496  0.00  0.00    -0.058 C 
ENDBRANCH   8   9
BRANCH   1  13
ATOM     12  C   UNL     1      86.205  53.025  41.501  0.00  0.00    +0.079 C 
ATOM     13  O   UNL     1      86.530  54.076  42.408  0.00  0.00    -0.495 OA
ENDBRANCH   1  13
BRANCH   7  14
ATOM     14  O   UNL     1      85.206  56.332  46.528  0.00  0.00    -0.491 OA
ATOM     15  C   UNL     1      83.939  56.434  47.167  0.00  0.00    +0.079 C 
ENDBRANCH   7  14
TORSDOF 3
ENDMDL
MODEL 9
REMARK VINA RESULT:    -5.288      1.791      3.635
REMARK INTER + INTRA:          -6.052
REMARK INTER:                  -6.215
REMARK INTRA:                   0.163
REMARK UNBOUND:                 0.163
REMARK  Name = 
REMARK  7 active torsions:
REMARK  status: ('A' for Active; 'I' for Inactive)
REMARK    1  A    between atoms: C_1  and  O_2
REMARK    2  A    between atoms: O_2  and  C_3
REMARK    3  A    between atoms: C_9  and  O_14
REMARK    4  A    between atoms: C_10  and  C_11
REMARK    5  A    between atoms: C_11  and  C_12
REMARK    6  A    between atoms: C_11  and  C_13
REMARK    7  A    between atoms: O_14  and  C_15
REMARK                            x       y       z     vdW  Elec       q    Type
REMARK                         _______ _______ _______ _____ _____    ______ ____
ROOT
ATOM      1  C   UNL     1      86.329  54.658  44.427  0.00  0.00    +0.128 C 
ATOM      2  C   UNL     1      86.411  55.890  43.892  0.00  0.00    -0.009 C 
ATOM      3  C   UNL     1      86.010  57.082  44.652  0.00  0.00    +0.022 C 
ATOM      4  C   UNL     1      86.102  58.295  44.096  0.00  0.00    -0.088 C 
ATOM      5  C   UNL     1      85.514  56.893  46.027  0.00  0.00    +0.227 C 
ATOM      6  O   UNL     1      85.161  57.895  46.705  0.00  0.00    -0.283 OA
ATOM      7  C   UNL     1      85.436  55.514  46.589  0.00  0.00    +0.174 C 
ATOM      8  C   UNL     1      85.824  54.454  45.828  0.00  0.00    +0.042 C 
ENDROOT
BRANCH   8   9
ATOM      9  C   UNL     1      85.759  53.021  46.371  0.00  0.00    -0.014 C 
ATOM     10  C   UNL     1      87.116  52.305  46.295  0.00  0.00    -0.058 C 
ATOM     11  C   UNL     1      84.643  52.197  45.713  0.00  0.00    -0.058 C 
ENDBRANCH   8   9
BRANCH   1  13
ATOM     12  C   UNL     1      86.318  53.231  42.350  0.00  0.00    +0.079 C 
ATOM     13  O   UNL     1      86.717  53.524  43.687  0.00  0.00    -0.495 OA
ENDBRANCH   1  13
BRANCH   7  14
ATOM     14  O   UNL     1      84.969  55.272  47.895  0.00  0.00    -0.491 OA
ATOM     15  C   UNL     1      83.613  55.293  48.326  0.00  0.00    +0.079 C 
ENDBRANCH   7  14
TORSDOF 3
ENDMDL
