MODEL 1
REMARK VINA RESULT:    -5.542      0.000      0.000
REMARK INTER + INTRA:          -6.235
REMARK INTER:                  -6.191
REMARK INTRA:                  -0.044
REMARK UNBOUND:                -0.044
REMARK  Name = 
REMARK  3 active torsions:
REMARK  status: ('A' for Active; 'I' for Inactive)
REMARK    1  A    between atoms: C_2  and  C_4
REMARK    2  A    between atoms: C_7  and  O_11
REMARK    3  A    between atoms: C_8  and  O_10
REMARK                            x       y       z     vdW  Elec       q    Type
REMARK                         _______ _______ _______ _____ _____    ______ ____
ROOT
ATOM      1  C   UNL     1      83.390  50.154  57.829  0.00  0.00    +0.063 A 
ATOM      2  C   UNL     1      82.607  50.864  56.905  0.00  0.00    -0.044 A 
ATOM      3  C   UNL     1      82.914  50.826  55.544  0.00  0.00    -0.016 A 
ATOM      4  C   UNL     1      84.002  50.082  55.077  0.00  0.00    +0.158 A 
ATOM      5  C   UNL     1      84.799  49.363  55.998  0.00  0.00    +0.159 A 
ATOM      6  C   UNL     1      84.485  49.406  57.363  0.00  0.00    -0.003 A 
ENDROOT
BRANCH   1   8
ATOM      7  O   UNL     1      82.198  51.153  59.776  0.00  0.00    -0.477 OA
ATOM      8  C   UNL     1      83.071  50.190  59.274  0.00  0.00    +0.337 C 
ATOM      9  O   UNL     1      83.585  49.353  60.063  0.00  0.00    -0.245 OA
ENDBRANCH   1   8
BRANCH   5  10
ATOM     10  O   UNL     1      85.901  48.600  55.607  0.00  0.00    -0.503 OA
ATOM     11  H   UNL     1      86.017  47.736  55.952  0.00  0.00    +0.000 HD
ENDBRANCH   5  10
BRANCH   4  12
ATOM     12  O   UNL     1      84.254  50.088  53.703  0.00  0.00    -0.503 OA
ATOM     13  H   UNL     1      84.543  50.874  53.283  0.00  0.00    +0.000 HD
ENDBRANCH   4  12
TORSDOF 3
ENDMDL
MODEL 2
REMARK VINA RESULT:    -5.527     12.703     13.618
REMARK INTER + INTRA:          -6.218
REMARK INTER:                  -6.174
REMARK INTRA:                  -0.044
REMARK UNBOUND:                -0.044
REMARK  Name = 
REMARK  3 active torsions:
REMARK  status: ('A' for Active; 'I' for Inactive)
REMARK    1  A    between atoms: C_2  and  C_4
REMARK    2  A    between atoms: C_7  and  O_11
REMARK    3  A    between atoms: C_8  and  O_10
REMARK                            x       y       z     vdW  Elec       q    Type
REMARK                         _______ _______ _______ _____ _____    ______ ____
ROOT
ATOM      1  C   UNL     1      79.813  48.405  44.731  0.00  0.00    +0.063 A 
ATOM      2  C   UNL     1      80.258  49.181  43.649  0.00  0.00    -0.044 A 
ATOM      3  C   UNL     1      79.589  50.357  43.302  0.00  0.00    -0.016 A 
ATOM      4  C   UNL     1      78.469  50.782  44.022  0.00  0.00    +0.158 A 
ATOM      5  C   UNL     1      78.012  50.008  45.115  0.00  0.00    +0.159 A 
ATOM      6  C   UNL     1      78.687  48.830  45.457  0.00  0.00    -0.003 A 
ENDROOT
BRANCH   1   8
ATOM      7  O   UNL     1      81.818  46.927  44.665  0.00  0.00    -0.477 OA
ATOM      8  C   UNL     1      80.516  47.157  45.104  0.00  0.00    +0.337 C 
ATOM      9  O   UNL     1      79.946  46.292  45.821  0.00  0.00    -0.245 OA
ENDBRANCH   1   8
BRANCH   5  10
ATOM     10  O   UNL     1      76.901  50.368  45.881  0.00  0.00    -0.503 OA
ATOM     11  H   UNL     1      76.041  50.122  45.602  0.00  0.00    +0.000 HD
ENDBRANCH   5  10
BRANCH   4  12
ATOM     12  O   UNL     1      77.847  51.966  43.622  0.00  0.00    -0.503 OA
ATOM     13  H   UNL     1      77.848  52.214  42.719  0.00  0.00    +0.000 HD
ENDBRANCH   4  12
TORSDOF 3
ENDMDL
MODEL 3
REMARK VINA RESULT:    -5.485     12.814     13.830
REMARK INTER + INTRA:          -6.170
REMARK INTER:                  -6.126
REMARK INTRA:                  -0.044
REMARK UNBOUND:                -0.044
REMARK  Name = 
REMARK  3 active torsions:
REMARK  status: ('A' for Active; 'I' for Inactive)
REMARK    1  A    between atoms: C_2  and  C_4
REMARK    2  A    between atoms: C_7  and  O_11
REMARK    3  A    between atoms: C_8  and  O_10
REMARK                            x       y       z     vdW  Elec       q    Type
REMARK                         _______ _______ _______ _____ _____    ______ ____
ROOT
ATOM      1  C   UNL     1      80.578  48.084  44.397  0.00  0.00    +0.063 A 
ATOM      2  C   UNL     1      81.750  48.474  43.729  0.00  0.00    -0.044 A 
ATOM      3  C   UNL     1      81.796  49.682  43.031  0.00  0.00    -0.016 A 
ATOM      4  C   UNL     1      80.680  50.524  42.985  0.00  0.00    +0.158 A 
ATOM      5  C   UNL     1      79.494  50.142  43.654  0.00  0.00    +0.159 A 
ATOM      6  C   UNL     1      79.455  48.927  44.352  0.00  0.00    -0.003 A 
ENDROOT
BRANCH   1   8
ATOM      7  O   UNL     1      81.691  46.089  45.393  0.00  0.00    -0.477 OA
ATOM      8  C   UNL     1      80.523  46.803  45.138  0.00  0.00    +0.337 C 
ATOM      9  O   UNL     1      79.420  46.347  45.543  0.00  0.00    -0.245 OA
ENDBRANCH   1   8
BRANCH   5  10
ATOM     10  O   UNL     1      78.340  50.928  43.652  0.00  0.00    -0.503 OA
ATOM     11  H   UNL     1      78.407  51.858  43.752  0.00  0.00    +0.000 HD
ENDBRANCH   5  10
BRANCH   4  12
ATOM     12  O   UNL     1      80.792  51.718  42.269  0.00  0.00    -0.503 OA
ATOM     13  H   UNL     1      80.025  52.209  42.054  0.00  0.00    +0.000 HD
ENDBRANCH   4  12
TORSDOF 3
ENDMDL
MODEL 4
REMARK VINA RESULT:    -5.442     12.681     13.226
REMARK INTER + INTRA:          -6.123
REMARK INTER:                  -6.081
REMARK INTRA:                  -0.042
REMARK UNBOUND:                -0.044
REMARK  Name = 
REMARK  3 active torsions:
REMARK  status: ('A' for Active; 'I' for Inactive)
REMARK    1  A    between atoms: C_2  and  C_4
REMARK    2  A    between atoms: C_7  and  O_11
REMARK    3  A    between atoms: C_8  and  O_10
REMARK                            x       y       z     vdW  Elec       q    Type
REMARK                         _______ _______ _______ _____ _____    ______ ____
ROOT
ATOM      1  C   UNL     1      78.938  49.178  44.854  0.00  0.00    +0.063 A 
ATOM      2  C   UNL     1      79.609  49.853  43.821  0.00  0.00    -0.044 A 
ATOM      3  C   UNL     1      80.819  49.361  43.327  0.00  0.00    -0.016 A 
ATOM      4  C   UNL     1      81.382  48.192  43.848  0.00  0.00    +0.158 A 
ATOM      5  C   UNL     1      80.715  47.504  44.888  0.00  0.00    +0.159 A 
ATOM      6  C   UNL     1      79.502  48.003  45.380  0.00  0.00    -0.003 A 
ENDROOT
BRANCH   1   8
ATOM      7  O   UNL     1      77.402  51.063  45.399  0.00  0.00    -0.477 OA
ATOM      8  C   UNL     1      77.655  49.694  45.383  0.00  0.00    +0.337 C 
ATOM      9  O   UNL     1      76.782  48.900  45.826  0.00  0.00    -0.245 OA
ENDBRANCH   1   8
BRANCH   5  10
ATOM     10  O   UNL     1      81.216  46.332  45.459  0.00  0.00    -0.503 OA
ATOM     11  H   UNL     1      81.641  45.694  44.921  0.00  0.00    +0.000 HD
ENDBRANCH   5  10
BRANCH   4  12
ATOM     12  O   UNL     1      82.594  47.756  43.309  0.00  0.00    -0.503 OA
ATOM     13  H   UNL     1      83.402  47.997  43.717  0.00  0.00    +0.000 HD
ENDBRANCH   4  12
TORSDOF 3
ENDMDL
MODEL 5
REMARK VINA RESULT:    -5.417     11.077     13.118
REMARK INTER + INTRA:          -6.095
REMARK INTER:                  -6.051
REMARK INTRA:                  -0.044
REMARK UNBOUND:                -0.044
REMARK  Name = 
REMARK  3 active torsions:
REMARK  status: ('A' for Active; 'I' for Inactive)
REMARK    1  A    between atoms: C_2  and  C_4
REMARK    2  A    between atoms: C_7  and  O_11
REMARK    3  A    between atoms: C_8  and  O_10
REMARK                            x       y       z     vdW  Elec       q    Type
REMARK                         _______ _______ _______ _____ _____    ______ ____
ROOT
ATOM      1  C   UNL     1      85.264  56.023  46.728  0.00  0.00    +0.063 A 
ATOM      2  C   UNL     1      86.239  55.746  45.756  0.00  0.00    -0.044 A 
ATOM      3  C   UNL     1      86.455  56.633  44.700  0.00  0.00    -0.016 A 
ATOM      4  C   UNL     1      85.707  57.809  44.590  0.00  0.00    +0.158 A 
ATOM      5  C   UNL     1      84.722  58.100  45.563  0.00  0.00    +0.159 A 
ATOM      6  C   UNL     1      84.511  57.205  46.620  0.00  0.00    -0.003 A 
ENDROOT
BRANCH   1   8
ATOM      7  O   UNL     1      83.893  55.216  48.646  0.00  0.00    -0.477 OA
ATOM      8  C   UNL     1      85.029  55.087  47.850  0.00  0.00    +0.337 C 
ATOM      9  O   UNL     1      85.854  54.167  48.098  0.00  0.00    -0.245 OA
ENDBRANCH   1   8
BRANCH   5  10
ATOM     10  O   UNL     1      83.936  59.253  45.520  0.00  0.00    -0.503 OA
ATOM     11  H   UNL     1      83.142  59.261  45.022  0.00  0.00    +0.000 HD
ENDBRANCH   5  10
BRANCH   4  12
ATOM     12  O   UNL     1      85.973  58.653  43.509  0.00  0.00    -0.503 OA
ATOM     13  H   UNL     1      86.773  59.138  43.479  0.00  0.00    +0.000 HD
ENDBRANCH   4  12
TORSDOF 3
ENDMDL
MODEL 6
REMARK VINA RESULT:    -5.270     10.897     13.473
REMARK INTER + INTRA:          -5.930
REMARK INTER:                  -5.894
REMARK INTRA:                  -0.036
REMARK UNBOUND:                -0.044
REMARK  Name = 
REMARK  3 active torsions:
REMARK  status: ('A' for Active; 'I' for Inactive)
REMARK    1  A    between atoms: C_2  and  C_4
REMARK    2  A    between atoms: C_7  and  O_11
REMARK    3  A    between atoms: C_8  and  O_10
REMARK                            x       y       z     vdW  Elec       q    Type
REMARK                         _______ _______ _______ _____ _____    ______ ____
ROOT
ATOM      1  C   UNL     1      85.453  56.631  45.203  0.00  0.00    +0.063 A 
ATOM      2  C   UNL     1      86.528  55.745  45.381  0.00  0.00    -0.044 A 
ATOM      3  C   UNL     1      86.613  54.962  46.534  0.00  0.00    -0.016 A 
ATOM      4  C   UNL     1      85.634  55.045  47.528  0.00  0.00    +0.158 A 
ATOM      5  C   UNL     1      84.546  55.933  47.360  0.00  0.00    +0.159 A 
ATOM      6  C   UNL     1      84.467  56.716  46.201  0.00  0.00    -0.003 A 
ENDROOT
BRANCH   1   8
ATOM      7  O   UNL     1      86.048  58.672  43.902  0.00  0.00    -0.477 OA
ATOM      8  C   UNL     1      85.356  57.465  43.983  0.00  0.00    +0.337 C 
ATOM      9  O   UNL     1      84.649  57.093  43.010  0.00  0.00    -0.245 OA
ENDBRANCH   1   8
BRANCH   5  10
ATOM     10  O   UNL     1      83.531  56.071  48.309  0.00  0.00    -0.503 OA
ATOM     11  H   UNL     1      83.028  55.324  48.568  0.00  0.00    +0.000 HD
ENDBRANCH   5  10
BRANCH   4  12
ATOM     12  O   UNL     1      85.780  54.234  48.656  0.00  0.00    -0.503 OA
ATOM     13  H   UNL     1      85.750  54.613  49.512  0.00  0.00    +0.000 HD
ENDBRANCH   4  12
TORSDOF 3
ENDMDL
MODEL 7
REMARK VINA RESULT:    -5.237     11.019     12.948
REMARK INTER + INTRA:          -5.894
REMARK INTER:                  -5.851
REMARK INTRA:                  -0.042
REMARK UNBOUND:                -0.044
REMARK  Name = 
REMARK  3 active torsions:
REMARK  status: ('A' for Active; 'I' for Inactive)
REMARK    1  A    between atoms: C_2  and  C_4
REMARK    2  A    between atoms: C_7  and  O_11
REMARK    3  A    between atoms: C_8  and  O_10
REMARK                            x       y       z     vdW  Elec       q    Type
REMARK                         _______ _______ _______ _____ _____    ______ ____
ROOT
ATOM      1  C   UNL     1      84.854  56.211  46.813  0.00  0.00    +0.063 A 
ATOM      2  C   UNL     1      84.254  57.465  46.618  0.00  0.00    -0.044 A 
ATOM      3  C   UNL     1      84.656  58.284  45.562  0.00  0.00    -0.016 A 
ATOM      4  C   UNL     1      85.661  57.872  44.681  0.00  0.00    +0.158 A 
ATOM      5  C   UNL     1      86.273  56.611  44.866  0.00  0.00    +0.159 A 
ATOM      6  C   UNL     1      85.864  55.794  45.928  0.00  0.00    -0.003 A 
ENDROOT
BRANCH   1   8
ATOM      7  O   UNL     1      85.332  54.436  48.495  0.00  0.00    -0.477 OA
ATOM      8  C   UNL     1      84.432  55.338  47.931  0.00  0.00    +0.337 C 
ATOM      9  O   UNL     1      83.258  55.400  48.383  0.00  0.00    -0.245 OA
ENDBRANCH   1   8
BRANCH   5  10
ATOM     10  O   UNL     1      87.282  56.131  44.028  0.00  0.00    -0.503 OA
ATOM     11  H   UNL     1      87.330  55.217  43.829  0.00  0.00    +0.000 HD
ENDBRANCH   5  10
BRANCH   4  12
ATOM     12  O   UNL     1      86.016  58.740  43.645  0.00  0.00    -0.503 OA
ATOM     13  H   UNL     1      86.860  58.671  43.245  0.00  0.00    +0.000 HD
ENDBRANCH   4  12
TORSDOF 3
ENDMDL
MODEL 8
REMARK VINA RESULT:    -5.174     22.925     25.143
REMARK INTER + INTRA:          -5.824
REMARK INTER:                  -5.786
REMARK INTRA:                  -0.038
REMARK UNBOUND:                -0.044
REMARK  Name = 
REMARK  3 active torsions:
REMARK  status: ('A' for Active; 'I' for Inactive)
REMARK    1  A    between atoms: C_2  and  C_4
REMARK    2  A    between atoms: C_7  and  O_11
REMARK    3  A    between atoms: C_8  and  O_10
REMARK                            x       y       z     vdW  Elec       q    Type
REMARK                         _______ _______ _______ _____ _____    ______ ____
ROOT
ATOM      1  C   UNL     1      74.954  48.306  33.293  0.00  0.00    +0.063 A 
ATOM      2  C   UNL     1      75.133  48.194  34.682  0.00  0.00    -0.044 A 
ATOM      3  C   UNL     1      76.209  48.825  35.308  0.00  0.00    -0.016 A 
ATOM      4  C   UNL     1      77.125  49.579  34.568  0.00  0.00    +0.158 A 
ATOM      5  C   UNL     1      76.955  49.701  33.169  0.00  0.00    +0.159 A 
ATOM      6  C   UNL     1      75.873  49.064  32.547  0.00  0.00    -0.003 A 
ENDROOT
BRANCH   1   8
ATOM      7  O   UNL     1      73.642  46.262  32.739  0.00  0.00    -0.477 OA
ATOM      8  C   UNL     1      73.816  47.639  32.622  0.00  0.00    +0.337 C 
ATOM      9  O   UNL     1      72.996  48.308  31.938  0.00  0.00    -0.245 OA
ENDBRANCH   1   8
BRANCH   5  10
ATOM     10  O   UNL     1      77.828  50.436  32.364  0.00  0.00    -0.503 OA
ATOM     11  H   UNL     1      78.716  50.567  32.635  0.00  0.00    +0.000 HD
ENDBRANCH   5  10
BRANCH   4  12
ATOM     12  O   UNL     1      78.179  50.185  35.257  0.00  0.00    -0.503 OA
ATOM     13  H   UNL     1      78.001  50.735  35.994  0.00  0.00    +0.000 HD
ENDBRANCH   4  12
TORSDOF 3
ENDMDL
MODEL 9
REMARK VINA RESULT:    -5.125      8.992     11.203
REMARK INTER + INTRA:          -5.769
REMARK INTER:                  -5.724
REMARK INTRA:                  -0.044
REMARK UNBOUND:                -0.044
REMARK  Name = 
REMARK  3 active torsions:
REMARK  status: ('A' for Active; 'I' for Inactive)
REMARK    1  A    between atoms: C_2  and  C_4
REMARK    2  A    between atoms: C_7  and  O_11
REMARK    3  A    between atoms: C_8  and  O_10
REMARK                            x       y       z     vdW  Elec       q    Type
REMARK                         _______ _______ _______ _____ _____    ______ ____
ROOT
ATOM      1  C   UNL     1      84.836  54.465  48.070  0.00  0.00    +0.063 A 
ATOM      2  C   UNL     1      86.033  54.836  47.436  0.00  0.00    -0.044 A 
ATOM      3  C   UNL     1      86.119  56.046  46.745  0.00  0.00    -0.016 A 
ATOM      4  C   UNL     1      85.020  56.908  46.672  0.00  0.00    +0.158 A 
ATOM      5  C   UNL     1      83.810  56.545  47.307  0.00  0.00    +0.159 A 
ATOM      6  C   UNL     1      83.730  55.329  47.998  0.00  0.00    -0.003 A 
ENDROOT
BRANCH   1   8
ATOM      7  O   UNL     1      85.831  52.322  48.862  0.00  0.00    -0.477 OA
ATOM      8  C   UNL     1      84.738  53.183  48.804  0.00  0.00    +0.337 C 
ATOM      9  O   UNL     1      83.665  52.858  49.380  0.00  0.00    -0.245 OA
ENDBRANCH   1   8
BRANCH   5  10
ATOM     10  O   UNL     1      82.671  57.352  47.278  0.00  0.00    -0.503 OA
ATOM     11  H   UNL     1      82.718  58.216  46.916  0.00  0.00    +0.000 HD
ENDBRANCH   5  10
BRANCH   4  12
ATOM     12  O   UNL     1      85.174  58.103  45.965  0.00  0.00    -0.503 OA
ATOM     13  H   UNL     1      84.998  58.128  45.045  0.00  0.00    +0.000 HD
ENDBRANCH   4  12
TORSDOF 3
ENDMDL
