MODEL 1
REMARK VINA RESULT:    -7.789      0.000      0.000
REMARK INTER + INTRA:         -10.563
REMARK INTER:                  -9.943
REMARK INTRA:                  -0.619
REMARK UNBOUND:                -0.952
REMARK  Name = 
REMARK  8 active torsions:
REMARK  status: ('A' for Active; 'I' for Inactive)
REMARK    1  A    between atoms: C_1  and  C_2
REMARK    2  A    between atoms: C_2  and  C_3
REMARK    3  A    between atoms: C_5  and  C_6
REMARK    4  A    between atoms: C_6  and  C_7
REMARK    5  A    between atoms: C_13  and  C_16
REMARK    6  A    between atoms: C_16  and  C_17
REMARK    7  A    between atoms: C_19  and  C_20
REMARK    8  A    between atoms: C_19  and  C_21
REMARK                            x       y       z     vdW  Elec       q    Type
REMARK                         _______ _______ _______ _____ _____    ______ ____
ROOT
ATOM      1  C   UNL     1      86.065  53.931  47.234  0.00  0.00    -0.044 A 
ATOM      2  C   UNL     1      85.765  53.326  48.482  0.00  0.00    -0.057 A 
ATOM      3  C   UNL     1      86.061  51.971  48.712  0.00  0.00    -0.038 A 
ATOM      4  C   UNL     1      86.647  51.246  47.677  0.00  0.00    +0.047 A 
ATOM      5  C   UNL     1      86.931  51.822  46.466  0.00  0.00    +0.003 A 
ATOM      6  C   UNL     1      86.648  53.162  46.203  0.00  0.00    -0.049 A 
ATOM      7  C   UNL     1      87.476  50.834  45.671  0.00  0.00    -0.020 A 
ATOM      8  C   UNL     1      87.480  49.681  46.452  0.00  0.00    +0.006 A 
ATOM      9  N   UNL     1      86.980  49.943  47.680  0.00  0.00    -0.360 N 
ATOM     10  H   UNL     1      86.879  49.309  48.427  0.00  0.00    +0.000 HD
ENDROOT
BRANCH   1  11
ATOM     11  C   UNL     1      85.704  55.368  46.981  0.00  0.00    +0.001 C 
BRANCH  11  16
ATOM     12  C   UNL     1      84.992  58.126  45.986  0.00  0.00    -0.034 C 
ATOM     13  C   UNL     1      85.192  56.973  44.995  0.00  0.00    +0.091 C 
ATOM     14  C   UNL     1      84.600  57.098  43.591  0.00  0.00    -0.034 C 
ATOM     15  O   UNL     1      86.520  56.497  44.974  0.00  0.00    -0.365 OA
ATOM     16  C   UNL     1      85.542  55.607  45.474  0.00  0.00    +0.092 C 
ENDBRANCH  11  16
ENDBRANCH   1  11
BRANCH   7  17
ATOM     17  C   UNL     1      87.871  50.940  44.230  0.00  0.00    +0.003 C 
BRANCH  17  18
ATOM     18  C   UNL     1      88.647  49.686  43.810  0.00  0.00    +0.092 C 
ATOM     19  O   UNL     1      88.137  49.124  42.617  0.00  0.00    -0.365 OA
ATOM     20  C   UNL     1      89.418  49.710  42.535  0.00  0.00    +0.091 C 
ATOM     21  C   UNL     1      90.520  48.666  42.359  0.00  0.00    -0.034 C 
ATOM     22  C   UNL     1      89.439  50.963  41.654  0.00  0.00    -0.034 C 
ENDBRANCH  17  18
ENDBRANCH   7  17
TORSDOF 4
ENDMDL
MODEL 2
REMARK VINA RESULT:    -7.712      2.401      6.143
REMARK INTER + INTRA:         -10.468
REMARK INTER:                  -9.534
REMARK INTRA:                  -0.933
REMARK UNBOUND:                -0.952
REMARK  Name = 
REMARK  8 active torsions:
REMARK  status: ('A' for Active; 'I' for Inactive)
REMARK    1  A    between atoms: C_1  and  C_2
REMARK    2  A    between atoms: C_2  and  C_3
REMARK    3  A    between atoms: C_5  and  C_6
REMARK    4  A    between atoms: C_6  and  C_7
REMARK    5  A    between atoms: C_13  and  C_16
REMARK    6  A    between atoms: C_16  and  C_17
REMARK    7  A    between atoms: C_19  and  C_20
REMARK    8  A    between atoms: C_19  and  C_21
REMARK                            x       y       z     vdW  Elec       q    Type
REMARK                         _______ _______ _______ _____ _____    ______ ____
ROOT
ATOM      1  C   UNL     1      86.108  52.819  47.373  0.00  0.00    -0.044 A 
ATOM      2  C   UNL     1      85.335  52.652  48.551  0.00  0.00    -0.057 A 
ATOM      3  C   UNL     1      84.392  53.623  48.933  0.00  0.00    -0.038 A 
ATOM      4  C   UNL     1      84.251  54.750  48.126  0.00  0.00    +0.047 A 
ATOM      5  C   UNL     1      85.002  54.921  46.993  0.00  0.00    +0.003 A 
ATOM      6  C   UNL     1      85.947  53.980  46.587  0.00  0.00    -0.049 A 
ATOM      7  C   UNL     1      84.635  56.136  46.450  0.00  0.00    -0.020 A 
ATOM      8  C   UNL     1      83.671  56.657  47.308  0.00  0.00    +0.006 A 
ATOM      9  N   UNL     1      83.436  55.800  48.327  0.00  0.00    -0.360 N 
ATOM     10  H   UNL     1      82.796  55.920  49.066  0.00  0.00    +0.000 HD
ENDROOT
BRANCH   1  11
ATOM     11  C   UNL     1      87.145  51.798  46.997  0.00  0.00    +0.001 C 
BRANCH  11  16
ATOM     12  C   UNL     1      87.638  51.585  44.028  0.00  0.00    -0.034 C 
ATOM     13  C   UNL     1      86.742  50.564  44.739  0.00  0.00    +0.091 C 
ATOM     14  C   UNL     1      85.760  49.741  43.907  0.00  0.00    -0.034 C 
ATOM     15  O   UNL     1      87.451  49.772  45.667  0.00  0.00    -0.365 OA
ATOM     16  C   UNL     1      86.492  50.659  46.204  0.00  0.00    +0.092 C 
ENDBRANCH  11  16
ENDBRANCH   1  11
BRANCH   7  17
ATOM     17  C   UNL     1      85.229  56.815  45.254  0.00  0.00    +0.003 C 
BRANCH  17  18
ATOM     18  C   UNL     1      84.292  56.663  44.051  0.00  0.00    +0.092 C 
ATOM     19  O   UNL     1      84.913  57.059  42.844  0.00  0.00    -0.365 OA
ATOM     20  C   UNL     1      84.642  55.682  42.985  0.00  0.00    +0.091 C 
ATOM     21  C   UNL     1      83.519  55.217  42.059  0.00  0.00    -0.034 C 
ATOM     22  C   UNL     1      85.916  54.837  43.083  0.00  0.00    -0.034 C 
ENDBRANCH  17  18
ENDBRANCH   7  17
TORSDOF 4
ENDMDL
MODEL 3
REMARK VINA RESULT:    -7.662      5.986      7.775
REMARK INTER + INTRA:         -10.406
REMARK INTER:                  -9.795
REMARK INTRA:                  -0.611
REMARK UNBOUND:                -0.952
REMARK  Name = 
REMARK  8 active torsions:
REMARK  status: ('A' for Active; 'I' for Inactive)
REMARK    1  A    between atoms: C_1  and  C_2
REMARK    2  A    between atoms: C_2  and  C_3
REMARK    3  A    between atoms: C_5  and  C_6
REMARK    4  A    between atoms: C_6  and  C_7
REMARK    5  A    between atoms: C_13  and  C_16
REMARK    6  A    between atoms: C_16  and  C_17
REMARK    7  A    between atoms: C_19  and  C_20
REMARK    8  A    between atoms: C_19  and  C_21
REMARK                            x       y       z     vdW  Elec       q    Type
REMARK                         _______ _______ _______ _____ _____    ______ ____
ROOT
ATOM      1  C   UNL     1      84.515  46.250  43.696  0.00  0.00    -0.044 A 
ATOM      2  C   UNL     1      84.455  44.970  44.307  0.00  0.00    -0.057 A 
ATOM      3  C   UNL     1      85.574  44.118  44.298  0.00  0.00    -0.038 A 
ATOM      4  C   UNL     1      86.732  44.567  43.666  0.00  0.00    +0.047 A 
ATOM      5  C   UNL     1      86.793  45.798  43.067  0.00  0.00    +0.003 A 
ATOM      6  C   UNL     1      85.701  46.666  43.055  0.00  0.00    -0.049 A 
ATOM      7  C   UNL     1      88.056  45.917  42.524  0.00  0.00    -0.020 A 
ATOM      8  C   UNL     1      88.705  44.720  42.815  0.00  0.00    +0.006 A 
ATOM      9  N   UNL     1      87.892  43.903  43.521  0.00  0.00    -0.360 N 
ATOM     10  H   UNL     1      88.105  43.004  43.860  0.00  0.00    +0.000 HD
ENDROOT
BRANCH   1  11
ATOM     11  C   UNL     1      83.300  47.134  43.671  0.00  0.00    +0.001 C 
BRANCH  11  16
ATOM     12  C   UNL     1      80.873  48.603  44.697  0.00  0.00    -0.034 C 
ATOM     13  C   UNL     1      80.873  47.073  44.615  0.00  0.00    +0.091 C 
ATOM     14  C   UNL     1      79.863  46.290  45.453  0.00  0.00    -0.034 C 
ATOM     15  O   UNL     1      80.947  46.600  43.287  0.00  0.00    -0.365 OA
ATOM     16  C   UNL     1      82.066  46.336  44.110  0.00  0.00    +0.092 C 
ENDBRANCH  11  16
ENDBRANCH   1  11
BRANCH   7  17
ATOM     17  C   UNL     1      88.587  47.043  41.691  0.00  0.00    +0.003 C 
BRANCH  17  18
ATOM     18  C   UNL     1      90.008  47.399  42.144  0.00  0.00    +0.092 C 
ATOM     19  O   UNL     1      90.406  48.673  41.678  0.00  0.00    -0.365 OA
ATOM     20  C   UNL     1      90.201  48.552  43.068  0.00  0.00    +0.091 C 
ATOM     21  C   UNL     1      91.511  48.613  43.853  0.00  0.00    -0.034 C 
ATOM     22  C   UNL     1      89.005  49.371  43.563  0.00  0.00    -0.034 C 
ENDBRANCH  17  18
ENDBRANCH   7  17
TORSDOF 4
ENDMDL
MODEL 4
REMARK VINA RESULT:    -7.651      5.000      8.411
REMARK INTER + INTRA:         -10.393
REMARK INTER:                  -9.676
REMARK INTRA:                  -0.717
REMARK UNBOUND:                -0.952
REMARK  Name = 
REMARK  8 active torsions:
REMARK  status: ('A' for Active; 'I' for Inactive)
REMARK    1  A    between atoms: C_1  and  C_2
REMARK    2  A    between atoms: C_2  and  C_3
REMARK    3  A    between atoms: C_5  and  C_6
REMARK    4  A    between atoms: C_6  and  C_7
REMARK    5  A    between atoms: C_13  and  C_16
REMARK    6  A    between atoms: C_16  and  C_17
REMARK    7  A    between atoms: C_19  and  C_20
REMARK    8  A    between atoms: C_19  and  C_21
REMARK                            x       y       z     vdW  Elec       q    Type
REMARK                         _______ _______ _______ _____ _____    ______ ____
ROOT
ATOM      1  C   UNL     1      88.022  45.755  42.587  0.00  0.00    -0.044 A 
ATOM      2  C   UNL     1      87.777  44.358  42.541  0.00  0.00    -0.057 A 
ATOM      3  C   UNL     1      86.507  43.842  42.856  0.00  0.00    -0.038 A 
ATOM      4  C   UNL     1      85.508  44.743  43.221  0.00  0.00    +0.047 A 
ATOM      5  C   UNL     1      85.742  46.092  43.276  0.00  0.00    +0.003 A 
ATOM      6  C   UNL     1      86.990  46.636  42.973  0.00  0.00    -0.049 A 
ATOM      7  C   UNL     1      84.566  46.685  43.689  0.00  0.00    -0.020 A 
ATOM      8  C   UNL     1      83.665  45.642  43.882  0.00  0.00    +0.006 A 
ATOM      9  N   UNL     1      84.246  44.457  43.585  0.00  0.00    -0.360 N 
ATOM     10  H   UNL     1      83.830  43.566  43.627  0.00  0.00    +0.000 HD
ENDROOT
BRANCH   1  11
ATOM     11  C   UNL     1      89.395  46.293  42.292  0.00  0.00    +0.001 C 
BRANCH  11  16
ATOM     12  C   UNL     1      90.972  48.552  43.521  0.00  0.00    -0.034 C 
ATOM     13  C   UNL     1      90.069  48.808  42.310  0.00  0.00    +0.091 C 
ATOM     14  C   UNL     1      89.618  50.239  42.017  0.00  0.00    -0.034 C 
ATOM     15  O   UNL     1      90.512  48.140  41.149  0.00  0.00    -0.365 OA
ATOM     16  C   UNL     1      89.285  47.701  41.695  0.00  0.00    +0.092 C 
ENDBRANCH  11  16
ENDBRANCH   1  11
BRANCH   7  17
ATOM     17  C   UNL     1      84.334  48.135  43.986  0.00  0.00    +0.003 C 
BRANCH  17  18
ATOM     18  C   UNL     1      82.883  48.506  43.658  0.00  0.00    +0.092 C 
ATOM     19  O   UNL     1      82.213  49.056  44.775  0.00  0.00    -0.365 OA
ATOM     20  C   UNL     1      82.478  49.940  43.708  0.00  0.00    +0.091 C 
ATOM     21  C   UNL     1      81.207  50.339  42.959  0.00  0.00    -0.034 C 
ATOM     22  C   UNL     1      83.490  51.029  44.080  0.00  0.00    -0.034 C 
ENDBRANCH  17  18
ENDBRANCH   7  17
TORSDOF 4
ENDMDL
MODEL 5
REMARK VINA RESULT:    -7.589      1.108      6.653
REMARK INTER + INTRA:         -10.316
REMARK INTER:                  -9.655
REMARK INTRA:                  -0.661
REMARK UNBOUND:                -0.952
REMARK  Name = 
REMARK  8 active torsions:
REMARK  status: ('A' for Active; 'I' for Inactive)
REMARK    1  A    between atoms: C_1  and  C_2
REMARK    2  A    between atoms: C_2  and  C_3
REMARK    3  A    between atoms: C_5  and  C_6
REMARK    4  A    between atoms: C_6  and  C_7
REMARK    5  A    between atoms: C_13  and  C_16
REMARK    6  A    between atoms: C_16  and  C_17
REMARK    7  A    between atoms: C_19  and  C_20
REMARK    8  A    between atoms: C_19  and  C_21
REMARK                            x       y       z     vdW  Elec       q    Type
REMARK                         _______ _______ _______ _____ _____    ______ ____
ROOT
ATOM      1  C   UNL     1      87.627  50.544  45.435  0.00  0.00    -0.044 A 
ATOM      2  C   UNL     1      87.464  50.095  46.771  0.00  0.00    -0.057 A 
ATOM      3  C   UNL     1      86.870  50.924  47.739  0.00  0.00    -0.038 A 
ATOM      4  C   UNL     1      86.459  52.196  47.346  0.00  0.00    +0.047 A 
ATOM      5  C   UNL     1      86.623  52.640  46.060  0.00  0.00    +0.003 A 
ATOM      6  C   UNL     1      87.211  51.844  45.077  0.00  0.00    -0.049 A 
ATOM      7  C   UNL     1      86.139  53.931  46.017  0.00  0.00    -0.020 A 
ATOM      8  C   UNL     1      85.710  54.216  47.311  0.00  0.00    +0.006 A 
ATOM      9  N   UNL     1      85.902  53.147  48.116  0.00  0.00    -0.360 N 
ATOM     10  H   UNL     1      85.678  53.078  49.072  0.00  0.00    +0.000 HD
ENDROOT
BRANCH   1  11
ATOM     11  C   UNL     1      88.304  49.668  44.419  0.00  0.00    +0.001 C 
BRANCH  11  16
ATOM     12  C   UNL     1      90.510  49.207  42.412  0.00  0.00    -0.034 C 
ATOM     13  C   UNL     1      89.301  50.076  42.047  0.00  0.00    +0.091 C 
ATOM     14  C   UNL     1      89.422  51.054  40.879  0.00  0.00    -0.034 C 
ATOM     15  O   UNL     1      88.096  49.342  42.006  0.00  0.00    -0.365 OA
ATOM     16  C   UNL     1      88.206  50.311  43.029  0.00  0.00    +0.092 C 
ENDBRANCH  11  16
ENDBRANCH   1  11
BRANCH   7  17
ATOM     17  C   UNL     1      86.172  54.877  44.857  0.00  0.00    +0.003 C 
BRANCH  17  18
ATOM     18  C   UNL     1      86.109  56.323  45.363  0.00  0.00    +0.092 C 
ATOM     19  O   UNL     1      86.531  57.246  44.379  0.00  0.00    -0.365 OA
ATOM     20  C   UNL     1      85.161  57.272  44.713  0.00  0.00    +0.091 C 
ATOM     21  C   UNL     1      84.781  58.531  45.492  0.00  0.00    -0.034 C 
ATOM     22  C   UNL     1      84.262  56.818  43.559  0.00  0.00    -0.034 C 
ENDBRANCH  17  18
ENDBRANCH   7  17
TORSDOF 4
ENDMDL
MODEL 6
REMARK VINA RESULT:    -7.372      4.881      7.719
REMARK INTER + INTRA:         -10.048
REMARK INTER:                  -9.413
REMARK INTRA:                  -0.635
REMARK UNBOUND:                -0.952
REMARK  Name = 
REMARK  8 active torsions:
REMARK  status: ('A' for Active; 'I' for Inactive)
REMARK    1  A    between atoms: C_1  and  C_2
REMARK    2  A    between atoms: C_2  and  C_3
REMARK    3  A    between atoms: C_5  and  C_6
REMARK    4  A    between atoms: C_6  and  C_7
REMARK    5  A    between atoms: C_13  and  C_16
REMARK    6  A    between atoms: C_16  and  C_17
REMARK    7  A    between atoms: C_19  and  C_20
REMARK    8  A    between atoms: C_19  and  C_21
REMARK                            x       y       z     vdW  Elec       q    Type
REMARK                         _______ _______ _______ _____ _____    ______ ____
ROOT
ATOM      1  C   UNL     1      88.240  47.785  42.323  0.00  0.00    -0.044 A 
ATOM      2  C   UNL     1      88.975  46.574  42.240  0.00  0.00    -0.057 A 
ATOM      3  C   UNL     1      88.350  45.337  42.481  0.00  0.00    -0.038 A 
ATOM      4  C   UNL     1      86.996  45.343  42.809  0.00  0.00    +0.047 A 
ATOM      5  C   UNL     1      86.283  46.509  42.900  0.00  0.00    +0.003 A 
ATOM      6  C   UNL     1      86.872  47.752  42.671  0.00  0.00    -0.049 A 
ATOM      7  C   UNL     1      84.997  46.164  43.263  0.00  0.00    -0.020 A 
ATOM      8  C   UNL     1      85.000  44.778  43.390  0.00  0.00    +0.006 A 
ATOM      9  N   UNL     1      86.225  44.282  43.103  0.00  0.00    -0.360 N 
ATOM     10  H   UNL     1      86.496  43.336  43.108  0.00  0.00    +0.000 HD
ENDROOT
BRANCH   1  11
ATOM     11  C   UNL     1      88.927  49.104  42.109  0.00  0.00    +0.001 C 
BRANCH  11  16
ATOM     12  C   UNL     1      89.733  51.895  41.294  0.00  0.00    -0.034 C 
ATOM     13  C   UNL     1      88.317  51.619  41.811  0.00  0.00    +0.091 C 
ATOM     14  C   UNL     1      87.483  52.787  42.335  0.00  0.00    -0.034 C 
ATOM     15  O   UNL     1      87.577  50.780  40.950  0.00  0.00    -0.365 OA
ATOM     16  C   UNL     1      87.907  50.245  42.216  0.00  0.00    +0.092 C 
ENDBRANCH  11  16
ENDBRANCH   1  11
BRANCH   7  17
ATOM     17  C   UNL     1      83.860  47.089  43.573  0.00  0.00    +0.003 C 
BRANCH  17  18
ATOM     18  C   UNL     1      82.565  46.285  43.733  0.00  0.00    +0.092 C 
ATOM     19  O   UNL     1      82.128  46.250  45.077  0.00  0.00    -0.365 OA
ATOM     20  C   UNL     1      81.330  46.990  44.180  0.00  0.00    +0.091 C 
ATOM     21  C   UNL     1      79.990  46.309  43.901  0.00  0.00    -0.034 C 
ATOM     22  C   UNL     1      81.348  48.493  44.474  0.00  0.00    -0.034 C 
ENDBRANCH  17  18
ENDBRANCH   7  17
TORSDOF 4
ENDMDL
MODEL 7
REMARK VINA RESULT:    -7.343      2.386      3.683
REMARK INTER + INTRA:         -10.012
REMARK INTER:                  -9.104
REMARK INTRA:                  -0.908
REMARK UNBOUND:                -0.952
REMARK  Name = 
REMARK  8 active torsions:
REMARK  status: ('A' for Active; 'I' for Inactive)
REMARK    1  A    between atoms: C_1  and  C_2
REMARK    2  A    between atoms: C_2  and  C_3
REMARK    3  A    between atoms: C_5  and  C_6
REMARK    4  A    between atoms: C_6  and  C_7
REMARK    5  A    between atoms: C_13  and  C_16
REMARK    6  A    between atoms: C_16  and  C_17
REMARK    7  A    between atoms: C_19  and  C_20
REMARK    8  A    between atoms: C_19  and  C_21
REMARK                            x       y       z     vdW  Elec       q    Type
REMARK                         _______ _______ _______ _____ _____    ______ ____
ROOT
ATOM      1  C   UNL     1      86.588  52.335  46.743  0.00  0.00    -0.044 A 
ATOM      2  C   UNL     1      86.803  51.018  47.226  0.00  0.00    -0.057 A 
ATOM      3  C   UNL     1      87.367  50.033  46.396  0.00  0.00    -0.038 A 
ATOM      4  C   UNL     1      87.697  50.390  45.091  0.00  0.00    +0.047 A 
ATOM      5  C   UNL     1      87.484  51.658  44.616  0.00  0.00    +0.003 A 
ATOM      6  C   UNL     1      86.923  52.657  45.411  0.00  0.00    -0.049 A 
ATOM      7  C   UNL     1      87.893  51.666  43.298  0.00  0.00    -0.020 A 
ATOM      8  C   UNL     1      88.330  50.371  43.031  0.00  0.00    +0.006 A 
ATOM      9  N   UNL     1      88.215  49.599  44.135  0.00  0.00    -0.360 N 
ATOM     10  H   UNL     1      88.460  48.649  44.222  0.00  0.00    +0.000 HD
ENDROOT
BRANCH   1  11
ATOM     11  C   UNL     1      85.943  53.369  47.623  0.00  0.00    +0.001 C 
BRANCH  11  16
ATOM     12  C   UNL     1      83.812  55.351  48.419  0.00  0.00    -0.034 C 
ATOM     13  C   UNL     1      84.774  55.670  47.270  0.00  0.00    +0.091 C 
ATOM     14  C   UNL     1      84.382  56.745  46.257  0.00  0.00    -0.034 C 
ATOM     15  O   UNL     1      86.111  55.806  47.701  0.00  0.00    -0.365 OA
ATOM     16  C   UNL     1      85.830  54.699  46.867  0.00  0.00    +0.092 C 
ENDBRANCH  11  16
ENDBRANCH   1  11
BRANCH   7  17
ATOM     17  C   UNL     1      87.785  52.793  42.317  0.00  0.00    +0.003 C 
BRANCH  17  18
ATOM     18  C   UNL     1      86.537  52.606  41.446  0.00  0.00    +0.092 C 
ATOM     19  O   UNL     1      85.403  52.255  42.215  0.00  0.00    -0.365 OA
ATOM     20  C   UNL     1      85.387  53.536  41.625  0.00  0.00    +0.091 C 
ATOM     21  C   UNL     1      84.376  53.634  40.484  0.00  0.00    -0.034 C 
ATOM     22  C   UNL     1      85.444  54.664  42.661  0.00  0.00    -0.034 C 
ENDBRANCH  17  18
ENDBRANCH   7  17
TORSDOF 4
ENDMDL
MODEL 8
REMARK VINA RESULT:    -7.302      3.321      6.474
REMARK INTER + INTRA:          -9.962
REMARK INTER:                  -9.100
REMARK INTRA:                  -0.863
REMARK UNBOUND:                -0.952
REMARK  Name = 
REMARK  8 active torsions:
REMARK  status: ('A' for Active; 'I' for Inactive)
REMARK    1  A    between atoms: C_1  and  C_2
REMARK    2  A    between atoms: C_2  and  C_3
REMARK    3  A    between atoms: C_5  and  C_6
REMARK    4  A    between atoms: C_6  and  C_7
REMARK    5  A    between atoms: C_13  and  C_16
REMARK    6  A    between atoms: C_16  and  C_17
REMARK    7  A    between atoms: C_19  and  C_20
REMARK    8  A    between atoms: C_19  and  C_21
REMARK                            x       y       z     vdW  Elec       q    Type
REMARK                         _______ _______ _______ _____ _____    ______ ____
ROOT
ATOM      1  C   UNL     1      85.144  53.728  46.255  0.00  0.00    -0.044 A 
ATOM      2  C   UNL     1      85.437  54.697  47.249  0.00  0.00    -0.057 A 
ATOM      3  C   UNL     1      85.448  56.067  46.934  0.00  0.00    -0.038 A 
ATOM      4  C   UNL     1      85.171  56.437  45.619  0.00  0.00    +0.047 A 
ATOM      5  C   UNL     1      84.896  55.505  44.652  0.00  0.00    +0.003 A 
ATOM      6  C   UNL     1      84.881  54.139  44.930  0.00  0.00    -0.049 A 
ATOM      7  C   UNL     1      84.695  56.197  43.475  0.00  0.00    -0.020 A 
ATOM      8  C   UNL     1      84.876  57.541  43.792  0.00  0.00    +0.006 A 
ATOM      9  N   UNL     1      85.159  57.680  45.107  0.00  0.00    -0.360 N 
ATOM     10  H   UNL     1      85.323  58.521  45.592  0.00  0.00    +0.000 HD
ENDROOT
BRANCH   1  11
ATOM     11  C   UNL     1      85.180  52.263  46.590  0.00  0.00    +0.001 C 
BRANCH  11  16
ATOM     12  C   UNL     1      86.599  49.676  45.962  0.00  0.00    -0.034 C 
ATOM     13  C   UNL     1      87.182  50.647  46.995  0.00  0.00    +0.091 C 
ATOM     14  C   UNL     1      88.195  50.121  48.011  0.00  0.00    -0.034 C 
ATOM     15  O   UNL     1      87.586  51.872  46.423  0.00  0.00    -0.365 OA
ATOM     16  C   UNL     1      86.490  51.927  47.314  0.00  0.00    +0.092 C 
ENDBRANCH  11  16
ENDBRANCH   1  11
BRANCH   7  17
ATOM     17  C   UNL     1      84.450  55.625  42.113  0.00  0.00    +0.003 C 
BRANCH  17  18
ATOM     18  C   UNL     1      83.041  55.026  42.046  0.00  0.00    +0.092 C 
ATOM     19  O   UNL     1      82.710  54.596  40.740  0.00  0.00    -0.365 OA
ATOM     20  C   UNL     1      82.886  53.583  41.706  0.00  0.00    +0.091 C 
ATOM     21  C   UNL     1      81.567  52.908  42.082  0.00  0.00    -0.034 C 
ATOM     22  C   UNL     1      84.112  52.707  41.427  0.00  0.00    -0.034 C 
ENDBRANCH  17  18
ENDBRANCH   7  17
TORSDOF 4
ENDMDL
MODEL 9
REMARK VINA RESULT:    -7.302      2.119      6.250
REMARK INTER + INTRA:          -9.962
REMARK INTER:                  -9.010
REMARK INTRA:                  -0.952
REMARK UNBOUND:                -0.952
REMARK  Name = 
REMARK  8 active torsions:
REMARK  status: ('A' for Active; 'I' for Inactive)
REMARK    1  A    between atoms: C_1  and  C_2
REMARK    2  A    between atoms: C_2  and  C_3
REMARK    3  A    between atoms: C_5  and  C_6
REMARK    4  A    between atoms: C_6  and  C_7
REMARK    5  A    between atoms: C_13  and  C_16
REMARK    6  A    between atoms: C_16  and  C_17
REMARK    7  A    between atoms: C_19  and  C_20
REMARK    8  A    between atoms: C_19  and  C_21
REMARK                            x       y       z     vdW  Elec       q    Type
REMARK                         _______ _______ _______ _____ _____    ______ ____
ROOT
ATOM      1  C   UNL     1      87.271  50.736  44.536  0.00  0.00    -0.044 A 
ATOM      2  C   UNL     1      87.235  50.457  45.927  0.00  0.00    -0.057 A 
ATOM      3  C   UNL     1      86.912  51.466  46.852  0.00  0.00    -0.038 A 
ATOM      4  C   UNL     1      86.640  52.741  46.360  0.00  0.00    +0.047 A 
ATOM      5  C   UNL     1      86.682  53.018  45.019  0.00  0.00    +0.003 A 
ATOM      6  C   UNL     1      87.002  52.043  44.075  0.00  0.00    -0.049 A 
ATOM      7  C   UNL     1      86.390  54.360  44.878  0.00  0.00    -0.020 A 
ATOM      8  C   UNL     1      86.196  54.840  46.170  0.00  0.00    +0.006 A 
ATOM      9  N   UNL     1      86.342  53.842  47.071  0.00  0.00    -0.360 N 
ATOM     10  H   UNL     1      86.250  53.908  48.049  0.00  0.00    +0.000 HD
ENDROOT
BRANCH   1  11
ATOM     11  C   UNL     1      87.661  49.663  43.558  0.00  0.00    +0.001 C 
BRANCH  11  16
ATOM     12  C   UNL     1      90.263  49.667  42.031  0.00  0.00    -0.034 C 
ATOM     13  C   UNL     1      88.992  50.238  41.394  0.00  0.00    +0.091 C 
ATOM     14  C   UNL     1      89.127  51.197  40.211  0.00  0.00    -0.034 C 
ATOM     15  O   UNL     1      88.004  49.254  41.173  0.00  0.00    -0.365 OA
ATOM     16  C   UNL     1      87.701  50.242  42.138  0.00  0.00    +0.092 C 
ENDBRANCH  11  16
ENDBRANCH   1  11
BRANCH   7  17
ATOM     17  C   UNL     1      86.396  55.165  43.616  0.00  0.00    +0.003 C 
BRANCH  17  18
ATOM     18  C   UNL     1      84.956  55.414  43.151  0.00  0.00    +0.092 C 
ATOM     19  O   UNL     1      84.908  55.959  41.848  0.00  0.00    -0.365 OA
ATOM     20  C   UNL     1      84.429  54.640  41.992  0.00  0.00    +0.091 C 
ATOM     21  C   UNL     1      82.912  54.556  41.832  0.00  0.00    -0.034 C 
ATOM     22  C   UNL     1      85.306  53.611  41.271  0.00  0.00    -0.034 C 
ENDBRANCH  17  18
ENDBRANCH   7  17
TORSDOF 4
ENDMDL
