MODEL 1
REMARK VINA RESULT:    -8.390      0.000      0.000
REMARK INTER + INTRA:         -11.016
REMARK INTER:                  -9.809
REMARK INTRA:                  -1.207
REMARK UNBOUND:                -0.665
REMARK  Name = 
REMARK  8 active torsions:
REMARK  status: ('A' for Active; 'I' for Inactive)
REMARK    1  A    between atoms: C_1  and  C_2
REMARK    2  A    between atoms: C_2  and  C_21
REMARK    3  A    between atoms: C_3  and  C_4
REMARK    4  A    between atoms: C_4  and  C_6
REMARK    5  A    between atoms: C_12  and  C_15
REMARK    6  A    between atoms: C_15  and  C_16
REMARK    7  A    between atoms: C_18  and  C_19
REMARK    8  A    between atoms: C_18  and  C_20
REMARK                            x       y       z     vdW  Elec       q    Type
REMARK                         _______ _______ _______ _____ _____    ______ ____
ROOT
ATOM      1  C   UNL     1      85.914  52.711  47.601  0.00  0.00    +0.022 A 
ATOM      2  C   UNL     1      85.139  52.680  48.795  0.00  0.00    -0.049 A 
ATOM      3  C   UNL     1      84.268  53.735  49.119  0.00  0.00    -0.037 A 
ATOM      4  C   UNL     1      84.185  54.809  48.237  0.00  0.00    +0.047 A 
ATOM      5  C   UNL     1      84.932  54.857  47.091  0.00  0.00    +0.004 A 
ATOM      6  C   UNL     1      85.813  53.834  46.744  0.00  0.00    -0.042 A 
ATOM      7  C   UNL     1      84.639  56.057  46.472  0.00  0.00    -0.020 A 
ATOM      8  C   UNL     1      83.726  56.696  47.305  0.00  0.00    +0.006 A 
ATOM      9  N   UNL     1      83.445  55.923  48.379  0.00  0.00    -0.360 N 
ATOM     10  H   UNL     1      82.824  56.133  49.115  0.00  0.00    +0.000 HD
ENDROOT
BRANCH   1  11
ATOM     11  C   UNL     1      86.847  51.606  47.255  0.00  0.00    +0.186 C 
ATOM     12  O   UNL     1      87.072  50.710  48.114  0.00  0.00    -0.287 OA
BRANCH  11  15
ATOM     13  C   UNL     1      87.973  51.028  43.595  0.00  0.00    -0.044 C 
ATOM     14  C   UNL     1      87.115  50.958  44.830  0.00  0.00    -0.072 C 
ATOM     15  C   UNL     1      87.553  51.576  45.947  0.00  0.00    -0.016 C 
ATOM     16  C   UNL     1      85.794  50.233  44.762  0.00  0.00    -0.044 C 
ENDBRANCH  11  15
ENDBRANCH   1  11
BRANCH   7  17
ATOM     17  C   UNL     1      85.290  56.635  45.254  0.00  0.00    +0.003 C 
BRANCH  17  18
ATOM     18  C   UNL     1      84.348  56.496  44.051  0.00  0.00    +0.092 C 
ATOM     19  O   UNL     1      84.977  56.880  42.843  0.00  0.00    -0.365 OA
ATOM     20  C   UNL     1      84.651  55.513  42.968  0.00  0.00    +0.091 C 
ATOM     21  C   UNL     1      85.898  54.622  43.024  0.00  0.00    -0.034 C 
ATOM     22  C   UNL     1      83.503  55.112  42.040  0.00  0.00    -0.034 C 
ENDBRANCH  17  18
ENDBRANCH   7  17
TORSDOF 4
ENDMDL
MODEL 2
REMARK VINA RESULT:    -8.188      2.645      5.610
REMARK INTER + INTRA:         -10.768
REMARK INTER:                  -9.961
REMARK INTRA:                  -0.806
REMARK UNBOUND:                -0.665
REMARK  Name = 
REMARK  8 active torsions:
REMARK  status: ('A' for Active; 'I' for Inactive)
REMARK    1  A    between atoms: C_1  and  C_2
REMARK    2  A    between atoms: C_2  and  C_21
REMARK    3  A    between atoms: C_3  and  C_4
REMARK    4  A    between atoms: C_4  and  C_6
REMARK    5  A    between atoms: C_12  and  C_15
REMARK    6  A    between atoms: C_15  and  C_16
REMARK    7  A    between atoms: C_18  and  C_19
REMARK    8  A    between atoms: C_18  and  C_20
REMARK                            x       y       z     vdW  Elec       q    Type
REMARK                         _______ _______ _______ _____ _____    ______ ____
ROOT
ATOM      1  C   UNL     1      85.681  54.036  47.481  0.00  0.00    +0.022 A 
ATOM      2  C   UNL     1      85.565  53.289  48.687  0.00  0.00    -0.049 A 
ATOM      3  C   UNL     1      86.053  51.974  48.774  0.00  0.00    -0.037 A 
ATOM      4  C   UNL     1      86.655  51.424  47.645  0.00  0.00    +0.047 A 
ATOM      5  C   UNL     1      86.764  52.127  46.475  0.00  0.00    +0.004 A 
ATOM      6  C   UNL     1      86.282  53.428  46.351  0.00  0.00    -0.042 A 
ATOM      7  C   UNL     1      87.369  51.288  45.559  0.00  0.00    -0.020 A 
ATOM      8  C   UNL     1      87.581  50.088  46.232  0.00  0.00    +0.006 A 
ATOM      9  N   UNL     1      87.150  50.181  47.511  0.00  0.00    -0.360 N 
ATOM     10  H   UNL     1      87.191  49.481  48.202  0.00  0.00    +0.000 HD
ENDROOT
BRANCH   1  11
ATOM     11  C   UNL     1      85.157  55.424  47.376  0.00  0.00    +0.186 C 
ATOM     12  O   UNL     1      84.119  55.731  48.022  0.00  0.00    -0.287 OA
BRANCH  11  15
ATOM     13  C   UNL     1      86.214  57.747  44.462  0.00  0.00    -0.044 C 
ATOM     14  C   UNL     1      85.433  56.704  45.218  0.00  0.00    -0.072 C 
ATOM     15  C   UNL     1      85.802  56.425  46.485  0.00  0.00    -0.016 C 
ATOM     16  C   UNL     1      84.259  56.040  44.543  0.00  0.00    -0.044 C 
ENDBRANCH  11  15
ENDBRANCH   1  11
BRANCH   7  17
ATOM     17  C   UNL     1      87.596  51.544  44.102  0.00  0.00    +0.003 C 
BRANCH  17  18
ATOM     18  C   UNL     1      88.254  50.316  43.459  0.00  0.00    +0.092 C 
ATOM     19  O   UNL     1      87.758  50.073  42.157  0.00  0.00    -0.365 OA
ATOM     20  C   UNL     1      89.109  50.468  42.244  0.00  0.00    +0.091 C 
ATOM     21  C   UNL     1      89.354  51.843  41.608  0.00  0.00    -0.034 C 
ATOM     22  C   UNL     1      90.064  49.323  41.905  0.00  0.00    -0.034 C 
ENDBRANCH  17  18
ENDBRANCH   7  17
TORSDOF 4
ENDMDL
MODEL 3
REMARK VINA RESULT:    -8.179      7.303      9.287
REMARK INTER + INTRA:         -10.756
REMARK INTER:                  -9.957
REMARK INTRA:                  -0.799
REMARK UNBOUND:                -0.665
REMARK  Name = 
REMARK  8 active torsions:
REMARK  status: ('A' for Active; 'I' for Inactive)
REMARK    1  A    between atoms: C_1  and  C_2
REMARK    2  A    between atoms: C_2  and  C_21
REMARK    3  A    between atoms: C_3  and  C_4
REMARK    4  A    between atoms: C_4  and  C_6
REMARK    5  A    between atoms: C_12  and  C_15
REMARK    6  A    between atoms: C_15  and  C_16
REMARK    7  A    between atoms: C_18  and  C_19
REMARK    8  A    between atoms: C_18  and  C_20
REMARK                            x       y       z     vdW  Elec       q    Type
REMARK                         _______ _______ _______ _____ _____    ______ ____
ROOT
ATOM      1  C   UNL     1      87.682  46.701  42.343  0.00  0.00    +0.022 A 
ATOM      2  C   UNL     1      88.267  45.418  42.543  0.00  0.00    -0.049 A 
ATOM      3  C   UNL     1      87.521  44.361  43.092  0.00  0.00    -0.037 A 
ATOM      4  C   UNL     1      86.193  44.605  43.433  0.00  0.00    +0.047 A 
ATOM      5  C   UNL     1      85.621  45.836  43.256  0.00  0.00    +0.004 A 
ATOM      6  C   UNL     1      86.334  46.909  42.724  0.00  0.00    -0.042 A 
ATOM      7  C   UNL     1      84.324  45.745  43.723  0.00  0.00    -0.020 A 
ATOM      8  C   UNL     1      84.182  44.440  44.187  0.00  0.00    +0.006 A 
ATOM      9  N   UNL     1      85.327  43.745  43.998  0.00  0.00    -0.360 N 
ATOM     10  H   UNL     1      85.492  42.802  44.227  0.00  0.00    +0.000 HD
ENDROOT
BRANCH   1  11
ATOM     11  C   UNL     1      88.466  47.829  41.775  0.00  0.00    +0.186 C 
ATOM     12  O   UNL     1      87.931  48.557  40.895  0.00  0.00    -0.287 OA
BRANCH  11  15
ATOM     13  C   UNL     1      91.747  48.884  43.543  0.00  0.00    -0.044 C 
ATOM     14  C   UNL     1      90.270  48.727  43.296  0.00  0.00    -0.072 C 
ATOM     15  C   UNL     1      89.875  48.071  42.185  0.00  0.00    -0.016 C 
ATOM     16  C   UNL     1      89.297  49.278  44.308  0.00  0.00    -0.044 C 
ENDBRANCH  11  15
ENDBRANCH   1  11
BRANCH   7  17
ATOM     17  C   UNL     1      83.328  46.854  43.865  0.00  0.00    +0.003 C 
BRANCH  17  18
ATOM     18  C   UNL     1      81.922  46.265  44.042  0.00  0.00    +0.092 C 
ATOM     19  O   UNL     1      81.470  46.372  45.378  0.00  0.00    -0.365 OA
ATOM     20  C   UNL     1      80.778  47.147  44.423  0.00  0.00    +0.091 C 
ATOM     21  C   UNL     1      80.971  48.652  44.647  0.00  0.00    -0.034 C 
ATOM     22  C   UNL     1      79.366  46.617  44.172  0.00  0.00    -0.034 C 
ENDBRANCH  17  18
ENDBRANCH   7  17
TORSDOF 4
ENDMDL
MODEL 4
REMARK VINA RESULT:    -7.824      2.118      5.062
REMARK INTER + INTRA:         -10.318
REMARK INTER:                  -9.278
REMARK INTRA:                  -1.040
REMARK UNBOUND:                -0.665
REMARK  Name = 
REMARK  8 active torsions:
REMARK  status: ('A' for Active; 'I' for Inactive)
REMARK    1  A    between atoms: C_1  and  C_2
REMARK    2  A    between atoms: C_2  and  C_21
REMARK    3  A    between atoms: C_3  and  C_4
REMARK    4  A    between atoms: C_4  and  C_6
REMARK    5  A    between atoms: C_12  and  C_15
REMARK    6  A    between atoms: C_15  and  C_16
REMARK    7  A    between atoms: C_18  and  C_19
REMARK    8  A    between atoms: C_18  and  C_20
REMARK                            x       y       z     vdW  Elec       q    Type
REMARK                         _______ _______ _______ _____ _____    ______ ____
ROOT
ATOM      1  C   UNL     1      85.648  54.074  41.929  0.00  0.00    +0.022 A 
ATOM      2  C   UNL     1      84.500  54.739  41.413  0.00  0.00    -0.049 A 
ATOM      3  C   UNL     1      83.817  55.701  42.177  0.00  0.00    -0.037 A 
ATOM      4  C   UNL     1      84.297  55.985  43.451  0.00  0.00    +0.047 A 
ATOM      5  C   UNL     1      85.394  55.346  43.965  0.00  0.00    +0.004 A 
ATOM      6  C   UNL     1      86.089  54.380  43.239  0.00  0.00    -0.042 A 
ATOM      7  C   UNL     1      85.577  55.831  45.246  0.00  0.00    -0.020 A 
ATOM      8  C   UNL     1      84.546  56.743  45.453  0.00  0.00    +0.006 A 
ATOM      9  N   UNL     1      83.772  56.839  44.347  0.00  0.00    -0.360 N 
ATOM     10  H   UNL     1      82.985  57.418  44.224  0.00  0.00    +0.000 HD
ENDROOT
BRANCH   1  11
ATOM     11  C   UNL     1      86.371  53.046  41.133  0.00  0.00    +0.186 C 
ATOM     12  O   UNL     1      86.440  53.186  39.882  0.00  0.00    -0.287 OA
BRANCH  11  15
ATOM     13  C   UNL     1      88.679  50.325  42.637  0.00  0.00    -0.044 C 
ATOM     14  C   UNL     1      88.272  51.610  41.968  0.00  0.00    -0.072 C 
ATOM     15  C   UNL     1      86.956  51.842  41.781  0.00  0.00    -0.016 C 
ATOM     16  C   UNL     1      89.341  52.594  41.563  0.00  0.00    -0.044 C 
ENDBRANCH  11  15
ENDBRANCH   1  11
BRANCH   7  17
ATOM     17  C   UNL     1      86.565  55.356  46.266  0.00  0.00    +0.003 C 
BRANCH  17  18
ATOM     18  C   UNL     1      85.843  54.525  47.335  0.00  0.00    +0.092 C 
ATOM     19  O   UNL     1      84.923  53.616  46.763  0.00  0.00    -0.365 OA
ATOM     20  C   UNL     1      86.044  53.047  47.402  0.00  0.00    +0.091 C 
ATOM     21  C   UNL     1      86.968  52.321  46.416  0.00  0.00    -0.034 C 
ATOM     22  C   UNL     1      85.664  52.342  48.705  0.00  0.00    -0.034 C 
ENDBRANCH  17  18
ENDBRANCH   7  17
TORSDOF 4
ENDMDL
MODEL 5
REMARK VINA RESULT:    -7.772      2.711      6.599
REMARK INTER + INTRA:         -10.254
REMARK INTER:                  -9.051
REMARK INTRA:                  -1.203
REMARK UNBOUND:                -0.665
REMARK  Name = 
REMARK  8 active torsions:
REMARK  status: ('A' for Active; 'I' for Inactive)
REMARK    1  A    between atoms: C_1  and  C_2
REMARK    2  A    between atoms: C_2  and  C_21
REMARK    3  A    between atoms: C_3  and  C_4
REMARK    4  A    between atoms: C_4  and  C_6
REMARK    5  A    between atoms: C_12  and  C_15
REMARK    6  A    between atoms: C_15  and  C_16
REMARK    7  A    between atoms: C_18  and  C_19
REMARK    8  A    between atoms: C_18  and  C_20
REMARK                            x       y       z     vdW  Elec       q    Type
REMARK                         _______ _______ _______ _____ _____    ______ ____
ROOT
ATOM      1  C   UNL     1      83.357  54.493  42.048  0.00  0.00    +0.022 A 
ATOM      2  C   UNL     1      82.011  54.541  41.589  0.00  0.00    -0.049 A 
ATOM      3  C   UNL     1      81.155  53.436  41.740  0.00  0.00    -0.037 A 
ATOM      4  C   UNL     1      81.663  52.295  42.354  0.00  0.00    +0.047 A 
ATOM      5  C   UNL     1      82.959  52.230  42.791  0.00  0.00    +0.004 A 
ATOM      6  C   UNL     1      83.837  53.303  42.648  0.00  0.00    -0.042 A 
ATOM      7  C   UNL     1      83.144  50.964  43.311  0.00  0.00    -0.020 A 
ATOM      8  C   UNL     1      81.929  50.306  43.139  0.00  0.00    +0.006 A 
ATOM      9  N   UNL     1      81.024  51.130  42.561  0.00  0.00    -0.360 N 
ATOM     10  H   UNL     1      80.089  50.918  42.338  0.00  0.00    +0.000 HD
ENDROOT
BRANCH   1  11
ATOM     11  C   UNL     1      84.274  55.652  41.882  0.00  0.00    +0.186 C 
ATOM     12  O   UNL     1      84.920  55.764  40.805  0.00  0.00    -0.287 OA
BRANCH  11  15
ATOM     13  C   UNL     1      85.514  57.689  44.933  0.00  0.00    -0.044 C 
ATOM     14  C   UNL     1      85.475  56.608  43.886  0.00  0.00    -0.072 C 
ATOM     15  C   UNL     1      84.477  56.636  42.977  0.00  0.00    -0.016 C 
ATOM     16  C   UNL     1      86.561  55.562  43.874  0.00  0.00    -0.044 C 
ENDBRANCH  11  15
ENDBRANCH   1  11
BRANCH   7  17
ATOM     17  C   UNL     1      84.423  50.358  43.800  0.00  0.00    +0.003 C 
BRANCH  17  18
ATOM     18  C   UNL     1      84.855  51.047  45.101  0.00  0.00    +0.092 C 
ATOM     19  O   UNL     1      85.997  50.434  45.667  0.00  0.00    -0.365 OA
ATOM     20  C   UNL     1      86.172  51.747  45.182  0.00  0.00    +0.091 C 
ATOM     21  C   UNL     1      87.123  51.798  43.979  0.00  0.00    -0.034 C 
ATOM     22  C   UNL     1      86.367  52.755  46.315  0.00  0.00    -0.034 C 
ENDBRANCH  17  18
ENDBRANCH   7  17
TORSDOF 4
ENDMDL
MODEL 6
REMARK VINA RESULT:    -7.754      2.860      4.455
REMARK INTER + INTRA:         -10.231
REMARK INTER:                  -9.286
REMARK INTRA:                  -0.946
REMARK UNBOUND:                -0.665
REMARK  Name = 
REMARK  8 active torsions:
REMARK  status: ('A' for Active; 'I' for Inactive)
REMARK    1  A    between atoms: C_1  and  C_2
REMARK    2  A    between atoms: C_2  and  C_21
REMARK    3  A    between atoms: C_3  and  C_4
REMARK    4  A    between atoms: C_4  and  C_6
REMARK    5  A    between atoms: C_12  and  C_15
REMARK    6  A    between atoms: C_15  and  C_16
REMARK    7  A    between atoms: C_18  and  C_19
REMARK    8  A    between atoms: C_18  and  C_20
REMARK                            x       y       z     vdW  Elec       q    Type
REMARK                         _______ _______ _______ _____ _____    ______ ____
ROOT
ATOM      1  C   UNL     1      87.694  50.478  43.277  0.00  0.00    +0.022 A 
ATOM      2  C   UNL     1      87.762  49.904  44.578  0.00  0.00    -0.049 A 
ATOM      3  C   UNL     1      87.424  50.654  45.718  0.00  0.00    -0.037 A 
ATOM      4  C   UNL     1      87.018  51.973  45.536  0.00  0.00    +0.047 A 
ATOM      5  C   UNL     1      86.958  52.541  44.292  0.00  0.00    +0.004 A 
ATOM      6  C   UNL     1      87.297  51.830  43.142  0.00  0.00    -0.042 A 
ATOM      7  C   UNL     1      86.559  53.852  44.469  0.00  0.00    -0.020 A 
ATOM      8  C   UNL     1      86.414  54.018  45.843  0.00  0.00    +0.006 A 
ATOM      9  N   UNL     1      86.688  52.861  46.490  0.00  0.00    -0.360 N 
ATOM     10  H   UNL     1      86.652  52.703  47.461  0.00  0.00    +0.000 HD
ENDROOT
BRANCH   1  11
ATOM     11  C   UNL     1      88.062  49.697  42.066  0.00  0.00    +0.186 C 
ATOM     12  O   UNL     1      87.903  50.225  40.932  0.00  0.00    -0.287 OA
BRANCH  11  15
ATOM     13  C   UNL     1      90.153  46.459  42.450  0.00  0.00    -0.044 C 
ATOM     14  C   UNL     1      89.838  47.930  42.379  0.00  0.00    -0.072 C 
ATOM     15  C   UNL     1      88.556  48.298  42.173  0.00  0.00    -0.016 C 
ATOM     16  C   UNL     1      90.954  48.926  42.571  0.00  0.00    -0.044 C 
ENDBRANCH  11  15
ENDBRANCH   1  11
BRANCH   7  17
ATOM     17  C   UNL     1      86.466  54.924  43.428  0.00  0.00    +0.003 C 
BRANCH  17  18
ATOM     18  C   UNL     1      84.992  55.202  43.104  0.00  0.00    +0.092 C 
ATOM     19  O   UNL     1      84.847  55.963  41.921  0.00  0.00    -0.365 OA
ATOM     20  C   UNL     1      84.372  54.636  41.868  0.00  0.00    +0.091 C 
ATOM     21  C   UNL     1      85.181  53.769  40.895  0.00  0.00    -0.034 C 
ATOM     22  C   UNL     1      82.845  54.576  41.809  0.00  0.00    -0.034 C 
ENDBRANCH  17  18
ENDBRANCH   7  17
TORSDOF 4
ENDMDL
MODEL 7
REMARK VINA RESULT:    -7.735      5.143      6.530
REMARK INTER + INTRA:         -10.208
REMARK INTER:                  -9.543
REMARK INTRA:                  -0.665
REMARK UNBOUND:                -0.665
REMARK  Name = 
REMARK  8 active torsions:
REMARK  status: ('A' for Active; 'I' for Inactive)
REMARK    1  A    between atoms: C_1  and  C_2
REMARK    2  A    between atoms: C_2  and  C_21
REMARK    3  A    between atoms: C_3  and  C_4
REMARK    4  A    between atoms: C_4  and  C_6
REMARK    5  A    between atoms: C_12  and  C_15
REMARK    6  A    between atoms: C_15  and  C_16
REMARK    7  A    between atoms: C_18  and  C_19
REMARK    8  A    between atoms: C_18  and  C_20
REMARK                            x       y       z     vdW  Elec       q    Type
REMARK                         _______ _______ _______ _____ _____    ______ ____
ROOT
ATOM      1  C   UNL     1      82.998  50.810  43.211  0.00  0.00    +0.022 A 
ATOM      2  C   UNL     1      81.831  51.382  42.632  0.00  0.00    -0.049 A 
ATOM      3  C   UNL     1      81.924  52.422  41.690  0.00  0.00    -0.037 A 
ATOM      4  C   UNL     1      83.193  52.874  41.341  0.00  0.00    +0.047 A 
ATOM      5  C   UNL     1      84.325  52.342  41.898  0.00  0.00    +0.004 A 
ATOM      6  C   UNL     1      84.268  51.318  42.841  0.00  0.00    -0.042 A 
ATOM      7  C   UNL     1      85.397  53.033  41.366  0.00  0.00    -0.020 A 
ATOM      8  C   UNL     1      84.844  53.983  40.511  0.00  0.00    +0.006 A 
ATOM      9  N   UNL     1      83.495  53.874  40.494  0.00  0.00    -0.360 N 
ATOM     10  H   UNL     1      82.865  54.417  39.967  0.00  0.00    +0.000 HD
ENDROOT
BRANCH   1  11
ATOM     11  C   UNL     1      82.909  49.718  44.217  0.00  0.00    +0.186 C 
ATOM     12  O   UNL     1      83.962  49.348  44.805  0.00  0.00    -0.287 OA
BRANCH  11  15
ATOM     13  C   UNL     1      79.908  47.278  44.402  0.00  0.00    -0.044 C 
ATOM     14  C   UNL     1      81.263  47.814  44.024  0.00  0.00    -0.072 C 
ATOM     15  C   UNL     1      81.621  49.028  44.492  0.00  0.00    -0.016 C 
ATOM     16  C   UNL     1      82.172  46.967  43.170  0.00  0.00    -0.044 C 
ENDBRANCH  11  15
ENDBRANCH   1  11
BRANCH   7  17
ATOM     17  C   UNL     1      86.839  52.913  41.750  0.00  0.00    +0.003 C 
BRANCH  17  18
ATOM     18  C   UNL     1      87.354  51.514  41.386  0.00  0.00    +0.092 C 
ATOM     19  O   UNL     1      87.917  51.482  40.088  0.00  0.00    -0.365 OA
ATOM     20  C   UNL     1      88.812  51.284  41.160  0.00  0.00    +0.091 C 
ATOM     21  C   UNL     1      89.829  52.426  41.284  0.00  0.00    -0.034 C 
ATOM     22  C   UNL     1      89.317  49.842  41.225  0.00  0.00    -0.034 C 
ENDBRANCH  17  18
ENDBRANCH   7  17
TORSDOF 4
ENDMDL
MODEL 8
REMARK VINA RESULT:    -7.691      2.341      6.290
REMARK INTER + INTRA:         -10.154
REMARK INTER:                  -9.111
REMARK INTRA:                  -1.043
REMARK UNBOUND:                -0.665
REMARK  Name = 
REMARK  8 active torsions:
REMARK  status: ('A' for Active; 'I' for Inactive)
REMARK    1  A    between atoms: C_1  and  C_2
REMARK    2  A    between atoms: C_2  and  C_21
REMARK    3  A    between atoms: C_3  and  C_4
REMARK    4  A    between atoms: C_4  and  C_6
REMARK    5  A    between atoms: C_12  and  C_15
REMARK    6  A    between atoms: C_15  and  C_16
REMARK    7  A    between atoms: C_18  and  C_19
REMARK    8  A    between atoms: C_18  and  C_20
REMARK                            x       y       z     vdW  Elec       q    Type
REMARK                         _______ _______ _______ _____ _____    ______ ____
ROOT
ATOM      1  C   UNL     1      84.957  55.949  44.243  0.00  0.00    +0.022 A 
ATOM      2  C   UNL     1      84.146  56.312  43.131  0.00  0.00    -0.049 A 
ATOM      3  C   UNL     1      84.183  55.572  41.936  0.00  0.00    -0.037 A 
ATOM      4  C   UNL     1      85.034  54.472  41.875  0.00  0.00    +0.047 A 
ATOM      5  C   UNL     1      85.827  54.117  42.933  0.00  0.00    +0.004 A 
ATOM      6  C   UNL     1      85.823  54.835  44.128  0.00  0.00    -0.042 A 
ATOM      7  C   UNL     1      86.563  53.019  42.531  0.00  0.00    -0.020 A 
ATOM      8  C   UNL     1      86.183  52.774  41.214  0.00  0.00    +0.006 A 
ATOM      9  N   UNL     1      85.241  53.662  40.822  0.00  0.00    -0.360 N 
ATOM     10  H   UNL     1      84.797  53.704  39.944  0.00  0.00    +0.000 HD
ENDROOT
BRANCH   1  11
ATOM     11  C   UNL     1      84.934  56.733  45.507  0.00  0.00    +0.186 C 
ATOM     12  O   UNL     1      85.651  57.766  45.593  0.00  0.00    -0.287 OA
BRANCH  11  15
ATOM     13  C   UNL     1      83.593  55.118  48.762  0.00  0.00    -0.044 C 
ATOM     14  C   UNL     1      84.557  55.470  47.660  0.00  0.00    -0.072 C 
ATOM     15  C   UNL     1      84.129  56.287  46.675  0.00  0.00    -0.016 C 
ATOM     16  C   UNL     1      85.962  54.924  47.716  0.00  0.00    -0.044 C 
ENDBRANCH  11  15
ENDBRANCH   1  11
BRANCH   7  17
ATOM     17  C   UNL     1      87.663  52.336  43.283  0.00  0.00    +0.003 C 
BRANCH  17  18
ATOM     18  C   UNL     1      87.202  50.937  43.714  0.00  0.00    +0.092 C 
ATOM     19  O   UNL     1      88.213  50.244  44.420  0.00  0.00    -0.365 OA
ATOM     20  C   UNL     1      87.068  50.602  45.163  0.00  0.00    +0.091 C 
ATOM     21  C   UNL     1      87.383  51.633  46.253  0.00  0.00    -0.034 C 
ATOM     22  C   UNL     1      86.220  49.383  45.529  0.00  0.00    -0.034 C 
ENDBRANCH  17  18
ENDBRANCH   7  17
TORSDOF 4
ENDMDL
MODEL 9
REMARK VINA RESULT:    -7.667      4.021      6.040
REMARK INTER + INTRA:         -10.125
REMARK INTER:                  -9.249
REMARK INTRA:                  -0.876
REMARK UNBOUND:                -0.665
REMARK  Name = 
REMARK  8 active torsions:
REMARK  status: ('A' for Active; 'I' for Inactive)
REMARK    1  A    between atoms: C_1  and  C_2
REMARK    2  A    between atoms: C_2  and  C_21
REMARK    3  A    between atoms: C_3  and  C_4
REMARK    4  A    between atoms: C_4  and  C_6
REMARK    5  A    between atoms: C_12  and  C_15
REMARK    6  A    between atoms: C_15  and  C_16
REMARK    7  A    between atoms: C_18  and  C_19
REMARK    8  A    between atoms: C_18  and  C_20
REMARK                            x       y       z     vdW  Elec       q    Type
REMARK                         _______ _______ _______ _____ _____    ______ ____
ROOT
ATOM      1  C   UNL     1      82.630  49.956  43.490  0.00  0.00    +0.022 A 
ATOM      2  C   UNL     1      81.825  50.450  42.426  0.00  0.00    -0.049 A 
ATOM      3  C   UNL     1      81.933  51.785  41.996  0.00  0.00    -0.037 A 
ATOM      4  C   UNL     1      82.851  52.607  42.643  0.00  0.00    +0.047 A 
ATOM      5  C   UNL     1      83.625  52.148  43.675  0.00  0.00    +0.004 A 
ATOM      6  C   UNL     1      83.536  50.835  44.133  0.00  0.00    -0.042 A 
ATOM      7  C   UNL     1      84.389  53.215  44.107  0.00  0.00    -0.020 A 
ATOM      8  C   UNL     1      84.016  54.292  43.309  0.00  0.00    +0.006 A 
ATOM      9  N   UNL     1      83.081  53.911  42.409  0.00  0.00    -0.360 N 
ATOM     10  H   UNL     1      82.656  54.475  41.722  0.00  0.00    +0.000 HD
ENDROOT
BRANCH   1  11
ATOM     11  C   UNL     1      82.515  48.549  43.960  0.00  0.00    +0.186 C 
ATOM     12  O   UNL     1      83.530  47.991  44.458  0.00  0.00    -0.287 OA
BRANCH  11  15
ATOM     13  C   UNL     1      78.964  47.036  44.270  0.00  0.00    -0.044 C 
ATOM     14  C   UNL     1      80.155  47.902  44.580  0.00  0.00    -0.072 C 
ATOM     15  C   UNL     1      81.249  47.786  43.799  0.00  0.00    -0.016 C 
ATOM     16  C   UNL     1      80.068  48.882  45.724  0.00  0.00    -0.044 C 
ENDBRANCH  11  15
ENDBRANCH   1  11
BRANCH   7  17
ATOM     17  C   UNL     1      85.302  53.259  45.293  0.00  0.00    +0.003 C 
BRANCH  17  18
ATOM     18  C   UNL     1      84.490  53.570  46.558  0.00  0.00    +0.092 C 
ATOM     19  O   UNL     1      85.293  53.534  47.721  0.00  0.00    -0.365 OA
ATOM     20  C   UNL     1      84.781  54.797  47.358  0.00  0.00    +0.091 C 
ATOM     21  C   UNL     1      85.889  55.774  46.945  0.00  0.00    -0.034 C 
ATOM     22  C   UNL     1      83.702  55.279  48.328  0.00  0.00    -0.034 C 
ENDBRANCH  17  18
ENDBRANCH   7  17
TORSDOF 4
ENDMDL
