MODEL 1
REMARK VINA RESULT:    -7.446      0.000      0.000
REMARK INTER + INTRA:         -11.576
REMARK INTER:                 -10.260
REMARK INTRA:                  -1.316
REMARK UNBOUND:                -1.300
REMARK  Name = 
REMARK  8 active torsions:
REMARK  status: ('A' for Active; 'I' for Inactive)
REMARK    1  A    between atoms: C_2  and  C_3
REMARK    2  A    between atoms: C_4  and  O_5
REMARK    3  A    between atoms: C_6  and  C_7
REMARK    4  A    between atoms: C_7  and  C_9
REMARK    5  A    between atoms: C_10  and  C_11
REMARK    6  A    between atoms: C_17  and  O_23
REMARK    7  A    between atoms: C_18  and  C_21
REMARK    8  A    between atoms: C_19  and  O_20
REMARK                            x       y       z     vdW  Elec       q    Type
REMARK                         _______ _______ _______ _____ _____    ______ ____
ROOT
ATOM      1  C   UNL     1      94.650  69.311  49.240  0.00  0.00    +0.098 A 
ATOM      2  C   UNL     1      95.281  69.173  47.982  0.00  0.00    +0.145 A 
ATOM      3  C   UNL     1      94.520  68.869  46.839  0.00  0.00    +0.106 A 
ATOM      4  C   UNL     1      93.116  68.748  46.935  0.00  0.00    +0.145 A 
ATOM      5  C   UNL     1      92.473  68.949  48.176  0.00  0.00    +0.098 A 
ATOM      6  C   UNL     1      93.243  69.210  49.329  0.00  0.00    +0.144 A 
ENDROOT
BRANCH   1   8
ATOM      7  O   UNL     1      96.435  68.840  50.746  0.00  0.00    -0.295 OA
ATOM      8  C   UNL     1      95.447  69.564  50.459  0.00  0.00    +0.157 C 
ENDBRANCH   1   8
BRANCH   2   9
ATOM      9  O   UNL     1      96.657  69.381  47.829  0.00  0.00    -0.505 OA
ATOM     10  H   UNL     1      97.143  69.816  48.503  0.00  0.00    +0.000 HD
ENDBRANCH   2   9
BRANCH   3  11
ATOM     11  C   UNL     1      95.201  68.734  45.533  0.00  0.00    +0.193 C 
ATOM     12  O   UNL     1      95.490  69.772  44.876  0.00  0.00    -0.287 OA
BRANCH  11  13
ATOM     13  C   UNL     1      95.547  67.396  45.011  0.00  0.00    -0.014 C 
ATOM     14  C   UNL     1      96.754  66.844  45.203  0.00  0.00    -0.051 C 
BRANCH  14  15
ATOM     15  C   UNL     1      97.139  65.508  44.686  0.00  0.00    -0.025 A 
ATOM     16  C   UNL     1      97.921  65.341  43.525  0.00  0.00    -0.055 A 
ATOM     17  C   UNL     1      98.247  64.058  43.071  0.00  0.00    -0.061 A 
ATOM     18  C   UNL     1      97.791  62.933  43.760  0.00  0.00    -0.062 A 
ATOM     19  C   UNL     1      97.004  63.086  44.903  0.00  0.00    -0.061 A 
ATOM     20  C   UNL     1      96.674  64.365  45.360  0.00  0.00    -0.055 A 
ENDBRANCH  14  15
ENDBRANCH  11  13
ENDBRANCH   3  11
BRANCH   6  21
ATOM     21  O   UNL     1      92.584  69.342  50.557  0.00  0.00    -0.505 OA
ATOM     22  H   UNL     1      93.074  69.520  51.336  0.00  0.00    +0.000 HD
ENDBRANCH   6  21
BRANCH   5  23
ATOM     23  C   UNL     1      90.994  68.857  48.305  0.00  0.00    +0.157 C 
ATOM     24  O   UNL     1      90.220  69.574  47.617  0.00  0.00    -0.295 OA
ENDBRANCH   5  23
BRANCH   4  25
ATOM     25  O   UNL     1      92.350  68.408  45.815  0.00  0.00    -0.505 OA
ATOM     26  H   UNL     1      91.932  69.079  45.312  0.00  0.00    +0.000 HD
ENDBRANCH   4  25
TORSDOF 8
ENDMDL
MODEL 2
REMARK VINA RESULT:    -7.381     16.882     19.291
REMARK INTER + INTRA:         -11.487
REMARK INTER:                 -10.262
REMARK INTRA:                  -1.225
REMARK UNBOUND:                -1.300
REMARK  Name = 
REMARK  8 active torsions:
REMARK  status: ('A' for Active; 'I' for Inactive)
REMARK    1  A    between atoms: C_2  and  C_3
REMARK    2  A    between atoms: C_4  and  O_5
REMARK    3  A    between atoms: C_6  and  C_7
REMARK    4  A    between atoms: C_7  and  C_9
REMARK    5  A    between atoms: C_10  and  C_11
REMARK    6  A    between atoms: C_17  and  O_23
REMARK    7  A    between atoms: C_18  and  C_21
REMARK    8  A    between atoms: C_19  and  O_20
REMARK                            x       y       z     vdW  Elec       q    Type
REMARK                         _______ _______ _______ _____ _____    ______ ____
ROOT
ATOM      1  C   UNL     1      87.173  51.832  41.194  0.00  0.00    +0.098 A 
ATOM      2  C   UNL     1      86.471  51.240  42.269  0.00  0.00    +0.145 A 
ATOM      3  C   UNL     1      85.185  51.696  42.611  0.00  0.00    +0.106 A 
ATOM      4  C   UNL     1      84.570  52.714  41.849  0.00  0.00    +0.145 A 
ATOM      5  C   UNL     1      85.239  53.264  40.733  0.00  0.00    +0.098 A 
ATOM      6  C   UNL     1      86.546  52.835  40.420  0.00  0.00    +0.144 A 
ENDROOT
BRANCH   1   8
ATOM      7  O   UNL     1      88.877  51.129  39.685  0.00  0.00    -0.295 OA
ATOM      8  C   UNL     1      88.551  51.407  40.868  0.00  0.00    +0.157 C 
ENDBRANCH   1   8
BRANCH   2   9
ATOM      9  O   UNL     1      87.008  50.164  42.987  0.00  0.00    -0.505 OA
ATOM     10  H   UNL     1      87.928  49.988  42.949  0.00  0.00    +0.000 HD
ENDBRANCH   2   9
BRANCH   3  11
ATOM     11  C   UNL     1      84.468  51.059  43.737  0.00  0.00    +0.193 C 
ATOM     12  O   UNL     1      84.184  49.832  43.673  0.00  0.00    -0.287 OA
BRANCH  11  13
ATOM     13  C   UNL     1      84.101  51.854  44.928  0.00  0.00    -0.014 C 
ATOM     14  C   UNL     1      84.871  52.851  45.387  0.00  0.00    -0.051 C 
BRANCH  14  15
ATOM     15  C   UNL     1      84.539  53.663  46.583  0.00  0.00    -0.025 A 
ATOM     16  C   UNL     1      84.157  53.083  47.811  0.00  0.00    -0.055 A 
ATOM     17  C   UNL     1      83.841  53.894  48.906  0.00  0.00    -0.061 A 
ATOM     18  C   UNL     1      83.892  55.284  48.790  0.00  0.00    -0.062 A 
ATOM     19  C   UNL     1      84.254  55.869  47.575  0.00  0.00    -0.061 A 
ATOM     20  C   UNL     1      84.570  55.064  46.476  0.00  0.00    -0.055 A 
ENDBRANCH  14  15
ENDBRANCH  11  13
ENDBRANCH   3  11
BRANCH   6  21
ATOM     21  O   UNL     1      87.210  53.442  39.347  0.00  0.00    -0.505 OA
ATOM     22  H   UNL     1      87.004  53.194  38.467  0.00  0.00    +0.000 HD
ENDBRANCH   6  21
BRANCH   5  23
ATOM     23  C   UNL     1      84.606  54.316  39.893  0.00  0.00    +0.157 C 
ATOM     24  O   UNL     1      85.161  55.428  39.690  0.00  0.00    -0.295 OA
ENDBRANCH   5  23
BRANCH   4  25
ATOM     25  O   UNL     1      83.307  53.205  42.200  0.00  0.00    -0.505 OA
ATOM     26  H   UNL     1      83.127  54.122  42.134  0.00  0.00    +0.000 HD
ENDBRANCH   4  25
TORSDOF 8
ENDMDL
MODEL 3
REMARK VINA RESULT:    -7.369     18.518     21.099
REMARK INTER + INTRA:         -11.470
REMARK INTER:                 -10.206
REMARK INTRA:                  -1.264
REMARK UNBOUND:                -1.300
REMARK  Name = 
REMARK  8 active torsions:
REMARK  status: ('A' for Active; 'I' for Inactive)
REMARK    1  A    between atoms: C_2  and  C_3
REMARK    2  A    between atoms: C_4  and  O_5
REMARK    3  A    between atoms: C_6  and  C_7
REMARK    4  A    between atoms: C_7  and  C_9
REMARK    5  A    between atoms: C_10  and  C_11
REMARK    6  A    between atoms: C_17  and  O_23
REMARK    7  A    between atoms: C_18  and  C_21
REMARK    8  A    between atoms: C_19  and  O_20
REMARK                            x       y       z     vdW  Elec       q    Type
REMARK                         _______ _______ _______ _____ _____    ______ ____
ROOT
ATOM      1  C   UNL     1      84.978  53.586  40.939  0.00  0.00    +0.098 A 
ATOM      2  C   UNL     1      84.335  53.173  42.128  0.00  0.00    +0.145 A 
ATOM      3  C   UNL     1      84.900  52.158  42.922  0.00  0.00    +0.106 A 
ATOM      4  C   UNL     1      86.137  51.583  42.559  0.00  0.00    +0.145 A 
ATOM      5  C   UNL     1      86.818  52.038  41.408  0.00  0.00    +0.098 A 
ATOM      6  C   UNL     1      86.228  53.024  40.591  0.00  0.00    +0.144 A 
ENDROOT
BRANCH   1   8
ATOM      7  O   UNL     1      84.964  55.675  39.793  0.00  0.00    -0.295 OA
ATOM      8  C   UNL     1      84.361  54.604  40.062  0.00  0.00    +0.157 C 
ENDBRANCH   1   8
BRANCH   2   9
ATOM      9  O   UNL     1      83.156  53.786  42.571  0.00  0.00    -0.505 OA
ATOM     10  H   UNL     1      82.483  54.006  41.957  0.00  0.00    +0.000 HD
ENDBRANCH   2   9
BRANCH   3  11
ATOM     11  C   UNL     1      84.210  51.745  44.163  0.00  0.00    +0.193 C 
ATOM     12  O   UNL     1      84.187  52.533  45.149  0.00  0.00    -0.287 OA
BRANCH  11  13
ATOM     13  C   UNL     1      83.548  50.427  44.241  0.00  0.00    -0.014 C 
ATOM     14  C   UNL     1      82.309  50.220  43.771  0.00  0.00    -0.051 C 
BRANCH  14  15
ATOM     15  C   UNL     1      81.610  48.914  43.841  0.00  0.00    -0.025 A 
ATOM     16  C   UNL     1      80.208  48.809  43.952  0.00  0.00    -0.055 A 
ATOM     17  C   UNL     1      79.598  47.552  44.027  0.00  0.00    -0.061 A 
ATOM     18  C   UNL     1      80.374  46.392  44.000  0.00  0.00    -0.062 A 
ATOM     19  C   UNL     1      81.763  46.484  43.905  0.00  0.00    -0.061 A 
ATOM     20  C   UNL     1      82.379  47.737  43.832  0.00  0.00    -0.055 A 
ENDBRANCH  14  15
ENDBRANCH  11  13
ENDBRANCH   3  11
BRANCH   6  21
ATOM     21  O   UNL     1      86.895  53.411  39.422  0.00  0.00    -0.505 OA
ATOM     22  H   UNL     1      87.144  52.766  38.788  0.00  0.00    +0.000 HD
ENDBRANCH   6  21
BRANCH   5  23
ATOM     23  C   UNL     1      88.137  51.473  41.016  0.00  0.00    +0.157 C 
ATOM     24  O   UNL     1      88.393  51.143  39.828  0.00  0.00    -0.295 OA
ENDBRANCH   5  23
BRANCH   4  25
ATOM     25  O   UNL     1      86.693  50.547  43.318  0.00  0.00    -0.505 OA
ATOM     26  H   UNL     1      86.754  49.684  42.958  0.00  0.00    +0.000 HD
ENDBRANCH   4  25
TORSDOF 8
ENDMDL
MODEL 4
REMARK VINA RESULT:    -7.328     15.056     17.060
REMARK INTER + INTRA:         -11.413
REMARK INTER:                 -10.042
REMARK INTRA:                  -1.371
REMARK UNBOUND:                -1.300
REMARK  Name = 
REMARK  8 active torsions:
REMARK  status: ('A' for Active; 'I' for Inactive)
REMARK    1  A    between atoms: C_2  and  C_3
REMARK    2  A    between atoms: C_4  and  O_5
REMARK    3  A    between atoms: C_6  and  C_7
REMARK    4  A    between atoms: C_7  and  C_9
REMARK    5  A    between atoms: C_10  and  C_11
REMARK    6  A    between atoms: C_17  and  O_23
REMARK    7  A    between atoms: C_18  and  C_21
REMARK    8  A    between atoms: C_19  and  O_20
REMARK                            x       y       z     vdW  Elec       q    Type
REMARK                         _______ _______ _______ _____ _____    ______ ____
ROOT
ATOM      1  C   UNL     1      85.588  56.334  44.754  0.00  0.00    +0.098 A 
ATOM      2  C   UNL     1      85.341  55.304  43.817  0.00  0.00    +0.145 A 
ATOM      3  C   UNL     1      84.917  54.036  44.255  0.00  0.00    +0.106 A 
ATOM      4  C   UNL     1      84.688  53.803  45.629  0.00  0.00    +0.145 A 
ATOM      5  C   UNL     1      84.870  54.846  46.563  0.00  0.00    +0.098 A 
ATOM      6  C   UNL     1      85.337  56.103  46.126  0.00  0.00    +0.144 A 
ENDROOT
BRANCH   1   8
ATOM      7  O   UNL     1      85.485  58.319  43.441  0.00  0.00    -0.295 OA
ATOM      8  C   UNL     1      86.098  57.649  44.312  0.00  0.00    +0.157 C 
ENDBRANCH   1   8
BRANCH   2   9
ATOM      9  O   UNL     1      85.464  55.526  42.440  0.00  0.00    -0.505 OA
ATOM     10  H   UNL     1      86.074  55.022  41.937  0.00  0.00    +0.000 HD
ENDBRANCH   2   9
BRANCH   3  11
ATOM     11  C   UNL     1      84.661  52.975  43.256  0.00  0.00    +0.193 C 
ATOM     12  O   UNL     1      83.543  52.934  42.672  0.00  0.00    -0.287 OA
BRANCH  11  13
ATOM     13  C   UNL     1      85.709  51.983  42.942  0.00  0.00    -0.014 C 
ATOM     14  C   UNL     1      86.959  52.090  43.417  0.00  0.00    -0.051 C 
BRANCH  14  15
ATOM     15  C   UNL     1      88.039  51.118  43.115  0.00  0.00    -0.025 A 
ATOM     16  C   UNL     1      88.287  49.986  43.918  0.00  0.00    -0.055 A 
ATOM     17  C   UNL     1      89.326  49.107  43.597  0.00  0.00    -0.061 A 
ATOM     18  C   UNL     1      90.132  49.348  42.483  0.00  0.00    -0.062 A 
ATOM     19  C   UNL     1      89.905  50.474  41.689  0.00  0.00    -0.061 A 
ATOM     20  C   UNL     1      88.869  51.357  42.005  0.00  0.00    -0.055 A 
ENDBRANCH  14  15
ENDBRANCH  11  13
ENDBRANCH   3  11
BRANCH   6  21
ATOM     21  O   UNL     1      85.569  57.100  47.082  0.00  0.00    -0.505 OA
ATOM     22  H   UNL     1      86.134  56.930  47.810  0.00  0.00    +0.000 HD
ENDBRANCH   6  21
BRANCH   5  23
ATOM     23  C   UNL     1      84.609  54.640  48.014  0.00  0.00    +0.157 C 
ATOM     24  O   UNL     1      83.751  55.318  48.639  0.00  0.00    -0.295 OA
ENDBRANCH   5  23
BRANCH   4  25
ATOM     25  O   UNL     1      84.303  52.536  46.084  0.00  0.00    -0.505 OA
ATOM     26  H   UNL     1      83.470  52.422  46.498  0.00  0.00    +0.000 HD
ENDBRANCH   4  25
TORSDOF 8
ENDMDL
MODEL 5
REMARK VINA RESULT:    -7.328     18.496     21.040
REMARK INTER + INTRA:         -11.413
REMARK INTER:                 -10.166
REMARK INTRA:                  -1.248
REMARK UNBOUND:                -1.300
REMARK  Name = 
REMARK  8 active torsions:
REMARK  status: ('A' for Active; 'I' for Inactive)
REMARK    1  A    between atoms: C_2  and  C_3
REMARK    2  A    between atoms: C_4  and  O_5
REMARK    3  A    between atoms: C_6  and  C_7
REMARK    4  A    between atoms: C_7  and  C_9
REMARK    5  A    between atoms: C_10  and  C_11
REMARK    6  A    between atoms: C_17  and  O_23
REMARK    7  A    between atoms: C_18  and  C_21
REMARK    8  A    between atoms: C_19  and  O_20
REMARK                            x       y       z     vdW  Elec       q    Type
REMARK                         _______ _______ _______ _____ _____    ______ ____
ROOT
ATOM      1  C   UNL     1      87.432  51.767  41.096  0.00  0.00    +0.098 A 
ATOM      2  C   UNL     1      86.930  51.133  42.256  0.00  0.00    +0.145 A 
ATOM      3  C   UNL     1      85.695  51.530  42.801  0.00  0.00    +0.106 A 
ATOM      4  C   UNL     1      84.930  52.531  42.163  0.00  0.00    +0.145 A 
ATOM      5  C   UNL     1      85.395  53.122  40.968  0.00  0.00    +0.098 A 
ATOM      6  C   UNL     1      86.653  52.752  40.448  0.00  0.00    +0.144 A 
ENDROOT
BRANCH   1   8
ATOM      7  O   UNL     1      88.933  51.273  39.314  0.00  0.00    -0.295 OA
ATOM      8  C   UNL     1      88.758  51.404  40.553  0.00  0.00    +0.157 C 
ENDBRANCH   1   8
BRANCH   2   9
ATOM      9  O   UNL     1      87.614  50.071  42.861  0.00  0.00    -0.505 OA
ATOM     10  H   UNL     1      87.223  49.220  42.893  0.00  0.00    +0.000 HD
ENDBRANCH   2   9
BRANCH   3  11
ATOM     11  C   UNL     1      85.189  50.850  44.013  0.00  0.00    +0.193 C 
ATOM     12  O   UNL     1      85.644  51.179  45.143  0.00  0.00    -0.287 OA
BRANCH  11  13
ATOM     13  C   UNL     1      84.153  49.803  43.898  0.00  0.00    -0.014 C 
ATOM     14  C   UNL     1      82.896  49.990  44.328  0.00  0.00    -0.051 C 
BRANCH  14  15
ATOM     15  C   UNL     1      81.834  48.959  44.237  0.00  0.00    -0.025 A 
ATOM     16  C   UNL     1      80.474  49.247  44.475  0.00  0.00    -0.055 A 
ATOM     17  C   UNL     1      79.512  48.236  44.389  0.00  0.00    -0.061 A 
ATOM     18  C   UNL     1      79.892  46.930  44.075  0.00  0.00    -0.062 A 
ATOM     19  C   UNL     1      81.237  46.629  43.852  0.00  0.00    -0.061 A 
ATOM     20  C   UNL     1      82.203  47.635  43.938  0.00  0.00    -0.055 A 
ENDBRANCH  14  15
ENDBRANCH  11  13
ENDBRANCH   3  11
BRANCH   6  21
ATOM     21  O   UNL     1      87.117  53.400  39.297  0.00  0.00    -0.505 OA
ATOM     22  H   UNL     1      87.209  54.333  39.288  0.00  0.00    +0.000 HD
ENDBRANCH   6  21
BRANCH   5  23
ATOM     23  C   UNL     1      84.598  54.157  40.256  0.00  0.00    +0.157 C 
ATOM     24  O   UNL     1      84.980  55.355  40.180  0.00  0.00    -0.295 OA
ENDBRANCH   5  23
BRANCH   4  25
ATOM     25  O   UNL     1      83.718  52.964  42.715  0.00  0.00    -0.505 OA
ATOM     26  H   UNL     1      82.947  52.991  42.185  0.00  0.00    +0.000 HD
ENDBRANCH   4  25
TORSDOF 8
ENDMDL
MODEL 6
REMARK VINA RESULT:    -7.188     17.347     20.298
REMARK INTER + INTRA:         -11.219
REMARK INTER:                 -10.250
REMARK INTRA:                  -0.969
REMARK UNBOUND:                -1.300
REMARK  Name = 
REMARK  8 active torsions:
REMARK  status: ('A' for Active; 'I' for Inactive)
REMARK    1  A    between atoms: C_2  and  C_3
REMARK    2  A    between atoms: C_4  and  O_5
REMARK    3  A    between atoms: C_6  and  C_7
REMARK    4  A    between atoms: C_7  and  C_9
REMARK    5  A    between atoms: C_10  and  C_11
REMARK    6  A    between atoms: C_17  and  O_23
REMARK    7  A    between atoms: C_18  and  C_21
REMARK    8  A    between atoms: C_19  and  O_20
REMARK                            x       y       z     vdW  Elec       q    Type
REMARK                         _______ _______ _______ _____ _____    ______ ____
ROOT
ATOM      1  C   UNL     1      86.725  48.020  43.242  0.00  0.00    +0.098 A 
ATOM      2  C   UNL     1      86.428  48.591  44.501  0.00  0.00    +0.145 A 
ATOM      3  C   UNL     1      86.854  49.898  44.803  0.00  0.00    +0.106 A 
ATOM      4  C   UNL     1      87.537  50.662  43.832  0.00  0.00    +0.145 A 
ATOM      5  C   UNL     1      87.779  50.121  42.550  0.00  0.00    +0.098 A 
ATOM      6  C   UNL     1      87.390  48.796  42.265  0.00  0.00    +0.144 A 
ENDROOT
BRANCH   1   8
ATOM      7  O   UNL     1      85.144  46.251  43.030  0.00  0.00    -0.295 OA
ATOM      8  C   UNL     1      86.342  46.626  42.938  0.00  0.00    +0.157 C 
ENDBRANCH   1   8
BRANCH   2   9
ATOM      9  O   UNL     1      85.670  47.901  45.454  0.00  0.00    -0.505 OA
ATOM     10  H   UNL     1      85.340  47.046  45.261  0.00  0.00    +0.000 HD
ENDBRANCH   2   9
BRANCH   3  11
ATOM     11  C   UNL     1      86.527  50.476  46.125  0.00  0.00    +0.193 C 
ATOM     12  O   UNL     1      86.842  49.843  47.171  0.00  0.00    -0.287 OA
BRANCH  11  13
ATOM     13  C   UNL     1      85.849  51.785  46.216  0.00  0.00    -0.014 C 
ATOM     14  C   UNL     1      85.952  52.570  47.299  0.00  0.00    -0.051 C 
BRANCH  14  15
ATOM     15  C   UNL     1      85.278  53.885  47.428  0.00  0.00    -0.025 A 
ATOM     16  C   UNL     1      84.017  54.034  48.042  0.00  0.00    -0.055 A 
ATOM     17  C   UNL     1      83.418  55.295  48.128  0.00  0.00    -0.061 A 
ATOM     18  C   UNL     1      84.060  56.415  47.598  0.00  0.00    -0.062 A 
ATOM     19  C   UNL     1      85.302  56.278  46.974  0.00  0.00    -0.061 A 
ATOM     20  C   UNL     1      85.905  55.020  46.884  0.00  0.00    -0.055 A 
ENDBRANCH  14  15
ENDBRANCH  11  13
ENDBRANCH   3  11
BRANCH   6  21
ATOM     21  O   UNL     1      87.699  48.264  41.007  0.00  0.00    -0.505 OA
ATOM     22  H   UNL     1      87.727  47.335  40.883  0.00  0.00    +0.000 HD
ENDBRANCH   6  21
BRANCH   5  23
ATOM     23  C   UNL     1      88.470  50.911  41.495  0.00  0.00    +0.157 C 
ATOM     24  O   UNL     1      87.924  51.166  40.389  0.00  0.00    -0.295 OA
ENDBRANCH   5  23
BRANCH   4  25
ATOM     25  O   UNL     1      88.000  51.948  44.130  0.00  0.00    -0.505 OA
ATOM     26  H   UNL     1      87.956  52.623  43.482  0.00  0.00    +0.000 HD
ENDBRANCH   4  25
TORSDOF 8
ENDMDL
MODEL 7
REMARK VINA RESULT:    -7.184     17.356     20.238
REMARK INTER + INTRA:         -11.214
REMARK INTER:                 -10.288
REMARK INTRA:                  -0.926
REMARK UNBOUND:                -1.300
REMARK  Name = 
REMARK  8 active torsions:
REMARK  status: ('A' for Active; 'I' for Inactive)
REMARK    1  A    between atoms: C_2  and  C_3
REMARK    2  A    between atoms: C_4  and  O_5
REMARK    3  A    between atoms: C_6  and  C_7
REMARK    4  A    between atoms: C_7  and  C_9
REMARK    5  A    between atoms: C_10  and  C_11
REMARK    6  A    between atoms: C_17  and  O_23
REMARK    7  A    between atoms: C_18  and  C_21
REMARK    8  A    between atoms: C_19  and  O_20
REMARK                            x       y       z     vdW  Elec       q    Type
REMARK                         _______ _______ _______ _____ _____    ______ ____
ROOT
ATOM      1  C   UNL     1      87.766  50.145  42.580  0.00  0.00    +0.098 A 
ATOM      2  C   UNL     1      87.491  50.668  43.864  0.00  0.00    +0.145 A 
ATOM      3  C   UNL     1      86.792  49.894  44.809  0.00  0.00    +0.106 A 
ATOM      4  C   UNL     1      86.405  48.573  44.493  0.00  0.00    +0.145 A 
ATOM      5  C   UNL     1      86.735  48.021  43.236  0.00  0.00    +0.098 A 
ATOM      6  C   UNL     1      87.397  48.814  42.276  0.00  0.00    +0.144 A 
ENDROOT
BRANCH   1   8
ATOM      7  O   UNL     1      87.887  51.212  40.453  0.00  0.00    -0.295 OA
ATOM      8  C   UNL     1      88.441  50.972  41.558  0.00  0.00    +0.157 C 
ENDBRANCH   1   8
BRANCH   2   9
ATOM      9  O   UNL     1      87.943  51.937  44.247  0.00  0.00    -0.505 OA
ATOM     10  H   UNL     1      88.862  52.104  44.326  0.00  0.00    +0.000 HD
ENDBRANCH   2   9
BRANCH   3  11
ATOM     11  C   UNL     1      86.519  50.462  46.148  0.00  0.00    +0.193 C 
ATOM     12  O   UNL     1      86.917  49.843  47.173  0.00  0.00    -0.287 OA
BRANCH  11  13
ATOM     13  C   UNL     1      85.798  51.744  46.277  0.00  0.00    -0.014 C 
ATOM     14  C   UNL     1      86.029  52.596  47.287  0.00  0.00    -0.051 C 
BRANCH  14  15
ATOM     15  C   UNL     1      85.318  53.886  47.454  0.00  0.00    -0.025 A 
ATOM     16  C   UNL     1      84.090  53.993  48.140  0.00  0.00    -0.055 A 
ATOM     17  C   UNL     1      83.453  55.233  48.258  0.00  0.00    -0.061 A 
ATOM     18  C   UNL     1      84.023  56.373  47.690  0.00  0.00    -0.062 A 
ATOM     19  C   UNL     1      85.230  56.277  46.995  0.00  0.00    -0.061 A 
ATOM     20  C   UNL     1      85.871  55.041  46.872  0.00  0.00    -0.055 A 
ENDBRANCH  14  15
ENDBRANCH  11  13
ENDBRANCH   3  11
BRANCH   6  21
ATOM     21  O   UNL     1      87.655  48.262  41.015  0.00  0.00    -0.505 OA
ATOM     22  H   UNL     1      88.383  48.566  40.509  0.00  0.00    +0.000 HD
ENDBRANCH   6  21
BRANCH   5  23
ATOM     23  C   UNL     1      86.367  46.623  42.885  0.00  0.00    +0.157 C 
ATOM     24  O   UNL     1      85.167  46.257  42.780  0.00  0.00    -0.295 OA
ENDBRANCH   5  23
BRANCH   4  25
ATOM     25  O   UNL     1      85.676  47.805  45.408  0.00  0.00    -0.505 OA
ATOM     26  H   UNL     1      85.389  48.185  46.215  0.00  0.00    +0.000 HD
ENDBRANCH   4  25
TORSDOF 8
ENDMDL
MODEL 8
REMARK VINA RESULT:    -7.175     15.237     17.256
REMARK INTER + INTRA:         -11.202
REMARK INTER:                  -9.862
REMARK INTRA:                  -1.340
REMARK UNBOUND:                -1.300
REMARK  Name = 
REMARK  8 active torsions:
REMARK  status: ('A' for Active; 'I' for Inactive)
REMARK    1  A    between atoms: C_2  and  C_3
REMARK    2  A    between atoms: C_4  and  O_5
REMARK    3  A    between atoms: C_6  and  C_7
REMARK    4  A    between atoms: C_7  and  C_9
REMARK    5  A    between atoms: C_10  and  C_11
REMARK    6  A    between atoms: C_17  and  O_23
REMARK    7  A    between atoms: C_18  and  C_21
REMARK    8  A    between atoms: C_19  and  O_20
REMARK                            x       y       z     vdW  Elec       q    Type
REMARK                         _______ _______ _______ _____ _____    ______ ____
ROOT
ATOM      1  C   UNL     1      84.870  54.647  46.502  0.00  0.00    +0.098 A 
ATOM      2  C   UNL     1      84.673  53.617  45.553  0.00  0.00    +0.145 A 
ATOM      3  C   UNL     1      84.926  53.854  44.189  0.00  0.00    +0.106 A 
ATOM      4  C   UNL     1      85.425  55.106  43.770  0.00  0.00    +0.145 A 
ATOM      5  C   UNL     1      85.687  56.117  44.721  0.00  0.00    +0.098 A 
ATOM      6  C   UNL     1      85.391  55.892  46.081  0.00  0.00    +0.144 A 
ENDROOT
BRANCH   1   8
ATOM      7  O   UNL     1      83.581  53.693  48.264  0.00  0.00    -0.295 OA
ATOM      8  C   UNL     1      84.544  54.431  47.927  0.00  0.00    +0.157 C 
ENDBRANCH   1   8
BRANCH   2   9
ATOM      9  O   UNL     1      84.271  52.334  45.942  0.00  0.00    -0.505 OA
ATOM     10  H   UNL     1      83.436  52.003  45.674  0.00  0.00    +0.000 HD
ENDBRANCH   2   9
BRANCH   3  11
ATOM     11  C   UNL     1      84.716  52.760  43.216  0.00  0.00    +0.193 C 
ATOM     12  O   UNL     1      83.555  52.542  42.773  0.00  0.00    -0.287 OA
BRANCH  11  13
ATOM     13  C   UNL     1      85.859  51.941  42.761  0.00  0.00    -0.014 C 
ATOM     14  C   UNL     1      86.868  51.607  43.578  0.00  0.00    -0.051 C 
BRANCH  14  15
ATOM     15  C   UNL     1      88.035  50.795  43.154  0.00  0.00    -0.025 A 
ATOM     16  C   UNL     1      88.519  49.709  43.912  0.00  0.00    -0.055 A 
ATOM     17  C   UNL     1      89.632  48.983  43.474  0.00  0.00    -0.061 A 
ATOM     18  C   UNL     1      90.277  49.333  42.287  0.00  0.00    -0.062 A 
ATOM     19  C   UNL     1      89.815  50.415  41.536  0.00  0.00    -0.061 A 
ATOM     20  C   UNL     1      88.705  51.146  41.969  0.00  0.00    -0.055 A 
ENDBRANCH  14  15
ENDBRANCH  11  13
ENDBRANCH   3  11
BRANCH   6  21
ATOM     21  O   UNL     1      85.601  56.934  46.993  0.00  0.00    -0.505 OA
ATOM     22  H   UNL     1      86.295  57.548  46.852  0.00  0.00    +0.000 HD
ENDBRANCH   6  21
BRANCH   5  23
ATOM     23  C   UNL     1      86.241  57.437  44.314  0.00  0.00    +0.157 C 
ATOM     24  O   UNL     1      85.603  58.224  43.566  0.00  0.00    -0.295 OA
ENDBRANCH   5  23
BRANCH   4  25
ATOM     25  O   UNL     1      85.646  55.369  42.413  0.00  0.00    -0.505 OA
ATOM     26  H   UNL     1      86.392  55.003  41.981  0.00  0.00    +0.000 HD
ENDBRANCH   4  25
TORSDOF 8
ENDMDL
MODEL 9
REMARK VINA RESULT:    -7.010     17.384     19.031
REMARK INTER + INTRA:         -10.974
REMARK INTER:                  -9.674
REMARK INTRA:                  -1.300
REMARK UNBOUND:                -1.300
REMARK  Name = 
REMARK  8 active torsions:
REMARK  status: ('A' for Active; 'I' for Inactive)
REMARK    1  A    between atoms: C_2  and  C_3
REMARK    2  A    between atoms: C_4  and  O_5
REMARK    3  A    between atoms: C_6  and  C_7
REMARK    4  A    between atoms: C_7  and  C_9
REMARK    5  A    between atoms: C_10  and  C_11
REMARK    6  A    between atoms: C_17  and  O_23
REMARK    7  A    between atoms: C_18  and  C_21
REMARK    8  A    between atoms: C_19  and  O_20
REMARK                            x       y       z     vdW  Elec       q    Type
REMARK                         _______ _______ _______ _____ _____    ______ ____
ROOT
ATOM      1  C   UNL     1      82.882  52.281  42.796  0.00  0.00    +0.098 A 
ATOM      2  C   UNL     1      83.906  52.070  43.748  0.00  0.00    +0.145 A 
ATOM      3  C   UNL     1      85.028  52.918  43.780  0.00  0.00    +0.106 A 
ATOM      4  C   UNL     1      85.112  54.013  42.893  0.00  0.00    +0.145 A 
ATOM      5  C   UNL     1      84.062  54.269  41.984  0.00  0.00    +0.098 A 
ATOM      6  C   UNL     1      82.959  53.391  41.924  0.00  0.00    +0.144 A 
ENDROOT
BRANCH   1   8
ATOM      7  O   UNL     1      81.907  50.113  42.639  0.00  0.00    -0.295 OA
ATOM      8  C   UNL     1      81.732  51.357  42.709  0.00  0.00    +0.157 C 
ENDBRANCH   1   8
BRANCH   2   9
ATOM      9  O   UNL     1      83.813  51.054  44.707  0.00  0.00    -0.505 OA
ATOM     10  H   UNL     1      82.975  50.804  45.045  0.00  0.00    +0.000 HD
ENDBRANCH   2   9
BRANCH   3  11
ATOM     11  C   UNL     1      86.084  52.680  44.788  0.00  0.00    +0.193 C 
ATOM     12  O   UNL     1      86.056  53.320  45.876  0.00  0.00    -0.287 OA
BRANCH  11  13
ATOM     13  C   UNL     1      87.154  51.696  44.524  0.00  0.00    -0.014 C 
ATOM     14  C   UNL     1      87.493  51.325  43.281  0.00  0.00    -0.051 C 
BRANCH  14  15
ATOM     15  C   UNL     1      88.554  50.334  42.980  0.00  0.00    -0.025 A 
ATOM     16  C   UNL     1      89.011  49.399  43.931  0.00  0.00    -0.055 A 
ATOM     17  C   UNL     1      90.024  48.492  43.601  0.00  0.00    -0.061 A 
ATOM     18  C   UNL     1      90.597  48.512  42.328  0.00  0.00    -0.062 A 
ATOM     19  C   UNL     1      90.163  49.443  41.383  0.00  0.00    -0.061 A 
ATOM     20  C   UNL     1      89.152  50.352  41.707  0.00  0.00    -0.055 A 
ENDBRANCH  14  15
ENDBRANCH  11  13
ENDBRANCH   3  11
BRANCH   6  21
ATOM     21  O   UNL     1      81.964  53.632  40.970  0.00  0.00    -0.505 OA
ATOM     22  H   UNL     1      81.375  54.354  41.077  0.00  0.00    +0.000 HD
ENDBRANCH   6  21
BRANCH   5  23
ATOM     23  C   UNL     1      84.107  55.431  41.056  0.00  0.00    +0.157 C 
ATOM     24  O   UNL     1      84.981  55.529  40.154  0.00  0.00    -0.295 OA
ENDBRANCH   5  23
BRANCH   4  25
ATOM     25  O   UNL     1      86.239  54.843  42.887  0.00  0.00    -0.505 OA
ATOM     26  H   UNL     1      87.070  54.506  43.159  0.00  0.00    +0.000 HD
ENDBRANCH   4  25
TORSDOF 8
ENDMDL
