MODEL 1
REMARK VINA RESULT:    -7.428      0.000      0.000
REMARK INTER + INTRA:         -10.014
REMARK INTER:                  -9.506
REMARK INTRA:                  -0.508
REMARK UNBOUND:                -0.631
REMARK  Name = 
REMARK  8 active torsions:
REMARK  status: ('A' for Active; 'I' for Inactive)
REMARK    1  A    between atoms: C_2  and  C_3
REMARK    2  A    between atoms: C_2  and  C_14
REMARK    3  A    between atoms: C_4  and  O_5
REMARK    4  A    between atoms: C_6  and  C_7
REMARK    5  A    between atoms: C_8  and  O_13
REMARK    6  A    between atoms: C_9  and  C_12
REMARK    7  A    between atoms: C_10  and  O_11
REMARK    8  A    between atoms: C_15  and  C_16
REMARK                            x       y       z     vdW  Elec       q    Type
REMARK                         _______ _______ _______ _____ _____    ______ ____
ROOT
ATOM      1  C   UNL     1      85.443  55.009  44.149  0.00  0.00    +0.105 A 
ATOM      2  C   UNL     1      84.958  54.148  45.157  0.00  0.00    +0.138 A 
ATOM      3  C   UNL     1      84.478  54.682  46.366  0.00  0.00    +0.034 A 
ATOM      4  C   UNL     1      83.903  53.763  47.416  0.00  0.00    -0.033 C 
ATOM      5  C   UNL     1      84.441  56.075  46.557  0.00  0.00    +0.130 A 
ATOM      6  C   UNL     1      84.994  56.941  45.583  0.00  0.00    +0.034 A 
ATOM      7  C   UNL     1      85.441  56.402  44.353  0.00  0.00    +0.138 A 
ATOM      8  C   UNL     1      85.105  58.424  45.853  0.00  0.00    -0.033 C 
ENDROOT
BRANCH   1  10
ATOM      9  O   UNL     1      85.423  54.803  41.791  0.00  0.00    -0.287 OA
ATOM     10  C   UNL     1      85.964  54.461  42.879  0.00  0.00    +0.193 C 
BRANCH  10  11
ATOM     11  C   UNL     1      87.108  53.526  42.886  0.00  0.00    -0.014 C 
ATOM     12  C   UNL     1      87.018  52.285  42.388  0.00  0.00    -0.051 C 
BRANCH  12  13
ATOM     13  C   UNL     1      88.141  51.315  42.388  0.00  0.00    -0.025 A 
ATOM     14  C   UNL     1      89.116  51.283  41.369  0.00  0.00    -0.055 A 
ATOM     15  C   UNL     1      90.149  50.340  41.408  0.00  0.00    -0.061 A 
ATOM     16  C   UNL     1      90.217  49.417  42.452  0.00  0.00    -0.062 A 
ATOM     17  C   UNL     1      89.249  49.429  43.458  0.00  0.00    -0.061 A 
ATOM     18  C   UNL     1      88.214  50.368  43.424  0.00  0.00    -0.055 A 
ENDBRANCH  12  13
ENDBRANCH  10  11
ENDBRANCH   1  10
BRANCH   2  19
ATOM     19  O   UNL     1      84.909  52.762  44.965  0.00  0.00    -0.506 OA
ATOM     20  H   UNL     1      85.696  52.287  44.781  0.00  0.00    +0.000 HD
ENDBRANCH   2  19
BRANCH   7  21
ATOM     21  O   UNL     1      85.891  57.225  43.314  0.00  0.00    -0.506 OA
ATOM     22  H   UNL     1      85.755  58.152  43.357  0.00  0.00    +0.000 HD
ENDBRANCH   7  21
BRANCH   5  23
ATOM     23  O   UNL     1      83.830  56.571  47.715  0.00  0.00    -0.506 OA
ATOM     24  H   UNL     1      83.149  56.081  48.132  0.00  0.00    +0.000 HD
ENDBRANCH   5  23
TORSDOF 6
ENDMDL
MODEL 2
REMARK VINA RESULT:    -7.407      3.615      8.122
REMARK INTER + INTRA:          -9.986
REMARK INTER:                  -9.384
REMARK INTRA:                  -0.603
REMARK UNBOUND:                -0.631
REMARK  Name = 
REMARK  8 active torsions:
REMARK  status: ('A' for Active; 'I' for Inactive)
REMARK    1  A    between atoms: C_2  and  C_3
REMARK    2  A    between atoms: C_2  and  C_14
REMARK    3  A    between atoms: C_4  and  O_5
REMARK    4  A    between atoms: C_6  and  C_7
REMARK    5  A    between atoms: C_8  and  O_13
REMARK    6  A    between atoms: C_9  and  C_12
REMARK    7  A    between atoms: C_10  and  O_11
REMARK    8  A    between atoms: C_15  and  C_16
REMARK                            x       y       z     vdW  Elec       q    Type
REMARK                         _______ _______ _______ _____ _____    ______ ____
ROOT
ATOM      1  C   UNL     1      88.073  49.232  43.047  0.00  0.00    +0.105 A 
ATOM      2  C   UNL     1      86.826  48.583  42.926  0.00  0.00    +0.138 A 
ATOM      3  C   UNL     1      86.771  47.231  42.541  0.00  0.00    +0.034 A 
ATOM      4  C   UNL     1      85.440  46.524  42.473  0.00  0.00    -0.033 C 
ATOM      5  C   UNL     1      87.960  46.513  42.316  0.00  0.00    +0.130 A 
ATOM      6  C   UNL     1      89.210  47.176  42.361  0.00  0.00    +0.034 A 
ATOM      7  C   UNL     1      89.263  48.525  42.786  0.00  0.00    +0.138 A 
ATOM      8  C   UNL     1      90.475  46.451  41.962  0.00  0.00    -0.033 C 
ENDROOT
BRANCH   1  10
ATOM      9  O   UNL     1      88.575  51.504  42.607  0.00  0.00    -0.287 OA
ATOM     10  C   UNL     1      88.145  50.656  43.438  0.00  0.00    +0.193 C 
BRANCH  10  11
ATOM     11  C   UNL     1      87.714  51.079  44.786  0.00  0.00    -0.014 C 
ATOM     12  C   UNL     1      86.956  52.166  44.985  0.00  0.00    -0.051 C 
BRANCH  12  13
ATOM     13  C   UNL     1      86.513  52.629  46.323  0.00  0.00    -0.025 A 
ATOM     14  C   UNL     1      86.303  51.744  47.401  0.00  0.00    -0.055 A 
ATOM     15  C   UNL     1      85.873  52.229  48.641  0.00  0.00    -0.061 A 
ATOM     16  C   UNL     1      85.640  53.593  48.819  0.00  0.00    -0.062 A 
ATOM     17  C   UNL     1      85.830  54.477  47.754  0.00  0.00    -0.061 A 
ATOM     18  C   UNL     1      86.258  53.998  46.513  0.00  0.00    -0.055 A 
ENDBRANCH  12  13
ENDBRANCH  10  11
ENDBRANCH   1  10
BRANCH   2  19
ATOM     19  O   UNL     1      85.630  49.249  43.220  0.00  0.00    -0.506 OA
ATOM     20  H   UNL     1      85.454  50.085  42.836  0.00  0.00    +0.000 HD
ENDBRANCH   2  19
BRANCH   7  21
ATOM     21  O   UNL     1      90.482  49.192  42.957  0.00  0.00    -0.506 OA
ATOM     22  H   UNL     1      91.281  48.786  42.682  0.00  0.00    +0.000 HD
ENDBRANCH   7  21
BRANCH   5  23
ATOM     23  O   UNL     1      87.869  45.138  42.068  0.00  0.00    -0.506 OA
ATOM     24  H   UNL     1      87.168  44.803  41.544  0.00  0.00    +0.000 HD
ENDBRANCH   5  23
TORSDOF 6
ENDMDL
MODEL 3
REMARK VINA RESULT:    -7.282      3.478      6.911
REMARK INTER + INTRA:          -9.829
REMARK INTER:                  -9.128
REMARK INTRA:                  -0.700
REMARK UNBOUND:                -0.631
REMARK  Name = 
REMARK  8 active torsions:
REMARK  status: ('A' for Active; 'I' for Inactive)
REMARK    1  A    between atoms: C_2  and  C_3
REMARK    2  A    between atoms: C_2  and  C_14
REMARK    3  A    between atoms: C_4  and  O_5
REMARK    4  A    between atoms: C_6  and  C_7
REMARK    5  A    between atoms: C_8  and  O_13
REMARK    6  A    between atoms: C_9  and  C_12
REMARK    7  A    between atoms: C_10  and  O_11
REMARK    8  A    between atoms: C_15  and  C_16
REMARK                            x       y       z     vdW  Elec       q    Type
REMARK                         _______ _______ _______ _____ _____    ______ ____
ROOT
ATOM      1  C   UNL     1      83.481  51.936  42.422  0.00  0.00    +0.105 A 
ATOM      2  C   UNL     1      84.470  51.145  43.044  0.00  0.00    +0.138 A 
ATOM      3  C   UNL     1      84.124  49.906  43.613  0.00  0.00    +0.034 A 
ATOM      4  C   UNL     1      85.195  49.035  44.222  0.00  0.00    -0.033 C 
ATOM      5  C   UNL     1      82.802  49.435  43.525  0.00  0.00    +0.130 A 
ATOM      6  C   UNL     1      81.789  50.254  42.970  0.00  0.00    +0.034 A 
ATOM      7  C   UNL     1      82.149  51.483  42.366  0.00  0.00    +0.138 A 
ATOM      8  C   UNL     1      80.342  49.823  43.020  0.00  0.00    -0.033 C 
ENDROOT
BRANCH   1  10
ATOM      9  O   UNL     1      84.114  53.317  40.605  0.00  0.00    -0.287 OA
ATOM     10  C   UNL     1      83.828  53.247  41.833  0.00  0.00    +0.193 C 
BRANCH  10  11
ATOM     11  C   UNL     1      83.836  54.462  42.674  0.00  0.00    -0.014 C 
ATOM     12  C   UNL     1      84.926  54.858  43.345  0.00  0.00    -0.051 C 
BRANCH  12  13
ATOM     13  C   UNL     1      84.970  56.065  44.207  0.00  0.00    -0.025 A 
ATOM     14  C   UNL     1      84.376  56.106  45.487  0.00  0.00    -0.055 A 
ATOM     15  C   UNL     1      84.435  57.272  46.256  0.00  0.00    -0.061 A 
ATOM     16  C   UNL     1      85.075  58.409  45.761  0.00  0.00    -0.062 A 
ATOM     17  C   UNL     1      85.653  58.385  44.490  0.00  0.00    -0.061 A 
ATOM     18  C   UNL     1      85.597  57.222  43.715  0.00  0.00    -0.055 A 
ENDBRANCH  12  13
ENDBRANCH  10  11
ENDBRANCH   1  10
BRANCH   2  19
ATOM     19  O   UNL     1      85.809  51.551  43.078  0.00  0.00    -0.506 OA
ATOM     20  H   UNL     1      86.035  52.438  42.874  0.00  0.00    +0.000 HD
ENDBRANCH   2  19
BRANCH   7  21
ATOM     21  O   UNL     1      81.206  52.277  41.703  0.00  0.00    -0.506 OA
ATOM     22  H   UNL     1      81.281  52.423  40.780  0.00  0.00    +0.000 HD
ENDBRANCH   7  21
BRANCH   5  23
ATOM     23  O   UNL     1      82.526  48.140  43.981  0.00  0.00    -0.506 OA
ATOM     24  H   UNL     1      83.222  47.598  44.298  0.00  0.00    +0.000 HD
ENDBRANCH   5  23
TORSDOF 6
ENDMDL
MODEL 4
REMARK VINA RESULT:    -7.246      2.895      3.790
REMARK INTER + INTRA:          -9.784
REMARK INTER:                  -8.986
REMARK INTRA:                  -0.798
REMARK UNBOUND:                -0.631
REMARK  Name = 
REMARK  8 active torsions:
REMARK  status: ('A' for Active; 'I' for Inactive)
REMARK    1  A    between atoms: C_2  and  C_3
REMARK    2  A    between atoms: C_2  and  C_14
REMARK    3  A    between atoms: C_4  and  O_5
REMARK    4  A    between atoms: C_6  and  C_7
REMARK    5  A    between atoms: C_8  and  O_13
REMARK    6  A    between atoms: C_9  and  C_12
REMARK    7  A    between atoms: C_10  and  O_11
REMARK    8  A    between atoms: C_15  and  C_16
REMARK                            x       y       z     vdW  Elec       q    Type
REMARK                         _______ _______ _______ _____ _____    ______ ____
ROOT
ATOM      1  C   UNL     1      85.438  52.553  43.546  0.00  0.00    +0.105 A 
ATOM      2  C   UNL     1      84.294  51.731  43.467  0.00  0.00    +0.138 A 
ATOM      3  C   UNL     1      83.222  52.095  42.633  0.00  0.00    +0.034 A 
ATOM      4  C   UNL     1      82.028  51.182  42.504  0.00  0.00    -0.033 C 
ATOM      5  C   UNL     1      83.306  53.257  41.844  0.00  0.00    +0.130 A 
ATOM      6  C   UNL     1      84.416  54.126  41.973  0.00  0.00    +0.034 A 
ATOM      7  C   UNL     1      85.508  53.736  42.786  0.00  0.00    +0.138 A 
ATOM      8  C   UNL     1      84.436  55.454  41.252  0.00  0.00    -0.033 C 
ENDROOT
BRANCH   1  10
ATOM      9  O   UNL     1      86.763  52.854  45.485  0.00  0.00    -0.287 OA
ATOM     10  C   UNL     1      86.566  52.190  44.430  0.00  0.00    +0.193 C 
BRANCH  10  11
ATOM     11  C   UNL     1      87.450  51.059  44.080  0.00  0.00    -0.014 C 
ATOM     12  C   UNL     1      87.785  50.779  42.813  0.00  0.00    -0.051 C 
BRANCH  12  13
ATOM     13  C   UNL     1      88.660  49.646  42.423  0.00  0.00    -0.025 A 
ATOM     14  C   UNL     1      90.031  49.811  42.133  0.00  0.00    -0.055 A 
ATOM     15  C   UNL     1      90.811  48.713  41.758  0.00  0.00    -0.061 A 
ATOM     16  C   UNL     1      90.237  47.444  41.659  0.00  0.00    -0.062 A 
ATOM     17  C   UNL     1      88.878  47.272  41.929  0.00  0.00    -0.061 A 
ATOM     18  C   UNL     1      88.092  48.366  42.303  0.00  0.00    -0.055 A 
ENDBRANCH  12  13
ENDBRANCH  10  11
ENDBRANCH   1  10
BRANCH   2  19
ATOM     19  O   UNL     1      84.215  50.528  44.180  0.00  0.00    -0.506 OA
ATOM     20  H   UNL     1      83.755  50.497  44.996  0.00  0.00    +0.000 HD
ENDBRANCH   2  19
BRANCH   7  21
ATOM     21  O   UNL     1      86.676  54.504  42.859  0.00  0.00    -0.506 OA
ATOM     22  H   UNL     1      86.623  55.440  42.860  0.00  0.00    +0.000 HD
ENDBRANCH   7  21
BRANCH   5  23
ATOM     23  O   UNL     1      82.280  53.512  40.926  0.00  0.00    -0.506 OA
ATOM     24  H   UNL     1      82.347  54.239  40.340  0.00  0.00    +0.000 HD
ENDBRANCH   5  23
TORSDOF 6
ENDMDL
MODEL 5
REMARK VINA RESULT:    -7.231      1.151      2.660
REMARK INTER + INTRA:          -9.765
REMARK INTER:                  -8.979
REMARK INTRA:                  -0.786
REMARK UNBOUND:                -0.631
REMARK  Name = 
REMARK  8 active torsions:
REMARK  status: ('A' for Active; 'I' for Inactive)
REMARK    1  A    between atoms: C_2  and  C_3
REMARK    2  A    between atoms: C_2  and  C_14
REMARK    3  A    between atoms: C_4  and  O_5
REMARK    4  A    between atoms: C_6  and  C_7
REMARK    5  A    between atoms: C_8  and  O_13
REMARK    6  A    between atoms: C_9  and  C_12
REMARK    7  A    between atoms: C_10  and  O_11
REMARK    8  A    between atoms: C_15  and  C_16
REMARK                            x       y       z     vdW  Elec       q    Type
REMARK                         _______ _______ _______ _____ _____    ______ ____
ROOT
ATOM      1  C   UNL     1      85.011  53.914  44.073  0.00  0.00    +0.105 A 
ATOM      2  C   UNL     1      85.412  55.191  43.627  0.00  0.00    +0.138 A 
ATOM      3  C   UNL     1      85.589  56.235  44.553  0.00  0.00    +0.034 A 
ATOM      4  C   UNL     1      86.078  57.582  44.080  0.00  0.00    -0.033 C 
ATOM      5  C   UNL     1      85.407  55.998  45.927  0.00  0.00    +0.130 A 
ATOM      6  C   UNL     1      84.931  54.741  46.375  0.00  0.00    +0.034 A 
ATOM      7  C   UNL     1      84.791  53.684  45.445  0.00  0.00    +0.138 A 
ATOM      8  C   UNL     1      84.578  54.531  47.829  0.00  0.00    -0.033 C 
ENDROOT
BRANCH   1  10
ATOM      9  O   UNL     1      83.642  52.560  42.695  0.00  0.00    -0.287 OA
ATOM     10  C   UNL     1      84.807  52.811  43.110  0.00  0.00    +0.193 C 
BRANCH  10  11
ATOM     11  C   UNL     1      85.959  52.015  42.636  0.00  0.00    -0.014 C 
ATOM     12  C   UNL     1      87.049  51.817  43.391  0.00  0.00    -0.051 C 
BRANCH  12  13
ATOM     13  C   UNL     1      88.228  51.034  42.947  0.00  0.00    -0.025 A 
ATOM     14  C   UNL     1      88.986  51.383  41.809  0.00  0.00    -0.055 A 
ATOM     15  C   UNL     1      90.083  50.605  41.425  0.00  0.00    -0.061 A 
ATOM     16  C   UNL     1      90.432  49.471  42.161  0.00  0.00    -0.062 A 
ATOM     17  C   UNL     1      89.680  49.108  43.280  0.00  0.00    -0.061 A 
ATOM     18  C   UNL     1      88.581  49.881  43.668  0.00  0.00    -0.055 A 
ENDBRANCH  12  13
ENDBRANCH  10  11
ENDBRANCH   1  10
BRANCH   2  19
ATOM     19  O   UNL     1      85.678  55.437  42.275  0.00  0.00    -0.506 OA
ATOM     20  H   UNL     1      85.133  56.027  41.791  0.00  0.00    +0.000 HD
ENDBRANCH   2  19
BRANCH   7  21
ATOM     21  O   UNL     1      84.434  52.393  45.852  0.00  0.00    -0.506 OA
ATOM     22  H   UNL     1      84.030  52.260  46.687  0.00  0.00    +0.000 HD
ENDBRANCH   7  21
BRANCH   5  23
ATOM     23  O   UNL     1      85.724  57.023  46.826  0.00  0.00    -0.506 OA
ATOM     24  H   UNL     1      85.637  57.918  46.564  0.00  0.00    +0.000 HD
ENDBRANCH   5  23
TORSDOF 6
ENDMDL
MODEL 6
REMARK VINA RESULT:    -7.221      3.881      4.875
REMARK INTER + INTRA:          -9.752
REMARK INTER:                  -9.121
REMARK INTRA:                  -0.631
REMARK UNBOUND:                -0.631
REMARK  Name = 
REMARK  8 active torsions:
REMARK  status: ('A' for Active; 'I' for Inactive)
REMARK    1  A    between atoms: C_2  and  C_3
REMARK    2  A    between atoms: C_2  and  C_14
REMARK    3  A    between atoms: C_4  and  O_5
REMARK    4  A    between atoms: C_6  and  C_7
REMARK    5  A    between atoms: C_8  and  O_13
REMARK    6  A    between atoms: C_9  and  C_12
REMARK    7  A    between atoms: C_10  and  O_11
REMARK    8  A    between atoms: C_15  and  C_16
REMARK                            x       y       z     vdW  Elec       q    Type
REMARK                         _______ _______ _______ _____ _____    ______ ____
ROOT
ATOM      1  C   UNL     1      84.213  51.239  43.141  0.00  0.00    +0.105 A 
ATOM      2  C   UNL     1      83.521  50.120  43.649  0.00  0.00    +0.138 A 
ATOM      3  C   UNL     1      82.149  49.959  43.381  0.00  0.00    +0.034 A 
ATOM      4  C   UNL     1      81.427  48.730  43.873  0.00  0.00    -0.033 C 
ATOM      5  C   UNL     1      81.476  50.892  42.571  0.00  0.00    +0.130 A 
ATOM      6  C   UNL     1      82.144  52.056  42.120  0.00  0.00    +0.034 A 
ATOM      7  C   UNL     1      83.532  52.194  42.361  0.00  0.00    +0.138 A 
ATOM      8  C   UNL     1      81.384  53.139  41.389  0.00  0.00    -0.033 C 
ENDROOT
BRANCH   1  10
ATOM      9  O   UNL     1      86.011  52.359  44.199  0.00  0.00    -0.287 OA
ATOM     10  C   UNL     1      85.651  51.428  43.427  0.00  0.00    +0.193 C 
BRANCH  10  11
ATOM     11  C   UNL     1      86.654  50.531  42.817  0.00  0.00    -0.014 C 
ATOM     12  C   UNL     1      87.488  49.785  43.555  0.00  0.00    -0.051 C 
BRANCH  12  13
ATOM     13  C   UNL     1      88.514  48.881  42.979  0.00  0.00    -0.025 A 
ATOM     14  C   UNL     1      88.187  47.807  42.126  0.00  0.00    -0.055 A 
ATOM     15  C   UNL     1      89.191  46.976  41.618  0.00  0.00    -0.061 A 
ATOM     16  C   UNL     1      90.526  47.199  41.959  0.00  0.00    -0.062 A 
ATOM     17  C   UNL     1      90.861  48.250  42.815  0.00  0.00    -0.061 A 
ATOM     18  C   UNL     1      89.861  49.083  43.327  0.00  0.00    -0.055 A 
ENDBRANCH  12  13
ENDBRANCH  10  11
ENDBRANCH   1  10
BRANCH   2  19
ATOM     19  O   UNL     1      84.181  49.134  44.392  0.00  0.00    -0.506 OA
ATOM     20  H   UNL     1      84.808  48.575  43.975  0.00  0.00    +0.000 HD
ENDBRANCH   2  19
BRANCH   7  21
ATOM     21  O   UNL     1      84.262  53.268  41.840  0.00  0.00    -0.506 OA
ATOM     22  H   UNL     1      84.957  53.650  42.341  0.00  0.00    +0.000 HD
ENDBRANCH   7  21
BRANCH   5  23
ATOM     23  O   UNL     1      80.148  50.626  42.215  0.00  0.00    -0.506 OA
ATOM     24  H   UNL     1      79.679  51.230  41.674  0.00  0.00    +0.000 HD
ENDBRANCH   5  23
TORSDOF 6
ENDMDL
MODEL 7
REMARK VINA RESULT:    -7.217      3.055      4.667
REMARK INTER + INTRA:          -9.747
REMARK INTER:                  -8.947
REMARK INTRA:                  -0.800
REMARK UNBOUND:                -0.631
REMARK  Name = 
REMARK  8 active torsions:
REMARK  status: ('A' for Active; 'I' for Inactive)
REMARK    1  A    between atoms: C_2  and  C_3
REMARK    2  A    between atoms: C_2  and  C_14
REMARK    3  A    between atoms: C_4  and  O_5
REMARK    4  A    between atoms: C_6  and  C_7
REMARK    5  A    between atoms: C_8  and  O_13
REMARK    6  A    between atoms: C_9  and  C_12
REMARK    7  A    between atoms: C_10  and  O_11
REMARK    8  A    between atoms: C_15  and  C_16
REMARK                            x       y       z     vdW  Elec       q    Type
REMARK                         _______ _______ _______ _____ _____    ______ ____
ROOT
ATOM      1  C   UNL     1      85.137  52.463  43.332  0.00  0.00    +0.105 A 
ATOM      2  C   UNL     1      85.233  53.552  42.440  0.00  0.00    +0.138 A 
ATOM      3  C   UNL     1      84.156  53.863  41.591  0.00  0.00    +0.034 A 
ATOM      4  C   UNL     1      84.239  55.065  40.684  0.00  0.00    -0.033 C 
ATOM      5  C   UNL     1      82.966  53.116  41.659  0.00  0.00    +0.130 A 
ATOM      6  C   UNL     1      82.888  51.976  42.496  0.00  0.00    +0.034 A 
ATOM      7  C   UNL     1      83.960  51.690  43.375  0.00  0.00    +0.138 A 
ATOM      8  C   UNL     1      81.675  51.077  42.453  0.00  0.00    -0.033 C 
ENDROOT
BRANCH   1  10
ATOM      9  O   UNL     1      86.263  52.526  45.414  0.00  0.00    -0.287 OA
ATOM     10  C   UNL     1      86.267  52.116  44.220  0.00  0.00    +0.193 C 
BRANCH  10  11
ATOM     11  C   UNL     1      87.386  51.295  43.713  0.00  0.00    -0.014 C 
ATOM     12  C   UNL     1      87.187  50.136  43.070  0.00  0.00    -0.051 C 
BRANCH  12  13
ATOM     13  C   UNL     1      88.284  49.280  42.556  0.00  0.00    -0.025 A 
ATOM     14  C   UNL     1      88.084  47.937  42.174  0.00  0.00    -0.055 A 
ATOM     15  C   UNL     1      89.154  47.168  41.707  0.00  0.00    -0.061 A 
ATOM     16  C   UNL     1      90.433  47.721  41.622  0.00  0.00    -0.062 A 
ATOM     17  C   UNL     1      90.646  49.045  42.011  0.00  0.00    -0.061 A 
ATOM     18  C   UNL     1      89.580  49.819  42.481  0.00  0.00    -0.055 A 
ENDBRANCH  12  13
ENDBRANCH  10  11
ENDBRANCH   1  10
BRANCH   2  19
ATOM     19  O   UNL     1      86.374  54.362  42.405  0.00  0.00    -0.506 OA
ATOM     20  H   UNL     1      86.380  55.140  41.882  0.00  0.00    +0.000 HD
ENDBRANCH   2  19
BRANCH   7  21
ATOM     21  O   UNL     1      83.887  50.644  44.303  0.00  0.00    -0.506 OA
ATOM     22  H   UNL     1      83.346  50.729  45.064  0.00  0.00    +0.000 HD
ENDBRANCH   7  21
BRANCH   5  23
ATOM     23  O   UNL     1      81.870  53.540  40.898  0.00  0.00    -0.506 OA
ATOM     24  H   UNL     1      82.000  53.843  40.020  0.00  0.00    +0.000 HD
ENDBRANCH   5  23
TORSDOF 6
ENDMDL
MODEL 8
REMARK VINA RESULT:    -7.203      3.523      6.767
REMARK INTER + INTRA:          -9.729
REMARK INTER:                  -9.065
REMARK INTRA:                  -0.664
REMARK UNBOUND:                -0.631
REMARK  Name = 
REMARK  8 active torsions:
REMARK  status: ('A' for Active; 'I' for Inactive)
REMARK    1  A    between atoms: C_2  and  C_3
REMARK    2  A    between atoms: C_2  and  C_14
REMARK    3  A    between atoms: C_4  and  O_5
REMARK    4  A    between atoms: C_6  and  C_7
REMARK    5  A    between atoms: C_8  and  O_13
REMARK    6  A    between atoms: C_9  and  C_12
REMARK    7  A    between atoms: C_10  and  O_11
REMARK    8  A    between atoms: C_15  and  C_16
REMARK                            x       y       z     vdW  Elec       q    Type
REMARK                         _______ _______ _______ _____ _____    ______ ____
ROOT
ATOM      1  C   UNL     1      83.573  51.953  42.270  0.00  0.00    +0.105 A 
ATOM      2  C   UNL     1      82.193  51.654  42.243  0.00  0.00    +0.138 A 
ATOM      3  C   UNL     1      81.725  50.445  42.789  0.00  0.00    +0.034 A 
ATOM      4  C   UNL     1      80.245  50.158  42.815  0.00  0.00    -0.033 C 
ATOM      5  C   UNL     1      82.625  49.552  43.399  0.00  0.00    +0.130 A 
ATOM      6  C   UNL     1      84.017  49.808  43.363  0.00  0.00    +0.034 A 
ATOM      7  C   UNL     1      84.479  51.042  42.846  0.00  0.00    +0.138 A 
ATOM      8  C   UNL     1      84.998  48.777  43.870  0.00  0.00    -0.033 C 
ENDROOT
BRANCH   1  10
ATOM      9  O   UNL     1      84.473  53.225  40.488  0.00  0.00    -0.287 OA
ATOM     10  C   UNL     1      84.080  53.213  41.687  0.00  0.00    +0.193 C 
BRANCH  10  11
ATOM     11  C   UNL     1      84.122  54.445  42.502  0.00  0.00    -0.014 C 
ATOM     12  C   UNL     1      85.063  54.653  43.433  0.00  0.00    -0.051 C 
BRANCH  12  13
ATOM     13  C   UNL     1      85.132  55.871  44.277  0.00  0.00    -0.025 A 
ATOM     14  C   UNL     1      84.876  57.163  43.769  0.00  0.00    -0.055 A 
ATOM     15  C   UNL     1      84.965  58.281  44.604  0.00  0.00    -0.061 A 
ATOM     16  C   UNL     1      85.316  58.129  45.947  0.00  0.00    -0.062 A 
ATOM     17  C   UNL     1      85.587  56.858  46.457  0.00  0.00    -0.061 A 
ATOM     18  C   UNL     1      85.500  55.736  45.627  0.00  0.00    -0.055 A 
ENDBRANCH  12  13
ENDBRANCH  10  11
ENDBRANCH   1  10
BRANCH   2  19
ATOM     19  O   UNL     1      81.265  52.558  41.714  0.00  0.00    -0.506 OA
ATOM     20  H   UNL     1      81.269  52.750  40.797  0.00  0.00    +0.000 HD
ENDBRANCH   2  19
BRANCH   7  21
ATOM     21  O   UNL     1      85.833  51.393  42.891  0.00  0.00    -0.506 OA
ATOM     22  H   UNL     1      86.110  52.236  42.587  0.00  0.00    +0.000 HD
ENDBRANCH   7  21
BRANCH   5  23
ATOM     23  O   UNL     1      82.104  48.427  44.050  0.00  0.00    -0.506 OA
ATOM     24  H   UNL     1      82.123  48.378  44.986  0.00  0.00    +0.000 HD
ENDBRANCH   5  23
TORSDOF 6
ENDMDL
MODEL 9
REMARK VINA RESULT:    -7.046      2.752      6.847
REMARK INTER + INTRA:          -9.531
REMARK INTER:                  -8.733
REMARK INTRA:                  -0.798
REMARK UNBOUND:                -0.631
REMARK  Name = 
REMARK  8 active torsions:
REMARK  status: ('A' for Active; 'I' for Inactive)
REMARK    1  A    between atoms: C_2  and  C_3
REMARK    2  A    between atoms: C_2  and  C_14
REMARK    3  A    between atoms: C_4  and  O_5
REMARK    4  A    between atoms: C_6  and  C_7
REMARK    5  A    between atoms: C_8  and  O_13
REMARK    6  A    between atoms: C_9  and  C_12
REMARK    7  A    between atoms: C_10  and  O_11
REMARK    8  A    between atoms: C_15  and  C_16
REMARK                            x       y       z     vdW  Elec       q    Type
REMARK                         _______ _______ _______ _____ _____    ______ ____
ROOT
ATOM      1  C   UNL     1      86.676  51.398  42.346  0.00  0.00    +0.105 A 
ATOM      2  C   UNL     1      86.899  50.015  42.523  0.00  0.00    +0.138 A 
ATOM      3  C   UNL     1      88.159  49.464  42.230  0.00  0.00    +0.034 A 
ATOM      4  C   UNL     1      88.412  47.998  42.479  0.00  0.00    -0.033 C 
ATOM      5  C   UNL     1      89.210  50.295  41.802  0.00  0.00    +0.130 A 
ATOM      6  C   UNL     1      88.975  51.668  41.551  0.00  0.00    +0.034 A 
ATOM      7  C   UNL     1      87.716  52.225  41.882  0.00  0.00    +0.138 A 
ATOM      8  C   UNL     1      90.054  52.530  40.937  0.00  0.00    -0.033 C 
ENDROOT
BRANCH   1  10
ATOM      9  O   UNL     1      84.566  52.244  41.681  0.00  0.00    -0.287 OA
ATOM     10  C   UNL     1      85.352  51.988  42.636  0.00  0.00    +0.193 C 
BRANCH  10  11
ATOM     11  C   UNL     1      84.954  52.273  44.031  0.00  0.00    -0.014 C 
ATOM     12  C   UNL     1      85.742  52.954  44.873  0.00  0.00    -0.051 C 
BRANCH  12  13
ATOM     13  C   UNL     1      85.382  53.250  46.282  0.00  0.00    -0.025 A 
ATOM     14  C   UNL     1      85.935  52.545  47.371  0.00  0.00    -0.055 A 
ATOM     15  C   UNL     1      85.554  52.854  48.681  0.00  0.00    -0.061 A 
ATOM     16  C   UNL     1      84.615  53.858  48.920  0.00  0.00    -0.062 A 
ATOM     17  C   UNL     1      84.049  54.553  47.849  0.00  0.00    -0.061 A 
ATOM     18  C   UNL     1      84.425  54.247  46.538  0.00  0.00    -0.055 A 
ENDBRANCH  12  13
ENDBRANCH  10  11
ENDBRANCH   1  10
BRANCH   2  19
ATOM     19  O   UNL     1      85.896  49.176  43.022  0.00  0.00    -0.506 OA
ATOM     20  H   UNL     1      85.335  49.476  43.711  0.00  0.00    +0.000 HD
ENDBRANCH   2  19
BRANCH   7  21
ATOM     21  O   UNL     1      87.468  53.597  41.760  0.00  0.00    -0.506 OA
ATOM     22  H   UNL     1      88.016  54.126  41.213  0.00  0.00    +0.000 HD
ENDBRANCH   7  21
BRANCH   5  23
ATOM     23  O   UNL     1      90.483  49.732  41.653  0.00  0.00    -0.506 OA
ATOM     24  H   UNL     1      90.723  48.978  42.155  0.00  0.00    +0.000 HD
ENDBRANCH   5  23
TORSDOF 6
ENDMDL
