MODEL 1
REMARK VINA RESULT:    -7.396      0.000      0.000
REMARK INTER + INTRA:          -9.980
REMARK INTER:                  -9.492
REMARK INTRA:                  -0.488
REMARK UNBOUND:                -0.638
REMARK  Name = 
REMARK  8 active torsions:
REMARK  status: ('A' for Active; 'I' for Inactive)
REMARK    1  A    between atoms: C_2  and  C_3
REMARK    2  A    between atoms: C_2  and  C_14
REMARK    3  A    between atoms: C_4  and  O_5
REMARK    4  A    between atoms: C_6  and  C_7
REMARK    5  A    between atoms: C_8  and  O_13
REMARK    6  A    between atoms: C_9  and  C_12
REMARK    7  A    between atoms: C_10  and  O_11
REMARK    8  A    between atoms: C_15  and  C_16
REMARK                            x       y       z     vdW  Elec       q    Type
REMARK                         _______ _______ _______ _____ _____    ______ ____
ROOT
ATOM      1  C   UNL     1      86.859  49.953  44.878  0.00  0.00    +0.105 A 
ATOM      2  C   UNL     1      87.586  50.741  43.960  0.00  0.00    +0.138 A 
ATOM      3  C   UNL     1      87.893  50.231  42.685  0.00  0.00    +0.034 A 
ATOM      4  C   UNL     1      88.615  51.099  41.684  0.00  0.00    -0.033 C 
ATOM      5  C   UNL     1      87.441  48.953  42.309  0.00  0.00    +0.130 A 
ATOM      6  C   UNL     1      86.778  48.128  43.249  0.00  0.00    +0.034 A 
ATOM      7  C   UNL     1      86.438  48.659  44.517  0.00  0.00    +0.138 A 
ATOM      8  C   UNL     1      86.435  46.697  42.904  0.00  0.00    -0.033 C 
ENDROOT
BRANCH   1  10
ATOM      9  O   UNL     1      86.937  49.834  47.242  0.00  0.00    -0.287 OA
ATOM     10  C   UNL     1      86.542  50.471  46.226  0.00  0.00    +0.193 C 
BRANCH  10  11
ATOM     11  C   UNL     1      85.772  51.723  46.379  0.00  0.00    -0.014 C 
ATOM     12  C   UNL     1      86.118  52.670  47.262  0.00  0.00    -0.051 C 
BRANCH  12  13
ATOM     13  C   UNL     1      85.365  53.934  47.452  0.00  0.00    -0.025 A 
ATOM     14  C   UNL     1      84.126  53.986  48.125  0.00  0.00    -0.055 A 
ATOM     15  C   UNL     1      83.449  55.201  48.268  0.00  0.00    -0.061 A 
ATOM     16  C   UNL     1      83.991  56.373  47.737  0.00  0.00    -0.062 A 
ATOM     17  C   UNL     1      85.209  56.332  47.056  0.00  0.00    -0.061 A 
ATOM     18  C   UNL     1      85.890  55.119  46.909  0.00  0.00    -0.055 A 
ENDBRANCH  12  13
ENDBRANCH  10  11
ENDBRANCH   1  10
BRANCH   2  19
ATOM     19  O   UNL     1      87.981  52.046  44.277  0.00  0.00    -0.506 OA
ATOM     20  H   UNL     1      88.862  52.321  44.113  0.00  0.00    +0.000 HD
ENDBRANCH   2  19
BRANCH   7  21
ATOM     21  O   UNL     1      85.684  47.925  45.440  0.00  0.00    -0.506 OA
ATOM     22  H   UNL     1      86.064  47.667  46.257  0.00  0.00    +0.000 HD
ENDBRANCH   7  21
BRANCH   5  23
ATOM     23  O   UNL     1      87.648  48.538  40.988  0.00  0.00    -0.506 OA
ATOM     24  H   UNL     1      88.519  48.384  40.678  0.00  0.00    +0.000 HD
ENDBRANCH   5  23
TORSDOF 6
ENDMDL
MODEL 2
REMARK VINA RESULT:    -7.357     16.690     19.704
REMARK INTER + INTRA:          -9.930
REMARK INTER:                  -9.177
REMARK INTRA:                  -0.753
REMARK UNBOUND:                -0.638
REMARK  Name = 
REMARK  8 active torsions:
REMARK  status: ('A' for Active; 'I' for Inactive)
REMARK    1  A    between atoms: C_2  and  C_3
REMARK    2  A    between atoms: C_2  and  C_14
REMARK    3  A    between atoms: C_4  and  O_5
REMARK    4  A    between atoms: C_6  and  C_7
REMARK    5  A    between atoms: C_8  and  O_13
REMARK    6  A    between atoms: C_9  and  C_12
REMARK    7  A    between atoms: C_10  and  O_11
REMARK    8  A    between atoms: C_15  and  C_16
REMARK                            x       y       z     vdW  Elec       q    Type
REMARK                         _______ _______ _______ _____ _____    ______ ____
ROOT
ATOM      1  C   UNL     1      94.375  68.749  46.253  0.00  0.00    +0.105 A 
ATOM      2  C   UNL     1      92.983  68.574  46.417  0.00  0.00    +0.138 A 
ATOM      3  C   UNL     1      92.392  68.781  47.676  0.00  0.00    +0.034 A 
ATOM      4  C   UNL     1      90.897  68.654  47.833  0.00  0.00    -0.033 C 
ATOM      5  C   UNL     1      93.179  69.203  48.764  0.00  0.00    +0.130 A 
ATOM      6  C   UNL     1      94.584  69.307  48.628  0.00  0.00    +0.034 A 
ATOM      7  C   UNL     1      95.169  69.135  47.350  0.00  0.00    +0.138 A 
ATOM      8  C   UNL     1      95.449  69.600  49.831  0.00  0.00    -0.033 C 
ENDROOT
BRANCH   1  10
ATOM      9  O   UNL     1      95.212  69.503  44.171  0.00  0.00    -0.287 OA
ATOM     10  C   UNL     1      95.011  68.521  44.939  0.00  0.00    +0.193 C 
BRANCH  10  11
ATOM     11  C   UNL     1      95.411  67.158  44.532  0.00  0.00    -0.014 C 
ATOM     12  C   UNL     1      96.587  66.623  44.888  0.00  0.00    -0.051 C 
BRANCH  12  13
ATOM     13  C   UNL     1      97.027  65.263  44.490  0.00  0.00    -0.025 A 
ATOM     14  C   UNL     1      97.784  65.020  43.325  0.00  0.00    -0.055 A 
ATOM     15  C   UNL     1      98.165  63.717  42.988  0.00  0.00    -0.061 A 
ATOM     16  C   UNL     1      97.791  62.644  43.799  0.00  0.00    -0.062 A 
ATOM     17  C   UNL     1      97.028  62.870  44.946  0.00  0.00    -0.061 A 
ATOM     18  C   UNL     1      96.643  64.171  45.288  0.00  0.00    -0.055 A 
ENDBRANCH  12  13
ENDBRANCH  10  11
ENDBRANCH   1  10
BRANCH   2  19
ATOM     19  O   UNL     1      92.164  68.232  45.335  0.00  0.00    -0.506 OA
ATOM     20  H   UNL     1      91.234  68.189  45.448  0.00  0.00    +0.000 HD
ENDBRANCH   2  19
BRANCH   7  21
ATOM     21  O   UNL     1      96.538  69.339  47.138  0.00  0.00    -0.506 OA
ATOM     22  H   UNL     1      96.838  70.135  46.745  0.00  0.00    +0.000 HD
ENDBRANCH   7  21
BRANCH   5  23
ATOM     23  O   UNL     1      92.533  69.529  49.962  0.00  0.00    -0.506 OA
ATOM     24  H   UNL     1      91.909  68.937  50.334  0.00  0.00    +0.000 HD
ENDBRANCH   5  23
TORSDOF 6
ENDMDL
MODEL 3
REMARK VINA RESULT:    -7.322      2.872      7.940
REMARK INTER + INTRA:          -9.887
REMARK INTER:                  -9.459
REMARK INTRA:                  -0.428
REMARK UNBOUND:                -0.638
REMARK  Name = 
REMARK  8 active torsions:
REMARK  status: ('A' for Active; 'I' for Inactive)
REMARK    1  A    between atoms: C_2  and  C_3
REMARK    2  A    between atoms: C_2  and  C_14
REMARK    3  A    between atoms: C_4  and  O_5
REMARK    4  A    between atoms: C_6  and  C_7
REMARK    5  A    between atoms: C_8  and  O_13
REMARK    6  A    between atoms: C_9  and  C_12
REMARK    7  A    between atoms: C_10  and  O_11
REMARK    8  A    between atoms: C_15  and  C_16
REMARK                            x       y       z     vdW  Elec       q    Type
REMARK                         _______ _______ _______ _____ _____    ______ ____
ROOT
ATOM      1  C   UNL     1      85.540  54.864  44.505  0.00  0.00    +0.105 A 
ATOM      2  C   UNL     1      85.081  54.009  45.531  0.00  0.00    +0.138 A 
ATOM      3  C   UNL     1      84.566  54.552  46.721  0.00  0.00    +0.034 A 
ATOM      4  C   UNL     1      84.019  53.637  47.788  0.00  0.00    -0.033 C 
ATOM      5  C   UNL     1      84.467  55.947  46.875  0.00  0.00    +0.130 A 
ATOM      6  C   UNL     1      84.993  56.811  45.885  0.00  0.00    +0.034 A 
ATOM      7  C   UNL     1      85.477  56.261  44.673  0.00  0.00    +0.138 A 
ATOM      8  C   UNL     1      85.038  58.304  46.117  0.00  0.00    -0.033 C 
ENDROOT
BRANCH   1  10
ATOM      9  O   UNL     1      85.636  54.694  42.146  0.00  0.00    -0.287 OA
ATOM     10  C   UNL     1      86.097  54.307  43.255  0.00  0.00    +0.193 C 
BRANCH  10  11
ATOM     11  C   UNL     1      87.186  53.309  43.306  0.00  0.00    -0.014 C 
ATOM     12  C   UNL     1      87.134  52.160  42.618  0.00  0.00    -0.051 C 
BRANCH  12  13
ATOM     13  C   UNL     1      88.201  51.130  42.652  0.00  0.00    -0.025 A 
ATOM     14  C   UNL     1      89.183  51.019  41.644  0.00  0.00    -0.055 A 
ATOM     15  C   UNL     1      90.161  50.023  41.717  0.00  0.00    -0.061 A 
ATOM     16  C   UNL     1      90.170  49.124  42.784  0.00  0.00    -0.062 A 
ATOM     17  C   UNL     1      89.195  49.214  43.779  0.00  0.00    -0.061 A 
ATOM     18  C   UNL     1      88.213  50.207  43.712  0.00  0.00    -0.055 A 
ENDBRANCH  12  13
ENDBRANCH  10  11
ENDBRANCH   1  10
BRANCH   2  19
ATOM     19  O   UNL     1      85.094  52.618  45.375  0.00  0.00    -0.506 OA
ATOM     20  H   UNL     1      85.905  52.150  45.412  0.00  0.00    +0.000 HD
ENDBRANCH   2  19
BRANCH   7  21
ATOM     21  O   UNL     1      85.902  57.075  43.617  0.00  0.00    -0.506 OA
ATOM     22  H   UNL     1      86.808  57.096  43.376  0.00  0.00    +0.000 HD
ENDBRANCH   7  21
BRANCH   5  23
ATOM     23  O   UNL     1      83.824  56.446  48.014  0.00  0.00    -0.506 OA
ATOM     24  H   UNL     1      83.865  57.361  48.212  0.00  0.00    +0.000 HD
ENDBRANCH   5  23
TORSDOF 6
ENDMDL
MODEL 4
REMARK VINA RESULT:    -7.274      0.153      2.638
REMARK INTER + INTRA:          -9.826
REMARK INTER:                  -9.462
REMARK INTRA:                  -0.364
REMARK UNBOUND:                -0.638
REMARK  Name = 
REMARK  8 active torsions:
REMARK  status: ('A' for Active; 'I' for Inactive)
REMARK    1  A    between atoms: C_2  and  C_3
REMARK    2  A    between atoms: C_2  and  C_14
REMARK    3  A    between atoms: C_4  and  O_5
REMARK    4  A    between atoms: C_6  and  C_7
REMARK    5  A    between atoms: C_8  and  O_13
REMARK    6  A    between atoms: C_9  and  C_12
REMARK    7  A    between atoms: C_10  and  O_11
REMARK    8  A    between atoms: C_15  and  C_16
REMARK                            x       y       z     vdW  Elec       q    Type
REMARK                         _______ _______ _______ _____ _____    ______ ____
ROOT
ATOM      1  C   UNL     1      86.799  49.904  44.837  0.00  0.00    +0.105 A 
ATOM      2  C   UNL     1      86.370  48.601  44.504  0.00  0.00    +0.138 A 
ATOM      3  C   UNL     1      86.649  48.074  43.230  0.00  0.00    +0.034 A 
ATOM      4  C   UNL     1      86.244  46.659  42.899  0.00  0.00    -0.033 C 
ATOM      5  C   UNL     1      87.392  48.826  42.303  0.00  0.00    +0.130 A 
ATOM      6  C   UNL     1      87.760  50.161  42.601  0.00  0.00    +0.034 A 
ATOM      7  C   UNL     1      87.509  50.673  43.896  0.00  0.00    +0.138 A 
ATOM      8  C   UNL     1      88.413  51.027  41.549  0.00  0.00    -0.033 C 
ENDROOT
BRANCH   1  10
ATOM      9  O   UNL     1      86.857  49.850  47.204  0.00  0.00    -0.287 OA
ATOM     10  C   UNL     1      86.500  50.476  46.167  0.00  0.00    +0.193 C 
BRANCH  10  11
ATOM     11  C   UNL     1      85.793  51.769  46.278  0.00  0.00    -0.014 C 
ATOM     12  C   UNL     1      86.100  52.672  47.220  0.00  0.00    -0.051 C 
BRANCH  12  13
ATOM     13  C   UNL     1      85.407  53.975  47.370  0.00  0.00    -0.025 A 
ATOM     14  C   UNL     1      85.873  55.158  46.758  0.00  0.00    -0.055 A 
ATOM     15  C   UNL     1      85.189  56.364  46.939  0.00  0.00    -0.061 A 
ATOM     16  C   UNL     1      84.043  56.409  47.735  0.00  0.00    -0.062 A 
ATOM     17  C   UNL     1      83.582  55.249  48.358  0.00  0.00    -0.061 A 
ATOM     18  C   UNL     1      84.261  54.039  48.182  0.00  0.00    -0.055 A 
ENDBRANCH  12  13
ENDBRANCH  10  11
ENDBRANCH   1  10
BRANCH   2  19
ATOM     19  O   UNL     1      85.698  47.798  45.433  0.00  0.00    -0.506 OA
ATOM     20  H   UNL     1      85.052  48.176  45.998  0.00  0.00    +0.000 HD
ENDBRANCH   2  19
BRANCH   7  21
ATOM     21  O   UNL     1      87.954  51.945  44.279  0.00  0.00    -0.506 OA
ATOM     22  H   UNL     1      88.688  52.335  43.846  0.00  0.00    +0.000 HD
ENDBRANCH   7  21
BRANCH   5  23
ATOM     23  O   UNL     1      87.766  48.216  41.100  0.00  0.00    -0.506 OA
ATOM     24  H   UNL     1      87.634  47.296  40.981  0.00  0.00    +0.000 HD
ENDBRANCH   5  23
TORSDOF 6
ENDMDL
MODEL 5
REMARK VINA RESULT:    -7.250      2.793      3.653
REMARK INTER + INTRA:          -9.796
REMARK INTER:                  -9.061
REMARK INTRA:                  -0.734
REMARK UNBOUND:                -0.638
REMARK  Name = 
REMARK  8 active torsions:
REMARK  status: ('A' for Active; 'I' for Inactive)
REMARK    1  A    between atoms: C_2  and  C_3
REMARK    2  A    between atoms: C_2  and  C_14
REMARK    3  A    between atoms: C_4  and  O_5
REMARK    4  A    between atoms: C_6  and  C_7
REMARK    5  A    between atoms: C_8  and  O_13
REMARK    6  A    between atoms: C_9  and  C_12
REMARK    7  A    between atoms: C_10  and  O_11
REMARK    8  A    between atoms: C_15  and  C_16
REMARK                            x       y       z     vdW  Elec       q    Type
REMARK                         _______ _______ _______ _____ _____    ______ ____
ROOT
ATOM      1  C   UNL     1      85.337  51.655  42.672  0.00  0.00    +0.105 A 
ATOM      2  C   UNL     1      84.751  52.629  41.836  0.00  0.00    +0.138 A 
ATOM      3  C   UNL     1      85.493  53.188  40.779  0.00  0.00    +0.034 A 
ATOM      4  C   UNL     1      84.843  54.183  39.850  0.00  0.00    -0.033 C 
ATOM      5  C   UNL     1      86.805  52.746  40.529  0.00  0.00    +0.130 A 
ATOM      6  C   UNL     1      87.426  51.825  41.407  0.00  0.00    +0.034 A 
ATOM      7  C   UNL     1      86.663  51.239  42.445  0.00  0.00    +0.138 A 
ATOM      8  C   UNL     1      88.885  51.472  41.238  0.00  0.00    -0.033 C 
ENDROOT
BRANCH   1  10
ATOM      9  O   UNL     1      84.302  49.837  43.781  0.00  0.00    -0.287 OA
ATOM     10  C   UNL     1      84.573  51.070  43.794  0.00  0.00    +0.193 C 
BRANCH  10  11
ATOM     11  C   UNL     1      84.137  51.921  44.920  0.00  0.00    -0.014 C 
ATOM     12  C   UNL     1      84.946  52.828  45.485  0.00  0.00    -0.051 C 
BRANCH  12  13
ATOM     13  C   UNL     1      84.547  53.692  46.623  0.00  0.00    -0.025 A 
ATOM     14  C   UNL     1      84.505  55.099  46.529  0.00  0.00    -0.055 A 
ATOM     15  C   UNL     1      84.133  55.871  47.634  0.00  0.00    -0.061 A 
ATOM     16  C   UNL     1      83.808  55.255  48.844  0.00  0.00    -0.062 A 
ATOM     17  C   UNL     1      83.861  53.864  48.953  0.00  0.00    -0.061 A 
ATOM     18  C   UNL     1      84.233  53.087  47.852  0.00  0.00    -0.055 A 
ENDBRANCH  12  13
ENDBRANCH  10  11
ENDBRANCH   1  10
BRANCH   2  19
ATOM     19  O   UNL     1      83.422  53.031  42.012  0.00  0.00    -0.506 OA
ATOM     20  H   UNL     1      83.088  53.181  42.875  0.00  0.00    +0.000 HD
ENDBRANCH   2  19
BRANCH   7  21
ATOM     21  O   UNL     1      87.195  50.240  43.269  0.00  0.00    -0.506 OA
ATOM     22  H   UNL     1      88.105  50.022  43.215  0.00  0.00    +0.000 HD
ENDBRANCH   7  21
BRANCH   5  23
ATOM     23  O   UNL     1      87.460  53.225  39.388  0.00  0.00    -0.506 OA
ATOM     24  H   UNL     1      86.965  53.456  38.627  0.00  0.00    +0.000 HD
ENDBRANCH   5  23
TORSDOF 6
ENDMDL
MODEL 6
REMARK VINA RESULT:    -7.222      3.878      7.290
REMARK INTER + INTRA:          -9.760
REMARK INTER:                  -9.069
REMARK INTRA:                  -0.691
REMARK UNBOUND:                -0.638
REMARK  Name = 
REMARK  8 active torsions:
REMARK  status: ('A' for Active; 'I' for Inactive)
REMARK    1  A    between atoms: C_2  and  C_3
REMARK    2  A    between atoms: C_2  and  C_14
REMARK    3  A    between atoms: C_4  and  O_5
REMARK    4  A    between atoms: C_6  and  C_7
REMARK    5  A    between atoms: C_8  and  O_13
REMARK    6  A    between atoms: C_9  and  C_12
REMARK    7  A    between atoms: C_10  and  O_11
REMARK    8  A    between atoms: C_15  and  C_16
REMARK                            x       y       z     vdW  Elec       q    Type
REMARK                         _______ _______ _______ _____ _____    ______ ____
ROOT
ATOM      1  C   UNL     1      83.927  50.912  43.737  0.00  0.00    +0.105 A 
ATOM      2  C   UNL     1      83.190  49.740  44.012  0.00  0.00    +0.138 A 
ATOM      3  C   UNL     1      81.847  49.643  43.606  0.00  0.00    +0.034 A 
ATOM      4  C   UNL     1      81.081  48.365  43.846  0.00  0.00    -0.033 C 
ATOM      5  C   UNL     1      81.249  50.695  42.889  0.00  0.00    +0.130 A 
ATOM      6  C   UNL     1      81.956  51.903  42.675  0.00  0.00    +0.034 A 
ATOM      7  C   UNL     1      83.318  51.981  43.052  0.00  0.00    +0.138 A 
ATOM      8  C   UNL     1      81.266  53.093  42.051  0.00  0.00    -0.033 C 
ENDROOT
BRANCH   1  10
ATOM      9  O   UNL     1      85.605  51.681  45.220  0.00  0.00    -0.287 OA
ATOM     10  C   UNL     1      85.335  51.034  44.170  0.00  0.00    +0.193 C 
BRANCH  10  11
ATOM     11  C   UNL     1      86.413  50.399  43.383  0.00  0.00    -0.014 C 
ATOM     12  C   UNL     1      87.199  49.441  43.892  0.00  0.00    -0.051 C 
BRANCH  12  13
ATOM     13  C   UNL     1      88.297  48.789  43.137  0.00  0.00    -0.025 A 
ATOM     14  C   UNL     1      89.609  49.306  43.105  0.00  0.00    -0.055 A 
ATOM     15  C   UNL     1      90.607  48.660  42.369  0.00  0.00    -0.061 A 
ATOM     16  C   UNL     1      90.310  47.500  41.651  0.00  0.00    -0.062 A 
ATOM     17  C   UNL     1      89.011  46.987  41.662  0.00  0.00    -0.061 A 
ATOM     18  C   UNL     1      88.009  47.629  42.396  0.00  0.00    -0.055 A 
ENDBRANCH  12  13
ENDBRANCH  10  11
ENDBRANCH   1  10
BRANCH   2  19
ATOM     19  O   UNL     1      83.781  48.646  44.654  0.00  0.00    -0.506 OA
ATOM     20  H   UNL     1      84.571  48.761  45.145  0.00  0.00    +0.000 HD
ENDBRANCH   2  19
BRANCH   7  21
ATOM     21  O   UNL     1      84.094  53.110  42.761  0.00  0.00    -0.506 OA
ATOM     22  H   UNL     1      85.029  53.061  42.807  0.00  0.00    +0.000 HD
ENDBRANCH   7  21
BRANCH   5  23
ATOM     23  O   UNL     1      79.957  50.505  42.385  0.00  0.00    -0.506 OA
ATOM     24  H   UNL     1      79.255  51.051  42.679  0.00  0.00    +0.000 HD
ENDBRANCH   5  23
TORSDOF 6
ENDMDL
MODEL 7
REMARK VINA RESULT:    -7.215      2.577      7.655
REMARK INTER + INTRA:          -9.751
REMARK INTER:                  -9.113
REMARK INTRA:                  -0.638
REMARK UNBOUND:                -0.638
REMARK  Name = 
REMARK  8 active torsions:
REMARK  status: ('A' for Active; 'I' for Inactive)
REMARK    1  A    between atoms: C_2  and  C_3
REMARK    2  A    between atoms: C_2  and  C_14
REMARK    3  A    between atoms: C_4  and  O_5
REMARK    4  A    between atoms: C_6  and  C_7
REMARK    5  A    between atoms: C_8  and  O_13
REMARK    6  A    between atoms: C_9  and  C_12
REMARK    7  A    between atoms: C_10  and  O_11
REMARK    8  A    between atoms: C_15  and  C_16
REMARK                            x       y       z     vdW  Elec       q    Type
REMARK                         _______ _______ _______ _____ _____    ______ ____
ROOT
ATOM      1  C   UNL     1      86.305  52.948  44.436  0.00  0.00    +0.105 A 
ATOM      2  C   UNL     1      86.111  52.676  45.808  0.00  0.00    +0.138 A 
ATOM      3  C   UNL     1      86.053  53.733  46.733  0.00  0.00    +0.034 A 
ATOM      4  C   UNL     1      85.783  53.442  48.188  0.00  0.00    -0.033 C 
ATOM      5  C   UNL     1      86.146  55.065  46.289  0.00  0.00    +0.130 A 
ATOM      6  C   UNL     1      86.416  55.344  44.927  0.00  0.00    +0.034 A 
ATOM      7  C   UNL     1      86.436  54.279  43.995  0.00  0.00    +0.138 A 
ATOM      8  C   UNL     1      86.679  56.761  44.474  0.00  0.00    -0.033 C 
ENDROOT
BRANCH   1  10
ATOM      9  O   UNL     1      85.454  51.704  42.610  0.00  0.00    -0.287 OA
ATOM     10  C   UNL     1      86.382  51.846  43.455  0.00  0.00    +0.193 C 
BRANCH  10  11
ATOM     11  C   UNL     1      87.537  50.923  43.462  0.00  0.00    -0.014 C 
ATOM     12  C   UNL     1      87.431  49.644  43.077  0.00  0.00    -0.051 C 
BRANCH  12  13
ATOM     13  C   UNL     1      88.563  48.686  43.081  0.00  0.00    -0.025 A 
ATOM     14  C   UNL     1      89.839  49.019  43.583  0.00  0.00    -0.055 A 
ATOM     15  C   UNL     1      90.877  48.083  43.553  0.00  0.00    -0.061 A 
ATOM     16  C   UNL     1      90.662  46.812  43.018  0.00  0.00    -0.062 A 
ATOM     17  C   UNL     1      89.409  46.476  42.503  0.00  0.00    -0.061 A 
ATOM     18  C   UNL     1      88.366  47.407  42.529  0.00  0.00    -0.055 A 
ENDBRANCH  12  13
ENDBRANCH  10  11
ENDBRANCH   1  10
BRANCH   2  19
ATOM     19  O   UNL     1      85.936  51.366  46.269  0.00  0.00    -0.506 OA
ATOM     20  H   UNL     1      85.072  51.021  46.384  0.00  0.00    +0.000 HD
ENDBRANCH   2  19
BRANCH   7  21
ATOM     21  O   UNL     1      86.585  54.510  42.622  0.00  0.00    -0.506 OA
ATOM     22  H   UNL     1      85.926  54.218  42.023  0.00  0.00    +0.000 HD
ENDBRANCH   7  21
BRANCH   5  23
ATOM     23  O   UNL     1      85.947  56.091  47.220  0.00  0.00    -0.506 OA
ATOM     24  H   UNL     1      86.529  56.824  47.240  0.00  0.00    +0.000 HD
ENDBRANCH   5  23
TORSDOF 6
ENDMDL
MODEL 8
REMARK VINA RESULT:    -7.178      2.833      7.249
REMARK INTER + INTRA:          -9.705
REMARK INTER:                  -8.916
REMARK INTRA:                  -0.789
REMARK UNBOUND:                -0.638
REMARK  Name = 
REMARK  8 active torsions:
REMARK  status: ('A' for Active; 'I' for Inactive)
REMARK    1  A    between atoms: C_2  and  C_3
REMARK    2  A    between atoms: C_2  and  C_14
REMARK    3  A    between atoms: C_4  and  O_5
REMARK    4  A    between atoms: C_6  and  C_7
REMARK    5  A    between atoms: C_8  and  O_13
REMARK    6  A    between atoms: C_9  and  C_12
REMARK    7  A    between atoms: C_10  and  O_11
REMARK    8  A    between atoms: C_15  and  C_16
REMARK                            x       y       z     vdW  Elec       q    Type
REMARK                         _______ _______ _______ _____ _____    ______ ____
ROOT
ATOM      1  C   UNL     1      85.009  54.031  44.391  0.00  0.00    +0.105 A 
ATOM      2  C   UNL     1      85.420  55.290  43.904  0.00  0.00    +0.138 A 
ATOM      3  C   UNL     1      85.588  56.367  44.793  0.00  0.00    +0.034 A 
ATOM      4  C   UNL     1      86.088  57.694  44.278  0.00  0.00    -0.033 C 
ATOM      5  C   UNL     1      85.389  56.180  46.173  0.00  0.00    +0.130 A 
ATOM      6  C   UNL     1      84.904  54.942  46.661  0.00  0.00    +0.034 A 
ATOM      7  C   UNL     1      84.772  53.852  45.768  0.00  0.00    +0.138 A 
ATOM      8  C   UNL     1      84.534  54.786  48.117  0.00  0.00    -0.033 C 
ENDROOT
BRANCH   1  10
ATOM      9  O   UNL     1      83.643  52.572  43.122  0.00  0.00    -0.287 OA
ATOM     10  C   UNL     1      84.814  52.894  43.466  0.00  0.00    +0.193 C 
BRANCH  10  11
ATOM     11  C   UNL     1      85.979  52.147  42.950  0.00  0.00    -0.014 C 
ATOM     12  C   UNL     1      86.860  51.547  43.762  0.00  0.00    -0.051 C 
BRANCH  12  13
ATOM     13  C   UNL     1      88.047  50.798  43.282  0.00  0.00    -0.025 A 
ATOM     14  C   UNL     1      88.730  51.138  42.095  0.00  0.00    -0.055 A 
ATOM     15  C   UNL     1      89.838  50.393  41.679  0.00  0.00    -0.061 A 
ATOM     16  C   UNL     1      90.272  49.300  42.431  0.00  0.00    -0.062 A 
ATOM     17  C   UNL     1      89.595  48.945  43.599  0.00  0.00    -0.061 A 
ATOM     18  C   UNL     1      88.486  49.685  44.020  0.00  0.00    -0.055 A 
ENDBRANCH  12  13
ENDBRANCH  10  11
ENDBRANCH   1  10
BRANCH   2  19
ATOM     19  O   UNL     1      85.702  55.486  42.547  0.00  0.00    -0.506 OA
ATOM     20  H   UNL     1      85.377  56.246  42.106  0.00  0.00    +0.000 HD
ENDBRANCH   2  19
BRANCH   7  21
ATOM     21  O   UNL     1      84.407  52.577  46.217  0.00  0.00    -0.506 OA
ATOM     22  H   UNL     1      84.554  51.828  45.674  0.00  0.00    +0.000 HD
ENDBRANCH   7  21
BRANCH   5  23
ATOM     23  O   UNL     1      85.699  57.236  47.038  0.00  0.00    -0.506 OA
ATOM     24  H   UNL     1      85.035  57.850  47.283  0.00  0.00    +0.000 HD
ENDBRANCH   5  23
TORSDOF 6
ENDMDL
MODEL 9
REMARK VINA RESULT:    -7.092      3.763      7.258
REMARK INTER + INTRA:          -9.597
REMARK INTER:                  -8.805
REMARK INTRA:                  -0.791
REMARK UNBOUND:                -0.638
REMARK  Name = 
REMARK  8 active torsions:
REMARK  status: ('A' for Active; 'I' for Inactive)
REMARK    1  A    between atoms: C_2  and  C_3
REMARK    2  A    between atoms: C_2  and  C_14
REMARK    3  A    between atoms: C_4  and  O_5
REMARK    4  A    between atoms: C_6  and  C_7
REMARK    5  A    between atoms: C_8  and  O_13
REMARK    6  A    between atoms: C_9  and  C_12
REMARK    7  A    between atoms: C_10  and  O_11
REMARK    8  A    between atoms: C_15  and  C_16
REMARK                            x       y       z     vdW  Elec       q    Type
REMARK                         _______ _______ _______ _____ _____    ______ ____
ROOT
ATOM      1  C   UNL     1      85.141  52.554  43.452  0.00  0.00    +0.105 A 
ATOM      2  C   UNL     1      83.926  51.837  43.506  0.00  0.00    +0.138 A 
ATOM      3  C   UNL     1      82.842  52.228  42.700  0.00  0.00    +0.034 A 
ATOM      4  C   UNL     1      81.567  51.422  42.714  0.00  0.00    -0.033 C 
ATOM      5  C   UNL     1      82.980  53.308  41.809  0.00  0.00    +0.130 A 
ATOM      6  C   UNL     1      84.168  54.079  41.803  0.00  0.00    +0.034 A 
ATOM      7  C   UNL     1      85.268  53.658  42.588  0.00  0.00    +0.138 A 
ATOM      8  C   UNL     1      84.261  55.335  40.968  0.00  0.00    -0.033 C 
ENDROOT
BRANCH   1  10
ATOM      9  O   UNL     1      86.562  52.856  45.321  0.00  0.00    -0.287 OA
ATOM     10  C   UNL     1      86.283  52.162  44.304  0.00  0.00    +0.193 C 
BRANCH  10  11
ATOM     11  C   UNL     1      87.087  50.968  43.968  0.00  0.00    -0.014 C 
ATOM     12  C   UNL     1      87.743  50.854  42.805  0.00  0.00    -0.051 C 
BRANCH  12  13
ATOM     13  C   UNL     1      88.550  49.667  42.428  0.00  0.00    -0.025 A 
ATOM     14  C   UNL     1      89.933  49.744  42.156  0.00  0.00    -0.055 A 
ATOM     15  C   UNL     1      90.647  48.598  41.793  0.00  0.00    -0.061 A 
ATOM     16  C   UNL     1      89.995  47.368  41.689  0.00  0.00    -0.062 A 
ATOM     17  C   UNL     1      88.624  47.282  41.941  0.00  0.00    -0.061 A 
ATOM     18  C   UNL     1      87.905  48.425  42.303  0.00  0.00    -0.055 A 
ENDBRANCH  12  13
ENDBRANCH  10  11
ENDBRANCH   1  10
BRANCH   2  19
ATOM     19  O   UNL     1      83.785  50.710  44.324  0.00  0.00    -0.506 OA
ATOM     20  H   UNL     1      82.983  50.225  44.318  0.00  0.00    +0.000 HD
ENDBRANCH   2  19
BRANCH   7  21
ATOM     21  O   UNL     1      86.502  54.318  42.532  0.00  0.00    -0.506 OA
ATOM     22  H   UNL     1      86.660  55.063  43.079  0.00  0.00    +0.000 HD
ENDBRANCH   7  21
BRANCH   5  23
ATOM     23  O   UNL     1      81.927  53.580  40.927  0.00  0.00    -0.506 OA
ATOM     24  H   UNL     1      82.043  54.206  40.239  0.00  0.00    +0.000 HD
ENDBRANCH   5  23
TORSDOF 6
ENDMDL
