MODEL 1
REMARK VINA RESULT:    -8.057      0.000      0.000
REMARK INTER + INTRA:         -10.559
REMARK INTER:                 -10.205
REMARK INTRA:                  -0.354
REMARK UNBOUND:                -0.618
REMARK  Name = 
REMARK  8 active torsions:
REMARK  status: ('A' for Active; 'I' for Inactive)
REMARK    1  A    between atoms: C_1  and  C_2
REMARK    2  A    between atoms: C_3  and  C_4
REMARK    3  A    between atoms: C_4  and  C_5
REMARK    4  A    between atoms: C_4  and  C_19
REMARK    5  A    between atoms: C_4  and  C_20
REMARK    6  A    between atoms: C_11  and  C_12
REMARK    7  A    between atoms: C_13  and  C_14
REMARK    8  A    between atoms: C_14  and  C_16
REMARK                            x       y       z     vdW  Elec       q    Type
REMARK                         _______ _______ _______ _____ _____    ______ ____
ROOT
ATOM      1  C   UNL     1      84.765  56.664  45.776  0.00  0.00    -0.013 A 
ATOM      2  C   UNL     1      83.897  57.598  46.355  0.00  0.00    +0.007 A 
ATOM      3  N   UNL     1      83.391  57.138  47.517  0.00  0.00    -0.360 N 
ATOM      4  C   UNL     1      83.937  55.928  47.707  0.00  0.00    +0.047 A 
ATOM      5  C   UNL     1      84.789  55.600  46.681  0.00  0.00    +0.004 A 
ATOM      6  C   UNL     1      85.509  54.400  46.704  0.00  0.00    -0.045 A 
ATOM      7  C   UNL     1      85.329  53.518  47.793  0.00  0.00    -0.024 A 
ATOM      8  C   UNL     1      84.418  53.864  48.827  0.00  0.00    -0.053 A 
ATOM      9  C   UNL     1      83.724  55.083  48.791  0.00  0.00    -0.037 A 
ATOM     10  H   UNL     1      82.750  57.596  48.106  0.00  0.00    +0.000 HD
ENDROOT
BRANCH   1  11
ATOM     11  C   UNL     1      85.562  56.840  44.478  0.00  0.00    +0.010 C 
ATOM     12  C   UNL     1      86.003  58.312  44.360  0.00  0.00    -0.052 C 
ATOM     13  C   UNL     1      86.810  55.926  44.463  0.00  0.00    -0.052 C 
BRANCH  11  16
ATOM     14  C   UNL     1      83.504  54.966  41.737  0.00  0.00    -0.047 C 
ATOM     15  C   UNL     1      84.342  55.249  42.944  0.00  0.00    -0.090 C 
ATOM     16  C   UNL     1      84.704  56.505  43.257  0.00  0.00    -0.078 C 
ENDBRANCH  11  16
ENDBRANCH   1  11
BRANCH   7  17
ATOM     17  C   UNL     1      86.086  52.241  47.798  0.00  0.00    -0.051 C 
ATOM     18  C   UNL     1      86.789  51.788  46.750  0.00  0.00    -0.019 C 
BRANCH  18  19
ATOM     19  C   UNL     1      87.520  50.507  46.788  0.00  0.00    +0.153 C 
ATOM     20  O   UNL     1      87.592  49.773  45.764  0.00  0.00    -0.293 OA
ATOM     21  C   UNL     1      88.181  50.070  48.055  0.00  0.00    -0.002 C 
ENDBRANCH  18  19
ENDBRANCH   7  17
TORSDOF 4
ENDMDL
MODEL 2
REMARK VINA RESULT:    -7.953      3.722      5.988
REMARK INTER + INTRA:         -10.430
REMARK INTER:                  -9.938
REMARK INTRA:                  -0.492
REMARK UNBOUND:                -0.618
REMARK  Name = 
REMARK  8 active torsions:
REMARK  status: ('A' for Active; 'I' for Inactive)
REMARK    1  A    between atoms: C_1  and  C_2
REMARK    2  A    between atoms: C_3  and  C_4
REMARK    3  A    between atoms: C_4  and  C_5
REMARK    4  A    between atoms: C_4  and  C_19
REMARK    5  A    between atoms: C_4  and  C_20
REMARK    6  A    between atoms: C_11  and  C_12
REMARK    7  A    between atoms: C_13  and  C_14
REMARK    8  A    between atoms: C_14  and  C_16
REMARK                            x       y       z     vdW  Elec       q    Type
REMARK                         _______ _______ _______ _____ _____    ______ ____
ROOT
ATOM      1  C   UNL     1      86.383  52.229  47.006  0.00  0.00    -0.013 A 
ATOM      2  C   UNL     1      86.541  51.280  48.025  0.00  0.00    +0.007 A 
ATOM      3  N   UNL     1      87.173  50.179  47.570  0.00  0.00    -0.360 N 
ATOM      4  C   UNL     1      87.443  50.412  46.277  0.00  0.00    +0.047 A 
ATOM      5  C   UNL     1      86.993  51.650  45.890  0.00  0.00    +0.004 A 
ATOM      6  C   UNL     1      87.218  52.120  44.591  0.00  0.00    -0.045 A 
ATOM      7  C   UNL     1      87.900  51.289  43.674  0.00  0.00    -0.024 A 
ATOM      8  C   UNL     1      88.328  49.998  44.088  0.00  0.00    -0.053 A 
ATOM      9  C   UNL     1      88.109  49.559  45.402  0.00  0.00    -0.037 A 
ATOM     10  H   UNL     1      87.391  49.367  48.082  0.00  0.00    +0.000 HD
ENDROOT
BRANCH   1  11
ATOM     11  C   UNL     1      85.751  53.619  47.143  0.00  0.00    +0.010 C 
ATOM     12  C   UNL     1      84.325  53.577  46.560  0.00  0.00    -0.052 C 
ATOM     13  C   UNL     1      85.689  54.057  48.624  0.00  0.00    -0.052 C 
BRANCH  11  16
ATOM     14  C   UNL     1      86.826  56.426  44.648  0.00  0.00    -0.047 C 
ATOM     15  C   UNL     1      86.006  55.417  45.390  0.00  0.00    -0.090 C 
ATOM     16  C   UNL     1      86.549  54.664  46.363  0.00  0.00    -0.078 C 
ENDBRANCH  11  16
ENDBRANCH   1  11
BRANCH   7  17
ATOM     17  C   UNL     1      88.118  51.792  42.295  0.00  0.00    -0.051 C 
ATOM     18  C   UNL     1      89.254  51.611  41.607  0.00  0.00    -0.019 C 
BRANCH  18  19
ATOM     19  C   UNL     1      89.439  52.135  40.240  0.00  0.00    +0.153 C 
ATOM     20  O   UNL     1      88.881  51.580  39.254  0.00  0.00    -0.293 OA
ATOM     21  C   UNL     1      90.300  53.337  40.019  0.00  0.00    -0.002 C 
ENDBRANCH  18  19
ENDBRANCH   7  17
TORSDOF 4
ENDMDL
MODEL 3
REMARK VINA RESULT:    -7.859      4.320      6.569
REMARK INTER + INTRA:         -10.315
REMARK INTER:                  -9.751
REMARK INTRA:                  -0.564
REMARK UNBOUND:                -0.618
REMARK  Name = 
REMARK  8 active torsions:
REMARK  status: ('A' for Active; 'I' for Inactive)
REMARK    1  A    between atoms: C_1  and  C_2
REMARK    2  A    between atoms: C_3  and  C_4
REMARK    3  A    between atoms: C_4  and  C_5
REMARK    4  A    between atoms: C_4  and  C_19
REMARK    5  A    between atoms: C_4  and  C_20
REMARK    6  A    between atoms: C_11  and  C_12
REMARK    7  A    between atoms: C_13  and  C_14
REMARK    8  A    between atoms: C_14  and  C_16
REMARK                            x       y       z     vdW  Elec       q    Type
REMARK                         _______ _______ _______ _____ _____    ______ ____
ROOT
ATOM      1  C   UNL     1      87.904  51.189  43.444  0.00  0.00    -0.013 A 
ATOM      2  C   UNL     1      88.209  50.040  44.186  0.00  0.00    +0.007 A 
ATOM      3  N   UNL     1      87.897  50.204  45.488  0.00  0.00    -0.360 N 
ATOM      4  C   UNL     1      87.376  51.435  45.593  0.00  0.00    +0.047 A 
ATOM      5  C   UNL     1      87.347  52.069  44.376  0.00  0.00    +0.004 A 
ATOM      6  C   UNL     1      86.792  53.347  44.247  0.00  0.00    -0.045 A 
ATOM      7  C   UNL     1      86.277  53.986  45.398  0.00  0.00    -0.024 A 
ATOM      8  C   UNL     1      86.347  53.323  46.653  0.00  0.00    -0.053 A 
ATOM      9  C   UNL     1      86.890  52.033  46.751  0.00  0.00    -0.037 A 
ATOM     10  H   UNL     1      88.028  49.553  46.214  0.00  0.00    +0.000 HD
ENDROOT
BRANCH   1  11
ATOM     11  C   UNL     1      88.076  51.372  41.932  0.00  0.00    +0.010 C 
ATOM     12  C   UNL     1      88.629  50.065  41.332  0.00  0.00    -0.052 C 
ATOM     13  C   UNL     1      86.729  51.719  41.257  0.00  0.00    -0.052 C 
BRANCH  11  16
ATOM     14  C   UNL     1      90.645  53.732  40.172  0.00  0.00    -0.047 C 
ATOM     15  C   UNL     1      89.671  52.624  40.429  0.00  0.00    -0.090 C 
ATOM     16  C   UNL     1      89.073  52.491  41.625  0.00  0.00    -0.078 C 
ENDBRANCH  11  16
ENDBRANCH   1  11
BRANCH   7  17
ATOM     17  C   UNL     1      85.705  55.348  45.251  0.00  0.00    -0.051 C 
ATOM     18  C   UNL     1      86.367  56.378  44.707  0.00  0.00    -0.019 C 
BRANCH  18  19
ATOM     19  C   UNL     1      85.769  57.723  44.588  0.00  0.00    +0.153 C 
ATOM     20  O   UNL     1      85.841  58.369  43.506  0.00  0.00    -0.293 OA
ATOM     21  C   UNL     1      85.074  58.330  45.763  0.00  0.00    -0.002 C 
ENDBRANCH  18  19
ENDBRANCH   7  17
TORSDOF 4
ENDMDL
MODEL 4
REMARK VINA RESULT:    -7.800      2.829      4.443
REMARK INTER + INTRA:         -10.242
REMARK INTER:                  -9.669
REMARK INTRA:                  -0.573
REMARK UNBOUND:                -0.618
REMARK  Name = 
REMARK  8 active torsions:
REMARK  status: ('A' for Active; 'I' for Inactive)
REMARK    1  A    between atoms: C_1  and  C_2
REMARK    2  A    between atoms: C_3  and  C_4
REMARK    3  A    between atoms: C_4  and  C_5
REMARK    4  A    between atoms: C_4  and  C_19
REMARK    5  A    between atoms: C_4  and  C_20
REMARK    6  A    between atoms: C_11  and  C_12
REMARK    7  A    between atoms: C_13  and  C_14
REMARK    8  A    between atoms: C_14  and  C_16
REMARK                            x       y       z     vdW  Elec       q    Type
REMARK                         _______ _______ _______ _____ _____    ______ ____
ROOT
ATOM      1  C   UNL     1      85.685  53.509  47.408  0.00  0.00    -0.013 A 
ATOM      2  C   UNL     1      85.561  53.144  48.755  0.00  0.00    +0.007 A 
ATOM      3  N   UNL     1      86.081  51.920  48.977  0.00  0.00    -0.360 N 
ATOM      4  C   UNL     1      86.559  51.499  47.797  0.00  0.00    +0.047 A 
ATOM      5  C   UNL     1      86.353  52.435  46.815  0.00  0.00    +0.004 A 
ATOM      6  C   UNL     1      86.821  52.222  45.513  0.00  0.00    -0.045 A 
ATOM      7  C   UNL     1      87.495  51.015  45.220  0.00  0.00    -0.024 A 
ATOM      8  C   UNL     1      87.668  50.046  46.246  0.00  0.00    -0.053 A 
ATOM      9  C   UNL     1      87.207  50.294  47.548  0.00  0.00    -0.037 A 
ATOM     10  H   UNL     1      86.105  51.433  49.832  0.00  0.00    +0.000 HD
ENDROOT
BRANCH   1  11
ATOM     11  C   UNL     1      85.251  54.838  46.778  0.00  0.00    +0.010 C 
ATOM     12  C   UNL     1      84.229  55.519  47.708  0.00  0.00    -0.052 C 
ATOM     13  C   UNL     1      86.462  55.777  46.570  0.00  0.00    -0.052 C 
BRANCH  11  16
ATOM     14  C   UNL     1      84.167  55.100  43.034  0.00  0.00    -0.047 C 
ATOM     15  C   UNL     1      84.853  55.355  44.340  0.00  0.00    -0.090 C 
ATOM     16  C   UNL     1      84.578  54.610  45.424  0.00  0.00    -0.078 C 
ENDBRANCH  11  16
ENDBRANCH   1  11
BRANCH   7  17
ATOM     17  C   UNL     1      87.973  50.793  43.832  0.00  0.00    -0.051 C 
ATOM     18  C   UNL     1      88.359  49.600  43.360  0.00  0.00    -0.019 C 
BRANCH  18  19
ATOM     19  C   UNL     1      88.840  49.420  41.976  0.00  0.00    +0.153 C 
ATOM     20  O   UNL     1      88.092  49.681  40.993  0.00  0.00    -0.293 OA
ATOM     21  C   UNL     1      90.226  48.919  41.733  0.00  0.00    -0.002 C 
ENDBRANCH  18  19
ENDBRANCH   7  17
TORSDOF 4
ENDMDL
MODEL 5
REMARK VINA RESULT:    -7.535      3.373      6.302
REMARK INTER + INTRA:          -9.915
REMARK INTER:                  -9.603
REMARK INTRA:                  -0.312
REMARK UNBOUND:                -0.618
REMARK  Name = 
REMARK  8 active torsions:
REMARK  status: ('A' for Active; 'I' for Inactive)
REMARK    1  A    between atoms: C_1  and  C_2
REMARK    2  A    between atoms: C_3  and  C_4
REMARK    3  A    between atoms: C_4  and  C_5
REMARK    4  A    between atoms: C_4  and  C_19
REMARK    5  A    between atoms: C_4  and  C_20
REMARK    6  A    between atoms: C_11  and  C_12
REMARK    7  A    between atoms: C_13  and  C_14
REMARK    8  A    between atoms: C_14  and  C_16
REMARK                            x       y       z     vdW  Elec       q    Type
REMARK                         _______ _______ _______ _____ _____    ______ ____
ROOT
ATOM      1  C   UNL     1      87.009  51.124  45.689  0.00  0.00    -0.013 A 
ATOM      2  C   UNL     1      87.164  50.193  46.724  0.00  0.00    +0.007 A 
ATOM      3  N   UNL     1      86.806  50.722  47.912  0.00  0.00    -0.360 N 
ATOM      4  C   UNL     1      86.403  51.975  47.654  0.00  0.00    +0.047 A 
ATOM      5  C   UNL     1      86.496  52.262  46.315  0.00  0.00    +0.004 A 
ATOM      6  C   UNL     1      86.076  53.501  45.818  0.00  0.00    -0.045 A 
ATOM      7  C   UNL     1      85.570  54.462  46.721  0.00  0.00    -0.024 A 
ATOM      8  C   UNL     1      85.513  54.154  48.107  0.00  0.00    -0.053 A 
ATOM      9  C   UNL     1      85.921  52.897  48.578  0.00  0.00    -0.037 A 
ATOM     10  H   UNL     1      86.836  50.280  48.790  0.00  0.00    +0.000 HD
ENDROOT
BRANCH   1  11
ATOM     11  C   UNL     1      87.274  50.883  44.198  0.00  0.00    +0.010 C 
ATOM     12  C   UNL     1      85.987  50.340  43.546  0.00  0.00    -0.052 C 
ATOM     13  C   UNL     1      87.697  52.191  43.490  0.00  0.00    -0.052 C 
BRANCH  11  16
ATOM     14  C   UNL     1      90.213  48.766  42.736  0.00  0.00    -0.047 C 
ATOM     15  C   UNL     1      89.145  49.803  42.893  0.00  0.00    -0.090 C 
ATOM     16  C   UNL     1      88.378  49.845  43.997  0.00  0.00    -0.078 C 
ENDBRANCH  11  16
ENDBRANCH   1  11
BRANCH   7  17
ATOM     17  C   UNL     1      85.142  55.778  46.183  0.00  0.00    -0.051 C 
ATOM     18  C   UNL     1      85.860  56.492  45.305  0.00  0.00    -0.019 C 
BRANCH  18  19
ATOM     19  C   UNL     1      85.407  57.803  44.800  0.00  0.00    +0.153 C 
ATOM     20  O   UNL     1      85.721  58.193  43.642  0.00  0.00    -0.293 OA
ATOM     21  C   UNL     1      84.572  58.683  45.672  0.00  0.00    -0.002 C 
ENDBRANCH  18  19
ENDBRANCH   7  17
TORSDOF 4
ENDMDL
MODEL 6
REMARK VINA RESULT:    -7.439      4.240      5.880
REMARK INTER + INTRA:          -9.797
REMARK INTER:                  -9.142
REMARK INTRA:                  -0.655
REMARK UNBOUND:                -0.618
REMARK  Name = 
REMARK  8 active torsions:
REMARK  status: ('A' for Active; 'I' for Inactive)
REMARK    1  A    between atoms: C_1  and  C_2
REMARK    2  A    between atoms: C_3  and  C_4
REMARK    3  A    between atoms: C_4  and  C_5
REMARK    4  A    between atoms: C_4  and  C_19
REMARK    5  A    between atoms: C_4  and  C_20
REMARK    6  A    between atoms: C_11  and  C_12
REMARK    7  A    between atoms: C_13  and  C_14
REMARK    8  A    between atoms: C_14  and  C_16
REMARK                            x       y       z     vdW  Elec       q    Type
REMARK                         _______ _______ _______ _____ _____    ______ ____
ROOT
ATOM      1  C   UNL     1      85.009  53.668  44.880  0.00  0.00    -0.013 A 
ATOM      2  C   UNL     1      84.972  54.731  43.968  0.00  0.00    +0.007 A 
ATOM      3  N   UNL     1      84.239  54.414  42.881  0.00  0.00    -0.360 N 
ATOM      4  C   UNL     1      83.785  53.169  43.088  0.00  0.00    +0.047 A 
ATOM      5  C   UNL     1      84.216  52.677  44.295  0.00  0.00    +0.004 A 
ATOM      6  C   UNL     1      83.815  51.411  44.737  0.00  0.00    -0.045 A 
ATOM      7  C   UNL     1      82.972  50.636  43.909  0.00  0.00    -0.024 A 
ATOM      8  C   UNL     1      82.564  51.153  42.650  0.00  0.00    -0.053 A 
ATOM      9  C   UNL     1      82.964  52.434  42.239  0.00  0.00    -0.037 A 
ATOM     10  H   UNL     1      84.072  54.981  42.094  0.00  0.00    +0.000 HD
ENDROOT
BRANCH   1  11
ATOM     11  C   UNL     1      85.705  53.661  46.246  0.00  0.00    +0.010 C 
ATOM     12  C   UNL     1      86.469  54.987  46.422  0.00  0.00    -0.052 C 
ATOM     13  C   UNL     1      84.679  53.502  47.392  0.00  0.00    -0.052 C 
BRANCH  11  16
ATOM     14  C   UNL     1      87.658  50.459  47.339  0.00  0.00    -0.047 C 
ATOM     15  C   UNL     1      86.644  51.558  47.280  0.00  0.00    -0.090 C 
ATOM     16  C   UNL     1      86.716  52.518  46.341  0.00  0.00    -0.078 C 
ENDBRANCH  11  16
ENDBRANCH   1  11
BRANCH   7  17
ATOM     17  C   UNL     1      82.566  49.288  44.381  0.00  0.00    -0.051 C 
ATOM     18  C   UNL     1      81.952  48.382  43.608  0.00  0.00    -0.019 C 
BRANCH  18  19
ATOM     19  C   UNL     1      81.554  47.055  44.116  0.00  0.00    +0.153 C 
ATOM     20  O   UNL     1      82.411  46.260  44.590  0.00  0.00    -0.293 OA
ATOM     21  C   UNL     1      80.118  46.644  44.064  0.00  0.00    -0.002 C 
ENDBRANCH  18  19
ENDBRANCH   7  17
TORSDOF 4
ENDMDL
MODEL 7
REMARK VINA RESULT:    -7.376      5.507      8.391
REMARK INTER + INTRA:          -9.719
REMARK INTER:                  -9.126
REMARK INTRA:                  -0.593
REMARK UNBOUND:                -0.618
REMARK  Name = 
REMARK  8 active torsions:
REMARK  status: ('A' for Active; 'I' for Inactive)
REMARK    1  A    between atoms: C_1  and  C_2
REMARK    2  A    between atoms: C_3  and  C_4
REMARK    3  A    between atoms: C_4  and  C_5
REMARK    4  A    between atoms: C_4  and  C_19
REMARK    5  A    between atoms: C_4  and  C_20
REMARK    6  A    between atoms: C_11  and  C_12
REMARK    7  A    between atoms: C_13  and  C_14
REMARK    8  A    between atoms: C_14  and  C_16
REMARK                            x       y       z     vdW  Elec       q    Type
REMARK                         _______ _______ _______ _____ _____    ______ ____
ROOT
ATOM      1  C   UNL     1      88.079  50.723  43.322  0.00  0.00    -0.013 A 
ATOM      2  C   UNL     1      88.604  51.769  42.552  0.00  0.00    +0.007 A 
ATOM      3  N   UNL     1      89.496  51.309  41.651  0.00  0.00    -0.360 N 
ATOM      4  C   UNL     1      89.539  49.979  41.815  0.00  0.00    +0.047 A 
ATOM      5  C   UNL     1      88.686  49.573  42.810  0.00  0.00    +0.004 A 
ATOM      6  C   UNL     1      88.534  48.215  43.113  0.00  0.00    -0.045 A 
ATOM      7  C   UNL     1      89.289  47.266  42.388  0.00  0.00    -0.024 A 
ATOM      8  C   UNL     1      90.189  47.712  41.383  0.00  0.00    -0.053 A 
ATOM      9  C   UNL     1      90.308  49.078  41.085  0.00  0.00    -0.037 A 
ATOM     10  H   UNL     1      90.013  51.842  41.005  0.00  0.00    +0.000 HD
ENDROOT
BRANCH   1  11
ATOM     11  C   UNL     1      87.013  50.841  44.417  0.00  0.00    +0.010 C 
ATOM     12  C   UNL     1      86.751  52.334  44.698  0.00  0.00    -0.052 C 
ATOM     13  C   UNL     1      85.694  50.160  43.984  0.00  0.00    -0.052 C 
BRANCH  11  16
ATOM     14  C   UNL     1      87.999  50.180  48.138  0.00  0.00    -0.047 C 
ATOM     15  C   UNL     1      87.523  50.853  46.889  0.00  0.00    -0.090 C 
ATOM     16  C   UNL     1      87.487  50.193  45.718  0.00  0.00    -0.078 C 
ENDBRANCH  11  16
ENDBRANCH   1  11
BRANCH   7  17
ATOM     17  C   UNL     1      89.130  45.830  42.729  0.00  0.00    -0.051 C 
ATOM     18  C   UNL     1      87.943  45.226  42.874  0.00  0.00    -0.019 C 
BRANCH  18  19
ATOM     19  C   UNL     1      87.824  43.797  43.224  0.00  0.00    +0.153 C 
ATOM     20  O   UNL     1      86.964  43.064  42.664  0.00  0.00    -0.293 OA
ATOM     21  C   UNL     1      88.729  43.212  44.259  0.00  0.00    -0.002 C 
ENDBRANCH  18  19
ENDBRANCH   7  17
TORSDOF 4
ENDMDL
MODEL 8
REMARK VINA RESULT:    -7.342      4.698      7.617
REMARK INTER + INTRA:          -9.677
REMARK INTER:                  -9.059
REMARK INTRA:                  -0.618
REMARK UNBOUND:                -0.618
REMARK  Name = 
REMARK  8 active torsions:
REMARK  status: ('A' for Active; 'I' for Inactive)
REMARK    1  A    between atoms: C_1  and  C_2
REMARK    2  A    between atoms: C_3  and  C_4
REMARK    3  A    between atoms: C_4  and  C_5
REMARK    4  A    between atoms: C_4  and  C_19
REMARK    5  A    between atoms: C_4  and  C_20
REMARK    6  A    between atoms: C_11  and  C_12
REMARK    7  A    between atoms: C_13  and  C_14
REMARK    8  A    between atoms: C_14  and  C_16
REMARK                            x       y       z     vdW  Elec       q    Type
REMARK                         _______ _______ _______ _____ _____    ______ ____
ROOT
ATOM      1  C   UNL     1      89.172  49.814  42.193  0.00  0.00    -0.013 A 
ATOM      2  C   UNL     1      89.346  50.483  40.974  0.00  0.00    +0.007 A 
ATOM      3  N   UNL     1      88.734  51.685  40.988  0.00  0.00    -0.360 N 
ATOM      4  C   UNL     1      88.186  51.810  42.206  0.00  0.00    +0.047 A 
ATOM      5  C   UNL     1      88.435  50.703  42.979  0.00  0.00    +0.004 A 
ATOM      6  C   UNL     1      87.998  50.644  44.307  0.00  0.00    -0.045 A 
ATOM      7  C   UNL     1      87.276  51.738  44.836  0.00  0.00    -0.024 A 
ATOM      8  C   UNL     1      87.003  52.859  44.007  0.00  0.00    -0.053 A 
ATOM      9  C   UNL     1      87.470  52.902  42.685  0.00  0.00    -0.037 A 
ATOM     10  H   UNL     1      88.696  52.339  40.253  0.00  0.00    +0.000 HD
ENDROOT
BRANCH   1  11
ATOM     11  C   UNL     1      89.750  48.446  42.573  0.00  0.00    +0.010 C 
ATOM     12  C   UNL     1      90.379  47.806  41.320  0.00  0.00    -0.052 C 
ATOM     13  C   UNL     1      90.825  48.584  43.675  0.00  0.00    -0.052 C 
BRANCH  11  16
ATOM     14  C   UNL     1      86.724  45.986  42.802  0.00  0.00    -0.047 C 
ATOM     15  C   UNL     1      87.785  46.893  42.261  0.00  0.00    -0.090 C 
ATOM     16  C   UNL     1      88.654  47.509  43.081  0.00  0.00    -0.078 C 
ENDBRANCH  11  16
ENDBRANCH   1  11
BRANCH   7  17
ATOM     17  C   UNL     1      86.804  51.657  46.241  0.00  0.00    -0.051 C 
ATOM     18  C   UNL     1      86.225  52.675  46.891  0.00  0.00    -0.019 C 
BRANCH  18  19
ATOM     19  C   UNL     1      85.777  52.561  48.293  0.00  0.00    +0.153 C 
ATOM     20  O   UNL     1      86.183  51.617  49.026  0.00  0.00    -0.293 OA
ATOM     21  C   UNL     1      84.829  53.572  48.852  0.00  0.00    -0.002 C 
ENDBRANCH  18  19
ENDBRANCH   7  17
TORSDOF 4
ENDMDL
MODEL 9
REMARK VINA RESULT:    -7.267      4.477      6.061
REMARK INTER + INTRA:          -9.584
REMARK INTER:                  -9.080
REMARK INTRA:                  -0.504
REMARK UNBOUND:                -0.618
REMARK  Name = 
REMARK  8 active torsions:
REMARK  status: ('A' for Active; 'I' for Inactive)
REMARK    1  A    between atoms: C_1  and  C_2
REMARK    2  A    between atoms: C_3  and  C_4
REMARK    3  A    between atoms: C_4  and  C_5
REMARK    4  A    between atoms: C_4  and  C_19
REMARK    5  A    between atoms: C_4  and  C_20
REMARK    6  A    between atoms: C_11  and  C_12
REMARK    7  A    between atoms: C_13  and  C_14
REMARK    8  A    between atoms: C_14  and  C_16
REMARK                            x       y       z     vdW  Elec       q    Type
REMARK                         _______ _______ _______ _____ _____    ______ ____
ROOT
ATOM      1  C   UNL     1      84.628  53.488  44.202  0.00  0.00    -0.013 A 
ATOM      2  C   UNL     1      84.482  54.482  43.225  0.00  0.00    +0.007 A 
ATOM      3  N   UNL     1      83.641  54.084  42.249  0.00  0.00    -0.360 N 
ATOM      4  C   UNL     1      83.225  52.856  42.592  0.00  0.00    +0.047 A 
ATOM      5  C   UNL     1      83.788  52.455  43.779  0.00  0.00    +0.004 A 
ATOM      6  C   UNL     1      83.450  51.223  44.351  0.00  0.00    -0.045 A 
ATOM      7  C   UNL     1      82.533  50.387  43.677  0.00  0.00    -0.024 A 
ATOM      8  C   UNL     1      81.987  50.809  42.434  0.00  0.00    -0.053 A 
ATOM      9  C   UNL     1      82.327  52.058  41.892  0.00  0.00    -0.037 A 
ATOM     10  H   UNL     1      83.385  54.591  41.445  0.00  0.00    +0.000 HD
ENDROOT
BRANCH   1  11
ATOM     11  C   UNL     1      85.465  53.583  45.482  0.00  0.00    +0.010 C 
ATOM     12  C   UNL     1      86.525  52.465  45.469  0.00  0.00    -0.052 C 
ATOM     13  C   UNL     1      86.168  54.957  45.587  0.00  0.00    -0.052 C 
BRANCH  11  16
ATOM     14  C   UNL     1      84.215  53.067  49.148  0.00  0.00    -0.047 C 
ATOM     15  C   UNL     1      85.106  53.258  47.960  0.00  0.00    -0.090 C 
ATOM     16  C   UNL     1      84.593  53.391  46.724  0.00  0.00    -0.078 C 
ENDBRANCH  11  16
ENDBRANCH   1  11
BRANCH   7  17
ATOM     17  C   UNL     1      82.194  49.076  44.286  0.00  0.00    -0.051 C 
ATOM     18  C   UNL     1      81.848  47.993  43.577  0.00  0.00    -0.019 C 
BRANCH  18  19
ATOM     19  C   UNL     1      81.508  46.708  44.218  0.00  0.00    +0.153 C 
ATOM     20  O   UNL     1      82.410  45.962  44.688  0.00  0.00    -0.293 OA
ATOM     21  C   UNL     1      80.078  46.283  44.309  0.00  0.00    -0.002 C 
ENDBRANCH  18  19
ENDBRANCH   7  17
TORSDOF 4
ENDMDL
