MODEL 1
REMARK VINA RESULT:    -7.694      0.000      0.000
REMARK INTER + INTRA:         -12.286
REMARK INTER:                 -11.061
REMARK INTRA:                  -1.225
REMARK UNBOUND:                -1.218
REMARK  Name = 
REMARK  13 active torsions:
REMARK  status: ('A' for Active; 'I' for Inactive)
REMARK    1  A    between atoms: C_1  and  C_2
REMARK    2  A    between atoms: C_2  and  O_4
REMARK    3  A    between atoms: O_4  and  C_5
REMARK    4  A    between atoms: C_5  and  C_6
REMARK    5  A    between atoms: C_6  and  C_7
REMARK    6  A    between atoms: C_6  and  C_11
REMARK    7  A    between atoms: C_7  and  O_8
REMARK    8  A    between atoms: C_7  and  C_9
REMARK    9  A    between atoms: C_7  and  C_10
REMARK   10  A    between atoms: C_17  and  C_20
REMARK   11  A    between atoms: C_20  and  C_21
REMARK   12  A    between atoms: C_23  and  C_24
REMARK   13  A    between atoms: C_23  and  C_25
REMARK                            x       y       z     vdW  Elec       q    Type
REMARK                         _______ _______ _______ _____ _____    ______ ____
ROOT
ATOM      1  C   UNL     1      86.516  52.951  42.402  0.00  0.00    -0.013 A 
ATOM      2  C   UNL     1      86.006  52.549  41.167  0.00  0.00    +0.006 A 
ATOM      3  N   UNL     1      85.053  53.409  40.744  0.00  0.00    -0.360 N 
ATOM      4  C   UNL     1      84.963  54.359  41.688  0.00  0.00    +0.047 A 
ATOM      5  C   UNL     1      85.842  54.120  42.713  0.00  0.00    +0.004 A 
ATOM      6  C   UNL     1      85.963  54.996  43.792  0.00  0.00    -0.049 A 
ATOM      7  C   UNL     1      85.134  56.139  43.820  0.00  0.00    -0.044 A 
ATOM      8  C   UNL     1      84.224  56.374  42.758  0.00  0.00    -0.057 A 
ATOM      9  C   UNL     1      84.137  55.480  41.677  0.00  0.00    -0.038 A 
ATOM     10  H   UNL     1      84.530  53.350  39.912  0.00  0.00    +0.000 HD
ENDROOT
BRANCH   1  11
ATOM     11  C   UNL     1      87.653  52.313  43.179  0.00  0.00    +0.049 C 
BRANCH  11  12
ATOM     12  C   UNL     1      87.141  51.396  44.345  0.00  0.00    +0.070 C 
ATOM     13  C   UNL     1      87.239  52.149  45.693  0.00  0.00    -0.036 C 
ATOM     14  C   UNL     1      87.997  50.112  44.447  0.00  0.00    -0.036 C 
BRANCH  12  15
ATOM     15  O   UNL     1      85.800  51.039  44.100  0.00  0.00    -0.388 OA
ATOM     16  H   UNL     1      85.772  50.267  43.513  0.00  0.00    +0.000 HD
ENDBRANCH  12  15
ENDBRANCH  11  12
BRANCH  11  17
ATOM     17  C   UNL     1      88.603  51.587  42.198  0.00  0.00    +0.102 C 
BRANCH  17  18
ATOM     18  O   UNL     1      89.541  52.507  41.635  0.00  0.00    -0.464 OA
BRANCH  18  20
ATOM     19  C   UNL     1      90.651  53.751  39.778  0.00  0.00    +0.033 C 
ATOM     20  C   UNL     1      89.766  52.654  40.262  0.00  0.00    +0.304 C 
ATOM     21  O   UNL     1      89.263  51.848  39.432  0.00  0.00    -0.251 OA
ENDBRANCH  18  20
ENDBRANCH  17  18
ENDBRANCH  11  17
ENDBRANCH   1  11
BRANCH   7  22
ATOM     22  C   UNL     1      85.203  57.097  44.978  0.00  0.00    +0.001 C 
BRANCH  22  23
ATOM     23  C   UNL     1      84.180  56.713  46.054  0.00  0.00    +0.092 C 
ATOM     24  O   UNL     1      84.433  57.382  47.274  0.00  0.00    -0.365 OA
ATOM     25  C   UNL     1      84.609  55.982  47.282  0.00  0.00    +0.091 C 
ATOM     26  C   UNL     1      86.068  55.578  47.515  0.00  0.00    -0.034 C 
ATOM     27  C   UNL     1      83.524  55.269  48.087  0.00  0.00    -0.034 C 
ENDBRANCH  22  23
ENDBRANCH   7  22
TORSDOF 8
ENDMDL
MODEL 2
REMARK VINA RESULT:    -7.531      5.267      7.364
REMARK INTER + INTRA:         -12.052
REMARK INTER:                 -10.996
REMARK INTRA:                  -1.056
REMARK UNBOUND:                -1.218
REMARK  Name = 
REMARK  13 active torsions:
REMARK  status: ('A' for Active; 'I' for Inactive)
REMARK    1  A    between atoms: C_1  and  C_2
REMARK    2  A    between atoms: C_2  and  O_4
REMARK    3  A    between atoms: O_4  and  C_5
REMARK    4  A    between atoms: C_5  and  C_6
REMARK    5  A    between atoms: C_6  and  C_7
REMARK    6  A    between atoms: C_6  and  C_11
REMARK    7  A    between atoms: C_7  and  O_8
REMARK    8  A    between atoms: C_7  and  C_9
REMARK    9  A    between atoms: C_7  and  C_10
REMARK   10  A    between atoms: C_17  and  C_20
REMARK   11  A    between atoms: C_20  and  C_21
REMARK   12  A    between atoms: C_23  and  C_24
REMARK   13  A    between atoms: C_23  and  C_25
REMARK                            x       y       z     vdW  Elec       q    Type
REMARK                         _______ _______ _______ _____ _____    ______ ____
ROOT
ATOM      1  C   UNL     1      87.223  47.424  42.725  0.00  0.00    -0.013 A 
ATOM      2  C   UNL     1      88.249  46.506  42.489  0.00  0.00    +0.006 A 
ATOM      3  N   UNL     1      87.807  45.242  42.674  0.00  0.00    -0.360 N 
ATOM      4  C   UNL     1      86.510  45.346  43.008  0.00  0.00    +0.047 A 
ATOM      5  C   UNL     1      86.115  46.658  43.044  0.00  0.00    +0.004 A 
ATOM      6  C   UNL     1      84.796  47.017  43.326  0.00  0.00    -0.049 A 
ATOM      7  C   UNL     1      83.869  45.988  43.599  0.00  0.00    -0.044 A 
ATOM      8  C   UNL     1      84.289  44.634  43.566  0.00  0.00    -0.057 A 
ATOM      9  C   UNL     1      85.622  44.305  43.263  0.00  0.00    -0.038 A 
ATOM     10  H   UNL     1      88.330  44.413  42.583  0.00  0.00    +0.000 HD
ENDROOT
BRANCH   1  11
ATOM     11  C   UNL     1      87.279  48.930  42.546  0.00  0.00    +0.049 C 
BRANCH  11  12
ATOM     12  C   UNL     1      87.738  49.671  43.851  0.00  0.00    +0.070 C 
ATOM     13  C   UNL     1      89.201  49.293  44.187  0.00  0.00    -0.036 C 
ATOM     14  C   UNL     1      86.849  49.267  45.050  0.00  0.00    -0.036 C 
BRANCH  12  15
ATOM     15  O   UNL     1      87.644  51.062  43.653  0.00  0.00    -0.388 OA
ATOM     16  H   UNL     1      86.891  51.257  43.073  0.00  0.00    +0.000 HD
ENDBRANCH  12  15
ENDBRANCH  11  12
BRANCH  11  17
ATOM     17  C   UNL     1      88.143  49.269  41.309  0.00  0.00    +0.102 C 
BRANCH  17  18
ATOM     18  O   UNL     1      87.882  50.603  40.865  0.00  0.00    -0.464 OA
BRANCH  18  20
ATOM     19  C   UNL     1      89.750  52.224  41.198  0.00  0.00    +0.033 C 
ATOM     20  C   UNL     1      88.849  51.443  40.303  0.00  0.00    +0.304 C 
ATOM     21  O   UNL     1      88.995  51.519  39.053  0.00  0.00    -0.251 OA
ENDBRANCH  18  20
ENDBRANCH  17  18
ENDBRANCH  11  17
ENDBRANCH   1  11
BRANCH   7  22
ATOM     22  C   UNL     1      82.443  46.324  43.941  0.00  0.00    +0.001 C 
BRANCH  22  23
ATOM     23  C   UNL     1      82.144  47.792  43.612  0.00  0.00    +0.092 C 
ATOM     24  O   UNL     1      81.913  48.550  44.783  0.00  0.00    -0.365 OA
ATOM     25  C   UNL     1      80.809  48.382  43.922  0.00  0.00    +0.091 C 
ATOM     26  C   UNL     1      79.688  47.557  44.562  0.00  0.00    -0.034 C 
ATOM     27  C   UNL     1      80.433  49.678  43.205  0.00  0.00    -0.034 C 
ENDBRANCH  22  23
ENDBRANCH   7  22
TORSDOF 8
ENDMDL
MODEL 3
REMARK VINA RESULT:    -7.521      2.613      7.118
REMARK INTER + INTRA:         -12.037
REMARK INTER:                 -11.166
REMARK INTRA:                  -0.872
REMARK UNBOUND:                -1.218
REMARK  Name = 
REMARK  13 active torsions:
REMARK  status: ('A' for Active; 'I' for Inactive)
REMARK    1  A    between atoms: C_1  and  C_2
REMARK    2  A    between atoms: C_2  and  O_4
REMARK    3  A    between atoms: O_4  and  C_5
REMARK    4  A    between atoms: C_5  and  C_6
REMARK    5  A    between atoms: C_6  and  C_7
REMARK    6  A    between atoms: C_6  and  C_11
REMARK    7  A    between atoms: C_7  and  O_8
REMARK    8  A    between atoms: C_7  and  C_9
REMARK    9  A    between atoms: C_7  and  C_10
REMARK   10  A    between atoms: C_17  and  C_20
REMARK   11  A    between atoms: C_20  and  C_21
REMARK   12  A    between atoms: C_23  and  C_24
REMARK   13  A    between atoms: C_23  and  C_25
REMARK                            x       y       z     vdW  Elec       q    Type
REMARK                         _______ _______ _______ _____ _____    ______ ____
ROOT
ATOM      1  C   UNL     1      86.526  53.796  45.193  0.00  0.00    -0.013 A 
ATOM      2  C   UNL     1      86.095  54.237  46.445  0.00  0.00    +0.006 A 
ATOM      3  N   UNL     1      86.118  53.225  47.340  0.00  0.00    -0.360 N 
ATOM      4  C   UNL     1      86.574  52.151  46.674  0.00  0.00    +0.047 A 
ATOM      5  C   UNL     1      86.840  52.459  45.365  0.00  0.00    +0.004 A 
ATOM      6  C   UNL     1      87.366  51.514  44.484  0.00  0.00    -0.049 A 
ATOM      7  C   UNL     1      87.601  50.208  44.968  0.00  0.00    -0.044 A 
ATOM      8  C   UNL     1      87.317  49.898  46.322  0.00  0.00    -0.057 A 
ATOM      9  C   UNL     1      86.802  50.878  47.189  0.00  0.00    -0.038 A 
ATOM     10  H   UNL     1      85.854  53.266  48.287  0.00  0.00    +0.000 HD
ENDROOT
BRANCH   1  11
ATOM     11  C   UNL     1      86.728  54.634  43.943  0.00  0.00    +0.049 C 
BRANCH  11  12
ATOM     12  C   UNL     1      85.563  54.452  42.907  0.00  0.00    +0.070 C 
ATOM     13  C   UNL     1      84.286  53.959  43.628  0.00  0.00    -0.036 C 
ATOM     14  C   UNL     1      85.945  53.406  41.834  0.00  0.00    -0.036 C 
BRANCH  12  15
ATOM     15  O   UNL     1      85.304  55.686  42.279  0.00  0.00    -0.388 OA
ATOM     16  H   UNL     1      84.361  55.901  42.364  0.00  0.00    +0.000 HD
ENDBRANCH  12  15
ENDBRANCH  11  12
BRANCH  11  17
ATOM     17  C   UNL     1      86.972  56.107  44.344  0.00  0.00    +0.102 C 
BRANCH  17  18
ATOM     18  O   UNL     1      85.777  56.687  44.871  0.00  0.00    -0.464 OA
BRANCH  18  20
ATOM     19  C   UNL     1      84.594  58.737  45.664  0.00  0.00    +0.033 C 
ATOM     20  C   UNL     1      85.371  58.004  44.625  0.00  0.00    +0.304 C 
ATOM     21  O   UNL     1      85.687  58.590  43.554  0.00  0.00    -0.251 OA
ENDBRANCH  18  20
ENDBRANCH  17  18
ENDBRANCH  11  17
ENDBRANCH   1  11
BRANCH   7  22
ATOM     22  C   UNL     1      88.137  49.144  44.049  0.00  0.00    +0.001 C 
BRANCH  22  23
ATOM     23  C   UNL     1      88.171  49.652  42.602  0.00  0.00    +0.092 C 
ATOM     24  O   UNL     1      88.574  48.636  41.704  0.00  0.00    -0.365 OA
ATOM     25  C   UNL     1      89.460  49.723  41.854  0.00  0.00    +0.091 C 
ATOM     26  C   UNL     1      90.790  49.310  42.492  0.00  0.00    -0.034 C 
ATOM     27  C   UNL     1      89.500  50.611  40.611  0.00  0.00    -0.034 C 
ENDBRANCH  22  23
ENDBRANCH   7  22
TORSDOF 8
ENDMDL
MODEL 4
REMARK VINA RESULT:    -7.516      5.302      6.791
REMARK INTER + INTRA:         -12.029
REMARK INTER:                 -11.305
REMARK INTRA:                  -0.725
REMARK UNBOUND:                -1.218
REMARK  Name = 
REMARK  13 active torsions:
REMARK  status: ('A' for Active; 'I' for Inactive)
REMARK    1  A    between atoms: C_1  and  C_2
REMARK    2  A    between atoms: C_2  and  O_4
REMARK    3  A    between atoms: O_4  and  C_5
REMARK    4  A    between atoms: C_5  and  C_6
REMARK    5  A    between atoms: C_6  and  C_7
REMARK    6  A    between atoms: C_6  and  C_11
REMARK    7  A    between atoms: C_7  and  O_8
REMARK    8  A    between atoms: C_7  and  C_9
REMARK    9  A    between atoms: C_7  and  C_10
REMARK   10  A    between atoms: C_17  and  C_20
REMARK   11  A    between atoms: C_20  and  C_21
REMARK   12  A    between atoms: C_23  and  C_24
REMARK   13  A    between atoms: C_23  and  C_25
REMARK                            x       y       z     vdW  Elec       q    Type
REMARK                         _______ _______ _______ _____ _____    ______ ____
ROOT
ATOM      1  C   UNL     1      81.449  49.497  43.723  0.00  0.00    -0.013 A 
ATOM      2  C   UNL     1      80.465  49.927  42.831  0.00  0.00    +0.006 A 
ATOM      3  N   UNL     1      80.789  51.131  42.309  0.00  0.00    -0.360 N 
ATOM      4  C   UNL     1      81.973  51.463  42.848  0.00  0.00    +0.047 A 
ATOM      5  C   UNL     1      82.412  50.491  43.710  0.00  0.00    +0.004 A 
ATOM      6  C   UNL     1      83.643  50.592  44.360  0.00  0.00    -0.049 A 
ATOM      7  C   UNL     1      84.429  51.742  44.126  0.00  0.00    -0.044 A 
ATOM      8  C   UNL     1      83.963  52.744  43.238  0.00  0.00    -0.057 A 
ATOM      9  C   UNL     1      82.725  52.605  42.586  0.00  0.00    -0.038 A 
ATOM     10  H   UNL     1      80.263  51.657  41.666  0.00  0.00    +0.000 HD
ENDROOT
BRANCH   1  11
ATOM     11  C   UNL     1      81.510  48.168  44.455  0.00  0.00    +0.049 C 
BRANCH  11  12
ATOM     12  C   UNL     1      80.146  47.798  45.136  0.00  0.00    +0.070 C 
ATOM     13  C   UNL     1      79.167  47.224  44.084  0.00  0.00    -0.036 C 
ATOM     14  C   UNL     1      79.494  49.050  45.769  0.00  0.00    -0.036 C 
BRANCH  12  15
ATOM     15  O   UNL     1      80.374  46.838  46.141  0.00  0.00    -0.388 OA
ATOM     16  H   UNL     1      79.592  46.270  46.230  0.00  0.00    +0.000 HD
ENDBRANCH  12  15
ENDBRANCH  11  12
BRANCH  11  17
ATOM     17  C   UNL     1      82.035  47.076  43.494  0.00  0.00    +0.102 C 
BRANCH  17  18
ATOM     18  O   UNL     1      82.613  45.997  44.230  0.00  0.00    -0.464 OA
BRANCH  18  20
ATOM     19  C   UNL     1      84.599  45.561  42.783  0.00  0.00    +0.033 C 
ATOM     20  C   UNL     1      83.953  45.606  44.125  0.00  0.00    +0.304 C 
ATOM     21  O   UNL     1      84.630  45.330  45.152  0.00  0.00    -0.251 OA
ENDBRANCH  18  20
ENDBRANCH  17  18
ENDBRANCH  11  17
ENDBRANCH   1  11
BRANCH   7  22
ATOM     22  C   UNL     1      85.748  51.914  44.828  0.00  0.00    +0.001 C 
BRANCH  22  23
ATOM     23  C   UNL     1      85.543  52.556  46.206  0.00  0.00    +0.092 C 
ATOM     24  O   UNL     1      86.736  53.143  46.689  0.00  0.00    -0.365 OA
ATOM     25  C   UNL     1      86.258  52.026  47.404  0.00  0.00    +0.091 C 
ATOM     26  C   UNL     1      87.204  50.825  47.316  0.00  0.00    -0.034 C 
ATOM     27  C   UNL     1      85.706  52.412  48.776  0.00  0.00    -0.034 C 
ENDBRANCH  22  23
ENDBRANCH   7  22
TORSDOF 8
ENDMDL
MODEL 5
REMARK VINA RESULT:    -7.454      2.189      4.685
REMARK INTER + INTRA:         -11.940
REMARK INTER:                 -11.600
REMARK INTRA:                  -0.340
REMARK UNBOUND:                -1.218
REMARK  Name = 
REMARK  13 active torsions:
REMARK  status: ('A' for Active; 'I' for Inactive)
REMARK    1  A    between atoms: C_1  and  C_2
REMARK    2  A    between atoms: C_2  and  O_4
REMARK    3  A    between atoms: O_4  and  C_5
REMARK    4  A    between atoms: C_5  and  C_6
REMARK    5  A    between atoms: C_6  and  C_7
REMARK    6  A    between atoms: C_6  and  C_11
REMARK    7  A    between atoms: C_7  and  O_8
REMARK    8  A    between atoms: C_7  and  C_9
REMARK    9  A    between atoms: C_7  and  C_10
REMARK   10  A    between atoms: C_17  and  C_20
REMARK   11  A    between atoms: C_20  and  C_21
REMARK   12  A    between atoms: C_23  and  C_24
REMARK   13  A    between atoms: C_23  and  C_25
REMARK                            x       y       z     vdW  Elec       q    Type
REMARK                         _______ _______ _______ _____ _____    ______ ____
ROOT
ATOM      1  C   UNL     1      87.900  51.578  42.847  0.00  0.00    -0.013 A 
ATOM      2  C   UNL     1      88.423  50.297  42.663  0.00  0.00    +0.006 A 
ATOM      3  N   UNL     1      88.436  49.616  43.830  0.00  0.00    -0.360 N 
ATOM      4  C   UNL     1      87.914  50.444  44.749  0.00  0.00    +0.047 A 
ATOM      5  C   UNL     1      87.569  51.647  44.189  0.00  0.00    +0.004 A 
ATOM      6  C   UNL     1      86.966  52.657  44.940  0.00  0.00    -0.049 A 
ATOM      7  C   UNL     1      86.734  52.420  46.313  0.00  0.00    -0.044 A 
ATOM      8  C   UNL     1      87.100  51.174  46.884  0.00  0.00    -0.057 A 
ATOM      9  C   UNL     1      87.692  50.171  46.096  0.00  0.00    -0.038 A 
ATOM     10  H   UNL     1      88.763  48.699  43.976  0.00  0.00    +0.000 HD
ENDROOT
BRANCH   1  11
ATOM     11  C   UNL     1      87.636  52.625  41.780  0.00  0.00    +0.049 C 
BRANCH  11  12
ATOM     12  C   UNL     1      88.606  52.489  40.555  0.00  0.00    +0.070 C 
ATOM     13  C   UNL     1      88.875  50.994  40.256  0.00  0.00    -0.036 C 
ATOM     14  C   UNL     1      89.961  53.172  40.852  0.00  0.00    -0.036 C 
BRANCH  12  15
ATOM     15  O   UNL     1      88.019  53.097  39.427  0.00  0.00    -0.388 OA
ATOM     16  H   UNL     1      88.211  52.568  38.637  0.00  0.00    +0.000 HD
ENDBRANCH  12  15
ENDBRANCH  11  12
BRANCH  11  17
ATOM     17  C   UNL     1      86.140  52.593  41.389  0.00  0.00    +0.102 C 
BRANCH  17  18
ATOM     18  O   UNL     1      85.674  53.908  41.081  0.00  0.00    -0.464 OA
BRANCH  18  20
ATOM     19  C   UNL     1      84.201  54.039  43.092  0.00  0.00    +0.033 C 
ATOM     20  C   UNL     1      84.907  54.691  41.953  0.00  0.00    +0.304 C 
ATOM     21  O   UNL     1      84.838  55.942  41.811  0.00  0.00    -0.251 OA
ENDBRANCH  18  20
ENDBRANCH  17  18
ENDBRANCH  11  17
ENDBRANCH   1  11
BRANCH   7  22
ATOM     22  C   UNL     1      86.116  53.488  47.173  0.00  0.00    +0.001 C 
BRANCH  22  23
ATOM     23  C   UNL     1      86.147  54.842  46.451  0.00  0.00    +0.092 C 
ATOM     24  O   UNL     1      86.367  55.907  47.355  0.00  0.00    -0.365 OA
ATOM     25  C   UNL     1      85.104  55.873  46.728  0.00  0.00    +0.091 C 
ATOM     26  C   UNL     1      83.964  55.624  47.720  0.00  0.00    -0.034 C 
ATOM     27  C   UNL     1      84.939  56.993  45.702  0.00  0.00    -0.034 C 
ENDBRANCH  22  23
ENDBRANCH   7  22
TORSDOF 8
ENDMDL
MODEL 6
REMARK VINA RESULT:    -7.184      2.616      7.189
REMARK INTER + INTRA:         -11.553
REMARK INTER:                 -10.682
REMARK INTRA:                  -0.871
REMARK UNBOUND:                -1.218
REMARK  Name = 
REMARK  13 active torsions:
REMARK  status: ('A' for Active; 'I' for Inactive)
REMARK    1  A    between atoms: C_1  and  C_2
REMARK    2  A    between atoms: C_2  and  O_4
REMARK    3  A    between atoms: O_4  and  C_5
REMARK    4  A    between atoms: C_5  and  C_6
REMARK    5  A    between atoms: C_6  and  C_7
REMARK    6  A    between atoms: C_6  and  C_11
REMARK    7  A    between atoms: C_7  and  O_8
REMARK    8  A    between atoms: C_7  and  C_9
REMARK    9  A    between atoms: C_7  and  C_10
REMARK   10  A    between atoms: C_17  and  C_20
REMARK   11  A    between atoms: C_20  and  C_21
REMARK   12  A    between atoms: C_23  and  C_24
REMARK   13  A    between atoms: C_23  and  C_25
REMARK                            x       y       z     vdW  Elec       q    Type
REMARK                         _______ _______ _______ _____ _____    ______ ____
ROOT
ATOM      1  C   UNL     1      85.176  53.683  43.601  0.00  0.00    -0.013 A 
ATOM      2  C   UNL     1      84.796  53.834  44.936  0.00  0.00    +0.006 A 
ATOM      3  N   UNL     1      85.452  52.950  45.720  0.00  0.00    -0.360 N 
ATOM      4  C   UNL     1      86.255  52.251  44.901  0.00  0.00    +0.047 A 
ATOM      5  C   UNL     1      86.121  52.671  43.603  0.00  0.00    +0.004 A 
ATOM      6  C   UNL     1      86.887  52.121  42.574  0.00  0.00    -0.049 A 
ATOM      7  C   UNL     1      87.800  51.093  42.898  0.00  0.00    -0.044 A 
ATOM      8  C   UNL     1      87.926  50.662  44.243  0.00  0.00    -0.057 A 
ATOM      9  C   UNL     1      87.151  51.247  45.259  0.00  0.00    -0.038 A 
ATOM     10  H   UNL     1      85.359  52.841  46.694  0.00  0.00    +0.000 HD
ENDROOT
BRANCH   1  11
ATOM     11  C   UNL     1      84.741  54.530  42.419  0.00  0.00    +0.049 C 
BRANCH  11  12
ATOM     12  C   UNL     1      83.865  53.725  41.396  0.00  0.00    +0.070 C 
ATOM     13  C   UNL     1      82.701  54.608  40.886  0.00  0.00    -0.036 C 
ATOM     14  C   UNL     1      83.260  52.469  42.066  0.00  0.00    -0.036 C 
BRANCH  12  15
ATOM     15  O   UNL     1      84.668  53.328  40.309  0.00  0.00    -0.388 OA
ATOM     16  H   UNL     1      84.422  52.430  40.036  0.00  0.00    +0.000 HD
ENDBRANCH  12  15
ENDBRANCH  11  12
BRANCH  11  17
ATOM     17  C   UNL     1      84.058  55.819  42.934  0.00  0.00    +0.102 C 
BRANCH  17  18
ATOM     18  O   UNL     1      84.952  56.930  42.846  0.00  0.00    -0.464 OA
BRANCH  18  20
ATOM     19  C   UNL     1      84.632  57.527  45.248  0.00  0.00    +0.033 C 
ATOM     20  C   UNL     1      85.262  57.772  43.920  0.00  0.00    +0.304 C 
ATOM     21  O   UNL     1      86.096  58.710  43.789  0.00  0.00    -0.251 OA
ENDBRANCH  18  20
ENDBRANCH  17  18
ENDBRANCH  11  17
ENDBRANCH   1  11
BRANCH   7  22
ATOM     22  C   UNL     1      88.625  50.445  41.820  0.00  0.00    +0.001 C 
BRANCH  22  23
ATOM     23  C   UNL     1      89.830  49.718  42.431  0.00  0.00    +0.092 C 
ATOM     24  O   UNL     1      90.530  48.966  41.458  0.00  0.00    -0.365 OA
ATOM     25  C   UNL     1      89.877  48.227  42.466  0.00  0.00    +0.091 C 
ATOM     26  C   UNL     1      88.735  47.368  41.914  0.00  0.00    -0.034 C 
ATOM     27  C   UNL     1      90.863  47.581  43.438  0.00  0.00    -0.034 C 
ENDBRANCH  22  23
ENDBRANCH   7  22
TORSDOF 8
ENDMDL
MODEL 7
REMARK VINA RESULT:    -7.160      3.802      7.414
REMARK INTER + INTRA:         -11.517
REMARK INTER:                 -10.706
REMARK INTRA:                  -0.811
REMARK UNBOUND:                -1.218
REMARK  Name = 
REMARK  13 active torsions:
REMARK  status: ('A' for Active; 'I' for Inactive)
REMARK    1  A    between atoms: C_1  and  C_2
REMARK    2  A    between atoms: C_2  and  O_4
REMARK    3  A    between atoms: O_4  and  C_5
REMARK    4  A    between atoms: C_5  and  C_6
REMARK    5  A    between atoms: C_6  and  C_7
REMARK    6  A    between atoms: C_6  and  C_11
REMARK    7  A    between atoms: C_7  and  O_8
REMARK    8  A    between atoms: C_7  and  C_9
REMARK    9  A    between atoms: C_7  and  C_10
REMARK   10  A    between atoms: C_17  and  C_20
REMARK   11  A    between atoms: C_20  and  C_21
REMARK   12  A    between atoms: C_23  and  C_24
REMARK   13  A    between atoms: C_23  and  C_25
REMARK                            x       y       z     vdW  Elec       q    Type
REMARK                         _______ _______ _______ _____ _____    ______ ____
ROOT
ATOM      1  C   UNL     1      88.922  49.990  42.612  0.00  0.00    -0.013 A 
ATOM      2  C   UNL     1      90.294  50.195  42.457  0.00  0.00    +0.006 A 
ATOM      3  N   UNL     1      90.944  49.013  42.372  0.00  0.00    -0.360 N 
ATOM      4  C   UNL     1      90.000  48.062  42.455  0.00  0.00    +0.047 A 
ATOM      5  C   UNL     1      88.753  48.616  42.596  0.00  0.00    +0.004 A 
ATOM      6  C   UNL     1      87.605  47.826  42.660  0.00  0.00    -0.049 A 
ATOM      7  C   UNL     1      87.756  46.423  42.598  0.00  0.00    -0.044 A 
ATOM      8  C   UNL     1      89.050  45.860  42.458  0.00  0.00    -0.057 A 
ATOM      9  C   UNL     1      90.186  46.684  42.381  0.00  0.00    -0.038 A 
ATOM     10  H   UNL     1      91.914  48.878  42.270  0.00  0.00    +0.000 HD
ENDROOT
BRANCH   1  11
ATOM     11  C   UNL     1      87.834  51.048  42.661  0.00  0.00    +0.049 C 
BRANCH  11  12
ATOM     12  C   UNL     1      87.071  51.058  44.032  0.00  0.00    +0.070 C 
ATOM     13  C   UNL     1      86.760  52.514  44.454  0.00  0.00    -0.036 C 
ATOM     14  C   UNL     1      87.932  50.408  45.141  0.00  0.00    -0.036 C 
BRANCH  12  15
ATOM     15  O   UNL     1      85.867  50.338  43.900  0.00  0.00    -0.388 OA
ATOM     16  H   UNL     1      85.715  49.812  44.701  0.00  0.00    +0.000 HD
ENDBRANCH  12  15
ENDBRANCH  11  12
BRANCH  11  17
ATOM     17  C   UNL     1      88.434  52.421  42.280  0.00  0.00    +0.102 C 
BRANCH  17  18
ATOM     18  O   UNL     1      88.215  52.698  40.896  0.00  0.00    -0.464 OA
BRANCH  18  20
ATOM     19  C   UNL     1      90.362  53.376  39.819  0.00  0.00    +0.033 C 
ATOM     20  C   UNL     1      89.169  52.485  39.894  0.00  0.00    +0.304 C 
ATOM     21  O   UNL     1      89.054  51.529  39.081  0.00  0.00    -0.251 OA
ENDBRANCH  18  20
ENDBRANCH  17  18
ENDBRANCH  11  17
ENDBRANCH   1  11
BRANCH   7  22
ATOM     22  C   UNL     1      86.552  45.526  42.695  0.00  0.00    +0.001 C 
BRANCH  22  23
ATOM     23  C   UNL     1      85.331  46.319  43.179  0.00  0.00    +0.092 C 
ATOM     24  O   UNL     1      85.161  46.206  44.579  0.00  0.00    -0.365 OA
ATOM     25  C   UNL     1      84.160  45.615  43.780  0.00  0.00    +0.091 C 
ATOM     26  C   UNL     1      84.119  44.091  43.925  0.00  0.00    -0.034 C 
ATOM     27  C   UNL     1      82.841  46.383  43.845  0.00  0.00    -0.034 C 
ENDBRANCH  22  23
ENDBRANCH   7  22
TORSDOF 8
ENDMDL
MODEL 8
REMARK VINA RESULT:    -7.082      2.703      5.456
REMARK INTER + INTRA:         -11.406
REMARK INTER:                 -10.187
REMARK INTRA:                  -1.218
REMARK UNBOUND:                -1.218
REMARK  Name = 
REMARK  13 active torsions:
REMARK  status: ('A' for Active; 'I' for Inactive)
REMARK    1  A    between atoms: C_1  and  C_2
REMARK    2  A    between atoms: C_2  and  O_4
REMARK    3  A    between atoms: O_4  and  C_5
REMARK    4  A    between atoms: C_5  and  C_6
REMARK    5  A    between atoms: C_6  and  C_7
REMARK    6  A    between atoms: C_6  and  C_11
REMARK    7  A    between atoms: C_7  and  O_8
REMARK    8  A    between atoms: C_7  and  C_9
REMARK    9  A    between atoms: C_7  and  C_10
REMARK   10  A    between atoms: C_17  and  C_20
REMARK   11  A    between atoms: C_20  and  C_21
REMARK   12  A    between atoms: C_23  and  C_24
REMARK   13  A    between atoms: C_23  and  C_25
REMARK                            x       y       z     vdW  Elec       q    Type
REMARK                         _______ _______ _______ _____ _____    ______ ____
ROOT
ATOM      1  C   UNL     1      85.214  52.675  42.714  0.00  0.00    -0.013 A 
ATOM      2  C   UNL     1      85.850  51.985  41.681  0.00  0.00    +0.006 A 
ATOM      3  N   UNL     1      86.839  51.204  42.170  0.00  0.00    -0.360 N 
ATOM      4  C   UNL     1      86.828  51.379  43.501  0.00  0.00    +0.047 A 
ATOM      5  C   UNL     1      85.848  52.263  43.874  0.00  0.00    +0.004 A 
ATOM      6  C   UNL     1      85.613  52.571  45.214  0.00  0.00    -0.049 A 
ATOM      7  C   UNL     1      86.431  51.964  46.192  0.00  0.00    -0.044 A 
ATOM      8  C   UNL     1      87.446  51.055  45.796  0.00  0.00    -0.057 A 
ATOM      9  C   UNL     1      87.646  50.753  44.438  0.00  0.00    -0.038 A 
ATOM     10  H   UNL     1      87.446  50.625  41.654  0.00  0.00    +0.000 HD
ENDROOT
BRANCH   1  11
ATOM     11  C   UNL     1      84.004  53.586  42.603  0.00  0.00    +0.049 C 
BRANCH  11  12
ATOM     12  C   UNL     1      84.389  55.038  42.150  0.00  0.00    +0.070 C 
ATOM     13  C   UNL     1      83.632  56.079  43.009  0.00  0.00    -0.036 C 
ATOM     14  C   UNL     1      84.007  55.267  40.669  0.00  0.00    -0.036 C 
BRANCH  12  15
ATOM     15  O   UNL     1      85.777  55.220  42.303  0.00  0.00    -0.388 OA
ATOM     16  H   UNL     1      85.952  56.115  42.636  0.00  0.00    +0.000 HD
ENDBRANCH  12  15
ENDBRANCH  11  12
BRANCH  11  17
ATOM     17  C   UNL     1      82.941  52.920  41.699  0.00  0.00    +0.102 C 
BRANCH  17  18
ATOM     18  O   UNL     1      81.872  52.392  42.487  0.00  0.00    -0.464 OA
BRANCH  18  20
ATOM     19  C   UNL     1      80.424  50.415  42.959  0.00  0.00    +0.033 C 
ATOM     20  C   UNL     1      81.770  51.050  42.868  0.00  0.00    +0.304 C 
ATOM     21  O   UNL     1      82.800  50.360  43.098  0.00  0.00    -0.251 OA
ENDBRANCH  18  20
ENDBRANCH  17  18
ENDBRANCH  11  17
ENDBRANCH   1  11
BRANCH   7  22
ATOM     22  C   UNL     1      86.240  52.289  47.648  0.00  0.00    +0.001 C 
BRANCH  22  23
ATOM     23  C   UNL     1      85.686  53.711  47.812  0.00  0.00    +0.092 C 
ATOM     24  O   UNL     1      85.707  54.123  49.165  0.00  0.00    -0.365 OA
ATOM     25  C   UNL     1      84.433  53.952  48.585  0.00  0.00    +0.091 C 
ATOM     26  C   UNL     1      83.646  52.806  49.229  0.00  0.00    -0.034 C 
ATOM     27  C   UNL     1      83.718  55.283  48.360  0.00  0.00    -0.034 C 
ENDBRANCH  22  23
ENDBRANCH   7  22
TORSDOF 8
ENDMDL
MODEL 9
REMARK VINA RESULT:    -7.042      3.558      7.278
REMARK INTER + INTRA:         -11.348
REMARK INTER:                 -10.163
REMARK INTRA:                  -1.185
REMARK UNBOUND:                -1.218
REMARK  Name = 
REMARK  13 active torsions:
REMARK  status: ('A' for Active; 'I' for Inactive)
REMARK    1  A    between atoms: C_1  and  C_2
REMARK    2  A    between atoms: C_2  and  O_4
REMARK    3  A    between atoms: O_4  and  C_5
REMARK    4  A    between atoms: C_5  and  C_6
REMARK    5  A    between atoms: C_6  and  C_7
REMARK    6  A    between atoms: C_6  and  C_11
REMARK    7  A    between atoms: C_7  and  O_8
REMARK    8  A    between atoms: C_7  and  C_9
REMARK    9  A    between atoms: C_7  and  C_10
REMARK   10  A    between atoms: C_17  and  C_20
REMARK   11  A    between atoms: C_20  and  C_21
REMARK   12  A    between atoms: C_23  and  C_24
REMARK   13  A    between atoms: C_23  and  C_25
REMARK                            x       y       z     vdW  Elec       q    Type
REMARK                         _______ _______ _______ _____ _____    ______ ____
ROOT
ATOM      1  C   UNL     1      87.812  51.213  41.976  0.00  0.00    -0.013 A 
ATOM      2  C   UNL     1      89.022  51.766  41.554  0.00  0.00    +0.006 A 
ATOM      3  N   UNL     1      89.969  50.809  41.442  0.00  0.00    -0.360 N 
ATOM      4  C   UNL     1      89.370  49.653  41.774  0.00  0.00    +0.047 A 
ATOM      5  C   UNL     1      88.054  49.856  42.099  0.00  0.00    +0.004 A 
ATOM      6  C   UNL     1      87.212  48.795  42.436  0.00  0.00    -0.049 A 
ATOM      7  C   UNL     1      87.757  47.492  42.457  0.00  0.00    -0.044 A 
ATOM      8  C   UNL     1      89.121  47.294  42.125  0.00  0.00    -0.057 A 
ATOM      9  C   UNL     1      89.939  48.382  41.774  0.00  0.00    -0.038 A 
ATOM     10  H   UNL     1      90.907  50.934  41.173  0.00  0.00    +0.000 HD
ENDROOT
BRANCH   1  11
ATOM     11  C   UNL     1      86.483  51.928  42.143  0.00  0.00    +0.049 C 
BRANCH  11  12
ATOM     12  C   UNL     1      86.368  52.662  43.525  0.00  0.00    +0.070 C 
ATOM     13  C   UNL     1      86.922  54.102  43.408  0.00  0.00    -0.036 C 
ATOM     14  C   UNL     1      87.185  51.919  44.608  0.00  0.00    -0.036 C 
BRANCH  12  15
ATOM     15  O   UNL     1      85.015  52.707  43.917  0.00  0.00    -0.388 OA
ATOM     16  H   UNL     1      84.553  53.391  43.407  0.00  0.00    +0.000 HD
ENDBRANCH  12  15
ENDBRANCH  11  12
BRANCH  11  17
ATOM     17  C   UNL     1      86.243  52.857  40.931  0.00  0.00    +0.102 C 
BRANCH  17  18
ATOM     18  O   UNL     1      84.849  53.132  40.777  0.00  0.00    -0.464 OA
BRANCH  18  20
ATOM     19  C   UNL     1      82.922  54.581  41.420  0.00  0.00    +0.033 C 
ATOM     20  C   UNL     1      84.290  54.412  40.855  0.00  0.00    +0.304 C 
ATOM     21  O   UNL     1      84.943  55.428  40.490  0.00  0.00    -0.251 OA
ENDBRANCH  18  20
ENDBRANCH  17  18
ENDBRANCH  11  17
ENDBRANCH   1  11
BRANCH   7  22
ATOM     22  C   UNL     1      86.900  46.319  42.847  0.00  0.00    +0.001 C 
BRANCH  22  23
ATOM     23  C   UNL     1      85.514  46.794  43.302  0.00  0.00    +0.092 C 
ATOM     24  O   UNL     1      85.303  46.538  44.677  0.00  0.00    -0.365 OA
ATOM     25  C   UNL     1      84.494  45.814  43.776  0.00  0.00    +0.091 C 
ATOM     26  C   UNL     1      84.776  44.309  43.817  0.00  0.00    -0.034 C 
ATOM     27  C   UNL     1      83.038  46.278  43.806  0.00  0.00    -0.034 C 
ENDBRANCH  22  23
ENDBRANCH   7  22
TORSDOF 8
ENDMDL
