MODEL 1
REMARK VINA RESULT:    -9.134      0.000      0.000
REMARK INTER + INTRA:          -9.972
REMARK INTER:                  -9.685
REMARK INTRA:                  -0.287
REMARK UNBOUND:                -0.304
REMARK  Name = 
REMARK  4 active torsions:
REMARK  status: ('A' for Active; 'I' for Inactive)
REMARK    1  A    between atoms: C_1  and  C_2
REMARK    2  A    between atoms: C_9  and  C_17
REMARK    3  A    between atoms: C_12  and  C_15
REMARK    4  A    between atoms: C_12  and  C_16
REMARK                            x       y       z     vdW  Elec       q    Type
REMARK                         _______ _______ _______ _____ _____    ______ ____
ROOT
ATOM      1  C   UNL     1      90.197  48.549  41.419  0.00  0.00    -0.033 C 
ATOM      2  C   UNL     1      89.474  49.853  41.666  0.00  0.00    +0.035 C 
ATOM      3  C   UNL     1      88.921  50.119  42.871  0.00  0.00    +0.137 C 
ATOM      4  O   UNL     1      89.018  49.201  43.925  0.00  0.00    -0.506 OA
ATOM      5  C   UNL     1      88.189  51.395  43.110  0.00  0.00    +0.102 A 
ATOM      6  C   UNL     1      87.496  51.643  44.314  0.00  0.00    +0.196 A 
ATOM      7  O   UNL     1      87.462  50.787  45.239  0.00  0.00    -0.287 OA
ATOM      8  C   UNL     1      86.832  52.853  44.499  0.00  0.00    +0.029 A 
ATOM      9  C   UNL     1      86.858  53.812  43.478  0.00  0.00    +0.139 A 
ATOM     10  O   UNL     1      87.526  53.550  42.359  0.00  0.00    -0.458 OA
ATOM     11  C   UNL     1      88.172  52.408  42.127  0.00  0.00    +0.133 A 
ATOM     12  C   UNL     1      88.908  52.265  40.808  0.00  0.00    +0.086 C 
ATOM     13  C   UNL     1      89.367  50.840  40.563  0.00  0.00    +0.175 C 
ATOM     14  O   UNL     1      89.732  50.509  39.401  0.00  0.00    -0.291 OA
ATOM     15  C   UNL     1      90.146  53.179  40.840  0.00  0.00    -0.046 C 
ATOM     16  C   UNL     1      87.971  52.706  39.662  0.00  0.00    -0.046 C 
ENDROOT
BRANCH   9  17
ATOM     17  C   UNL     1      86.178  55.124  43.611  0.00  0.00    +0.017 A 
ATOM     18  C   UNL     1      86.773  56.204  44.296  0.00  0.00    -0.051 A 
ATOM     19  C   UNL     1      86.101  57.424  44.413  0.00  0.00    -0.061 A 
ATOM     20  C   UNL     1      84.830  57.583  43.856  0.00  0.00    -0.062 A 
ATOM     21  C   UNL     1      84.224  56.518  43.186  0.00  0.00    -0.061 A 
ATOM     22  C   UNL     1      84.891  55.295  43.067  0.00  0.00    -0.051 A 
ENDBRANCH   9  17
TORSDOF 1
ENDMDL
MODEL 2
REMARK VINA RESULT:    -8.975      1.761      2.231
REMARK INTER + INTRA:          -9.803
REMARK INTER:                  -9.464
REMARK INTRA:                  -0.339
REMARK UNBOUND:                -0.304
REMARK  Name = 
REMARK  4 active torsions:
REMARK  status: ('A' for Active; 'I' for Inactive)
REMARK    1  A    between atoms: C_1  and  C_2
REMARK    2  A    between atoms: C_9  and  C_17
REMARK    3  A    between atoms: C_12  and  C_15
REMARK    4  A    between atoms: C_12  and  C_16
REMARK                            x       y       z     vdW  Elec       q    Type
REMARK                         _______ _______ _______ _____ _____    ______ ____
ROOT
ATOM      1  C   UNL     1      88.337  48.561  43.190  0.00  0.00    -0.033 C 
ATOM      2  C   UNL     1      87.872  49.984  43.402  0.00  0.00    +0.035 C 
ATOM      3  C   UNL     1      87.706  50.478  44.650  0.00  0.00    +0.137 C 
ATOM      4  O   UNL     1      87.975  49.689  45.776  0.00  0.00    -0.506 OA
ATOM      5  C   UNL     1      87.227  51.873  44.860  0.00  0.00    +0.102 A 
ATOM      6  C   UNL     1      86.925  52.371  46.146  0.00  0.00    +0.196 A 
ATOM      7  O   UNL     1      87.041  51.649  47.172  0.00  0.00    -0.287 OA
ATOM      8  C   UNL     1      86.488  53.685  46.299  0.00  0.00    +0.029 A 
ATOM      9  C   UNL     1      86.351  54.497  45.165  0.00  0.00    +0.139 A 
ATOM     10  O   UNL     1      86.650  53.999  43.970  0.00  0.00    -0.458 OA
ATOM     11  C   UNL     1      87.065  52.750  43.766  0.00  0.00    +0.133 A 
ATOM     12  C   UNL     1      87.391  52.333  42.344  0.00  0.00    +0.086 C 
ATOM     13  C   UNL     1      87.589  50.834  42.219  0.00  0.00    +0.175 C 
ATOM     14  O   UNL     1      87.580  50.312  41.071  0.00  0.00    -0.291 OA
ATOM     15  C   UNL     1      88.691  53.036  41.916  0.00  0.00    -0.046 C 
ATOM     16  C   UNL     1      86.237  52.776  41.417  0.00  0.00    -0.046 C 
ENDROOT
BRANCH   9  17
ATOM     17  C   UNL     1      85.896  55.907  45.256  0.00  0.00    +0.017 A 
ATOM     18  C   UNL     1      85.057  56.352  46.299  0.00  0.00    -0.051 A 
ATOM     19  C   UNL     1      84.638  57.685  46.350  0.00  0.00    -0.061 A 
ATOM     20  C   UNL     1      85.042  58.587  45.364  0.00  0.00    -0.062 A 
ATOM     21  C   UNL     1      85.862  58.156  44.318  0.00  0.00    -0.061 A 
ATOM     22  C   UNL     1      86.284  56.825  44.261  0.00  0.00    -0.051 A 
ENDBRANCH   9  17
TORSDOF 1
ENDMDL
MODEL 3
REMARK VINA RESULT:    -8.829      2.653      6.787
REMARK INTER + INTRA:          -9.649
REMARK INTER:                  -9.299
REMARK INTRA:                  -0.350
REMARK UNBOUND:                -0.304
REMARK  Name = 
REMARK  4 active torsions:
REMARK  status: ('A' for Active; 'I' for Inactive)
REMARK    1  A    between atoms: C_1  and  C_2
REMARK    2  A    between atoms: C_9  and  C_17
REMARK    3  A    between atoms: C_12  and  C_15
REMARK    4  A    between atoms: C_12  and  C_16
REMARK                            x       y       z     vdW  Elec       q    Type
REMARK                         _______ _______ _______ _____ _____    ______ ____
ROOT
ATOM      1  C   UNL     1      83.861  55.315  48.321  0.00  0.00    -0.033 C 
ATOM      2  C   UNL     1      84.677  54.545  47.309  0.00  0.00    +0.035 C 
ATOM      3  C   UNL     1      85.241  53.360  47.634  0.00  0.00    +0.137 C 
ATOM      4  O   UNL     1      85.069  52.808  48.910  0.00  0.00    -0.506 OA
ATOM      5  C   UNL     1      86.066  52.610  46.643  0.00  0.00    +0.102 A 
ATOM      6  C   UNL     1      86.767  51.437  46.995  0.00  0.00    +0.196 A 
ATOM      7  O   UNL     1      86.731  50.978  48.168  0.00  0.00    -0.287 OA
ATOM      8  C   UNL     1      87.519  50.763  46.035  0.00  0.00    +0.029 A 
ATOM      9  C   UNL     1      87.571  51.264  44.728  0.00  0.00    +0.139 A 
ATOM     10  O   UNL     1      86.893  52.368  44.429  0.00  0.00    -0.458 OA
ATOM     11  C   UNL     1      86.164  53.055  45.308  0.00  0.00    +0.133 A 
ATOM     12  C   UNL     1      85.427  54.285  44.811  0.00  0.00    +0.086 C 
ATOM     13  C   UNL     1      84.864  55.113  45.951  0.00  0.00    +0.175 C 
ATOM     14  O   UNL     1      84.483  56.293  45.716  0.00  0.00    -0.291 OA
ATOM     15  C   UNL     1      84.261  53.826  43.918  0.00  0.00    -0.046 C 
ATOM     16  C   UNL     1      86.402  55.151  43.982  0.00  0.00    -0.046 C 
ENDROOT
BRANCH   9  17
ATOM     17  C   UNL     1      88.347  50.593  43.656  0.00  0.00    +0.017 A 
ATOM     18  C   UNL     1      88.955  49.336  43.854  0.00  0.00    -0.051 A 
ATOM     19  C   UNL     1      89.688  48.735  42.827  0.00  0.00    -0.061 A 
ATOM     20  C   UNL     1      89.831  49.379  41.596  0.00  0.00    -0.062 A 
ATOM     21  C   UNL     1      89.245  50.630  41.391  0.00  0.00    -0.061 A 
ATOM     22  C   UNL     1      88.511  51.236  42.414  0.00  0.00    -0.051 A 
ENDBRANCH   9  17
TORSDOF 1
ENDMDL
MODEL 4
REMARK VINA RESULT:    -8.648      4.262      7.289
REMARK INTER + INTRA:          -9.457
REMARK INTER:                  -9.157
REMARK INTRA:                  -0.301
REMARK UNBOUND:                -0.304
REMARK  Name = 
REMARK  4 active torsions:
REMARK  status: ('A' for Active; 'I' for Inactive)
REMARK    1  A    between atoms: C_1  and  C_2
REMARK    2  A    between atoms: C_9  and  C_17
REMARK    3  A    between atoms: C_12  and  C_15
REMARK    4  A    between atoms: C_12  and  C_16
REMARK                            x       y       z     vdW  Elec       q    Type
REMARK                         _______ _______ _______ _____ _____    ______ ____
ROOT
ATOM      1  C   UNL     1      86.459  56.994  44.321  0.00  0.00    -0.033 C 
ATOM      2  C   UNL     1      85.714  55.679  44.344  0.00  0.00    +0.035 C 
ATOM      3  C   UNL     1      85.012  55.264  43.266  0.00  0.00    +0.137 C 
ATOM      4  O   UNL     1      84.969  56.034  42.096  0.00  0.00    -0.506 OA
ATOM      5  C   UNL     1      84.258  53.978  43.295  0.00  0.00    +0.102 A 
ATOM      6  C   UNL     1      83.417  53.584  42.232  0.00  0.00    +0.196 A 
ATOM      7  O   UNL     1      83.262  54.311  41.215  0.00  0.00    -0.287 OA
ATOM      8  C   UNL     1      82.739  52.369  42.297  0.00  0.00    +0.029 A 
ATOM      9  C   UNL     1      82.899  51.553  43.424  0.00  0.00    +0.139 A 
ATOM     10  O   UNL     1      83.705  51.951  44.403  0.00  0.00    -0.458 OA
ATOM     11  C   UNL     1      84.372  53.105  44.397  0.00  0.00    +0.133 A 
ATOM     12  C   UNL     1      85.272  53.410  45.580  0.00  0.00    +0.086 C 
ATOM     13  C   UNL     1      85.754  54.849  45.573  0.00  0.00    +0.175 C 
ATOM     14  O   UNL     1      86.264  55.325  46.624  0.00  0.00    -0.291 OA
ATOM     15  C   UNL     1      86.498  52.483  45.512  0.00  0.00    -0.046 C 
ATOM     16  C   UNL     1      84.491  53.138  46.885  0.00  0.00    -0.046 C 
ENDROOT
BRANCH   9  17
ATOM     17  C   UNL     1      82.212  50.244  43.555  0.00  0.00    +0.017 A 
ATOM     18  C   UNL     1      80.809  50.129  43.463  0.00  0.00    -0.051 A 
ATOM     19  C   UNL     1      80.190  48.883  43.602  0.00  0.00    -0.061 A 
ATOM     20  C   UNL     1      80.957  47.741  43.840  0.00  0.00    -0.062 A 
ATOM     21  C   UNL     1      82.346  47.843  43.947  0.00  0.00    -0.061 A 
ATOM     22  C   UNL     1      82.971  49.086  43.810  0.00  0.00    -0.051 A 
ENDBRANCH   9  17
TORSDOF 1
ENDMDL
MODEL 5
REMARK VINA RESULT:    -8.635      5.347      6.955
REMARK INTER + INTRA:          -9.444
REMARK INTER:                  -9.109
REMARK INTRA:                  -0.335
REMARK UNBOUND:                -0.304
REMARK  Name = 
REMARK  4 active torsions:
REMARK  status: ('A' for Active; 'I' for Inactive)
REMARK    1  A    between atoms: C_1  and  C_2
REMARK    2  A    between atoms: C_9  and  C_17
REMARK    3  A    between atoms: C_12  and  C_15
REMARK    4  A    between atoms: C_12  and  C_16
REMARK                            x       y       z     vdW  Elec       q    Type
REMARK                         _______ _______ _______ _____ _____    ______ ____
ROOT
ATOM      1  C   UNL     1      90.114  47.407  42.519  0.00  0.00    -0.033 C 
ATOM      2  C   UNL     1      88.644  47.573  42.825  0.00  0.00    +0.035 C 
ATOM      3  C   UNL     1      87.805  46.513  42.778  0.00  0.00    +0.137 C 
ATOM      4  O   UNL     1      88.281  45.234  42.461  0.00  0.00    -0.506 OA
ATOM      5  C   UNL     1      86.350  46.679  43.057  0.00  0.00    +0.102 A 
ATOM      6  C   UNL     1      85.435  45.617  42.893  0.00  0.00    +0.196 A 
ATOM      7  O   UNL     1      85.812  44.483  42.493  0.00  0.00    -0.287 OA
ATOM      8  C   UNL     1      84.084  45.813  43.174  0.00  0.00    +0.029 A 
ATOM      9  C   UNL     1      83.652  47.070  43.615  0.00  0.00    +0.139 A 
ATOM     10  O   UNL     1      84.541  48.046  43.767  0.00  0.00    -0.458 OA
ATOM     11  C   UNL     1      85.841  47.916  43.506  0.00  0.00    +0.133 A 
ATOM     12  C   UNL     1      86.737  49.116  43.750  0.00  0.00    +0.086 C 
ATOM     13  C   UNL     1      88.125  48.920  43.168  0.00  0.00    +0.175 C 
ATOM     14  O   UNL     1      88.878  49.924  43.038  0.00  0.00    -0.291 OA
ATOM     15  C   UNL     1      86.869  49.325  45.269  0.00  0.00    -0.046 C 
ATOM     16  C   UNL     1      86.086  50.363  43.112  0.00  0.00    -0.046 C 
ENDROOT
BRANCH   9  17
ATOM     17  C   UNL     1      82.230  47.346  43.938  0.00  0.00    +0.017 A 
ATOM     18  C   UNL     1      81.656  48.619  43.739  0.00  0.00    -0.051 A 
ATOM     19  C   UNL     1      80.316  48.849  44.064  0.00  0.00    -0.061 A 
ATOM     20  C   UNL     1      79.535  47.821  44.595  0.00  0.00    -0.062 A 
ATOM     21  C   UNL     1      80.094  46.560  44.810  0.00  0.00    -0.061 A 
ATOM     22  C   UNL     1      81.434  46.323  44.489  0.00  0.00    -0.051 A 
ENDBRANCH   9  17
TORSDOF 1
ENDMDL
MODEL 6
REMARK VINA RESULT:    -8.557      2.608      4.210
REMARK INTER + INTRA:          -9.361
REMARK INTER:                  -9.009
REMARK INTRA:                  -0.352
REMARK UNBOUND:                -0.304
REMARK  Name = 
REMARK  4 active torsions:
REMARK  status: ('A' for Active; 'I' for Inactive)
REMARK    1  A    between atoms: C_1  and  C_2
REMARK    2  A    between atoms: C_9  and  C_17
REMARK    3  A    between atoms: C_12  and  C_15
REMARK    4  A    between atoms: C_12  and  C_16
REMARK                            x       y       z     vdW  Elec       q    Type
REMARK                         _______ _______ _______ _____ _____    ______ ____
ROOT
ATOM      1  C   UNL     1      89.433  49.751  41.405  0.00  0.00    -0.033 C 
ATOM      2  C   UNL     1      88.657  50.388  42.535  0.00  0.00    +0.035 C 
ATOM      3  C   UNL     1      88.049  51.584  42.367  0.00  0.00    +0.137 C 
ATOM      4  O   UNL     1      88.109  52.255  41.138  0.00  0.00    -0.506 OA
ATOM      5  C   UNL     1      87.302  52.224  43.487  0.00  0.00    +0.102 A 
ATOM      6  C   UNL     1      86.766  53.525  43.377  0.00  0.00    +0.196 A 
ATOM      7  O   UNL     1      86.906  54.205  42.326  0.00  0.00    -0.287 OA
ATOM      8  C   UNL     1      86.067  54.082  44.446  0.00  0.00    +0.029 A 
ATOM      9  C   UNL     1      85.907  53.338  45.622  0.00  0.00    +0.139 A 
ATOM     10  O   UNL     1      86.418  52.113  45.690  0.00  0.00    -0.458 OA
ATOM     11  C   UNL     1      87.101  51.535  44.702  0.00  0.00    +0.133 A 
ATOM     12  C   UNL     1      87.603  50.120  44.920  0.00  0.00    +0.086 C 
ATOM     13  C   UNL     1      88.579  49.688  43.841  0.00  0.00    +0.175 C 
ATOM     14  O   UNL     1      89.290  48.665  44.037  0.00  0.00    -0.291 OA
ATOM     15  C   UNL     1      86.396  49.166  44.898  0.00  0.00    -0.046 C 
ATOM     16  C   UNL     1      88.297  50.043  46.298  0.00  0.00    -0.046 C 
ENDROOT
BRANCH   9  17
ATOM     17  C   UNL     1      85.169  53.867  46.796  0.00  0.00    +0.017 A 
ATOM     18  C   UNL     1      85.019  53.116  47.980  0.00  0.00    -0.051 A 
ATOM     19  C   UNL     1      84.308  53.638  49.064  0.00  0.00    -0.061 A 
ATOM     20  C   UNL     1      83.734  54.908  48.982  0.00  0.00    -0.062 A 
ATOM     21  C   UNL     1      83.864  55.658  47.810  0.00  0.00    -0.061 A 
ATOM     22  C   UNL     1      84.573  55.140  46.722  0.00  0.00    -0.051 A 
ENDBRANCH   9  17
TORSDOF 1
ENDMDL
MODEL 7
REMARK VINA RESULT:    -8.404      2.791      7.090
REMARK INTER + INTRA:          -9.199
REMARK INTER:                  -8.900
REMARK INTRA:                  -0.298
REMARK UNBOUND:                -0.304
REMARK  Name = 
REMARK  4 active torsions:
REMARK  status: ('A' for Active; 'I' for Inactive)
REMARK    1  A    between atoms: C_1  and  C_2
REMARK    2  A    between atoms: C_9  and  C_17
REMARK    3  A    between atoms: C_12  and  C_15
REMARK    4  A    between atoms: C_12  and  C_16
REMARK                            x       y       z     vdW  Elec       q    Type
REMARK                         _______ _______ _______ _____ _____    ______ ____
ROOT
ATOM      1  C   UNL     1      82.783  54.441  41.539  0.00  0.00    -0.033 C 
ATOM      2  C   UNL     1      83.820  53.372  41.795  0.00  0.00    +0.035 C 
ATOM      3  C   UNL     1      85.008  53.393  41.150  0.00  0.00    +0.137 C 
ATOM      4  O   UNL     1      85.314  54.414  40.240  0.00  0.00    -0.506 OA
ATOM      5  C   UNL     1      86.023  52.327  41.384  0.00  0.00    +0.102 A 
ATOM      6  C   UNL     1      87.215  52.256  40.632  0.00  0.00    +0.196 A 
ATOM      7  O   UNL     1      87.468  53.090  39.722  0.00  0.00    -0.287 OA
ATOM      8  C   UNL     1      88.141  51.247  40.890  0.00  0.00    +0.029 A 
ATOM      9  C   UNL     1      87.872  50.310  41.896  0.00  0.00    +0.139 A 
ATOM     10  O   UNL     1      86.743  50.410  42.590  0.00  0.00    -0.458 OA
ATOM     11  C   UNL     1      85.820  51.349  42.381  0.00  0.00    +0.133 A 
ATOM     12  C   UNL     1      84.591  51.347  43.271  0.00  0.00    +0.086 C 
ATOM     13  C   UNL     1      83.515  52.286  42.759  0.00  0.00    +0.175 C 
ATOM     14  O   UNL     1      82.345  52.180  43.220  0.00  0.00    -0.291 OA
ATOM     15  C   UNL     1      85.009  51.804  44.680  0.00  0.00    -0.046 C 
ATOM     16  C   UNL     1      84.027  49.911  43.341  0.00  0.00    -0.046 C 
ENDROOT
BRANCH   9  17
ATOM     17  C   UNL     1      88.816  49.215  42.228  0.00  0.00    +0.017 A 
ATOM     18  C   UNL     1      88.475  47.858  42.044  0.00  0.00    -0.051 A 
ATOM     19  C   UNL     1      89.384  46.849  42.377  0.00  0.00    -0.061 A 
ATOM     20  C   UNL     1      90.636  47.176  42.900  0.00  0.00    -0.062 A 
ATOM     21  C   UNL     1      90.982  48.514  43.099  0.00  0.00    -0.061 A 
ATOM     22  C   UNL     1      90.077  49.528  42.770  0.00  0.00    -0.051 A 
ENDBRANCH   9  17
TORSDOF 1
ENDMDL
MODEL 8
REMARK VINA RESULT:    -8.129      2.507      3.555
REMARK INTER + INTRA:          -8.908
REMARK INTER:                  -8.606
REMARK INTRA:                  -0.302
REMARK UNBOUND:                -0.304
REMARK  Name = 
REMARK  4 active torsions:
REMARK  status: ('A' for Active; 'I' for Inactive)
REMARK    1  A    between atoms: C_1  and  C_2
REMARK    2  A    between atoms: C_9  and  C_17
REMARK    3  A    between atoms: C_12  and  C_15
REMARK    4  A    between atoms: C_12  and  C_16
REMARK                            x       y       z     vdW  Elec       q    Type
REMARK                         _______ _______ _______ _____ _____    ______ ____
ROOT
ATOM      1  C   UNL     1      87.806  45.115  42.389  0.00  0.00    -0.033 C 
ATOM      2  C   UNL     1      87.743  46.588  42.718  0.00  0.00    +0.035 C 
ATOM      3  C   UNL     1      86.702  47.096  43.416  0.00  0.00    +0.137 C 
ATOM      4  O   UNL     1      85.664  46.269  43.864  0.00  0.00    -0.506 OA
ATOM      5  C   UNL     1      86.627  48.554  43.722  0.00  0.00    +0.102 A 
ATOM      6  C   UNL     1      85.494  49.128  44.336  0.00  0.00    +0.196 A 
ATOM      7  O   UNL     1      84.490  48.430  44.644  0.00  0.00    -0.287 OA
ATOM      8  C   UNL     1      85.470  50.494  44.613  0.00  0.00    +0.029 A 
ATOM      9  C   UNL     1      86.577  51.281  44.272  0.00  0.00    +0.139 A 
ATOM     10  O   UNL     1      87.630  50.707  43.701  0.00  0.00    -0.458 OA
ATOM     11  C   UNL     1      87.704  49.409  43.408  0.00  0.00    +0.133 A 
ATOM     12  C   UNL     1      88.985  48.896  42.777  0.00  0.00    +0.086 C 
ATOM     13  C   UNL     1      88.837  47.479  42.256  0.00  0.00    +0.175 C 
ATOM     14  O   UNL     1      89.708  47.027  41.463  0.00  0.00    -0.291 OA
ATOM     15  C   UNL     1      90.094  48.912  43.843  0.00  0.00    -0.046 C 
ATOM     16  C   UNL     1      89.377  49.831  41.611  0.00  0.00    -0.046 C 
ENDROOT
BRANCH   9  17
ATOM     17  C   UNL     1      86.620  52.740  44.543  0.00  0.00    +0.017 A 
ATOM     18  C   UNL     1      86.630  53.251  45.858  0.00  0.00    -0.051 A 
ATOM     19  C   UNL     1      86.660  54.631  46.080  0.00  0.00    -0.061 A 
ATOM     20  C   UNL     1      86.675  55.516  45.000  0.00  0.00    -0.062 A 
ATOM     21  C   UNL     1      86.652  55.024  43.694  0.00  0.00    -0.061 A 
ATOM     22  C   UNL     1      86.621  53.645  43.465  0.00  0.00    -0.051 A 
ENDBRANCH   9  17
TORSDOF 1
ENDMDL
MODEL 9
REMARK VINA RESULT:    -7.957      3.155      7.537
REMARK INTER + INTRA:          -8.725
REMARK INTER:                  -8.422
REMARK INTRA:                  -0.304
REMARK UNBOUND:                -0.304
REMARK  Name = 
REMARK  4 active torsions:
REMARK  status: ('A' for Active; 'I' for Inactive)
REMARK    1  A    between atoms: C_1  and  C_2
REMARK    2  A    between atoms: C_9  and  C_17
REMARK    3  A    between atoms: C_12  and  C_15
REMARK    4  A    between atoms: C_12  and  C_16
REMARK                            x       y       z     vdW  Elec       q    Type
REMARK                         _______ _______ _______ _____ _____    ______ ____
ROOT
ATOM      1  C   UNL     1      84.303  58.749  45.713  0.00  0.00    -0.033 C 
ATOM      2  C   UNL     1      84.544  57.271  45.510  0.00  0.00    +0.035 C 
ATOM      3  C   UNL     1      84.832  56.779  44.284  0.00  0.00    +0.137 C 
ATOM      4  O   UNL     1      84.929  57.629  43.174  0.00  0.00    -0.506 OA
ATOM      5  C   UNL     1      85.048  55.318  44.079  0.00  0.00    +0.102 A 
ATOM      6  C   UNL     1      85.224  54.765  42.792  0.00  0.00    +0.196 A 
ATOM      7  O   UNL     1      85.197  55.487  41.759  0.00  0.00    -0.287 OA
ATOM      8  C   UNL     1      85.432  53.395  42.647  0.00  0.00    +0.029 A 
ATOM      9  C   UNL     1      85.459  52.582  43.787  0.00  0.00    +0.139 A 
ATOM     10  O   UNL     1      85.297  53.136  44.983  0.00  0.00    -0.458 OA
ATOM     11  C   UNL     1      85.088  54.437  45.180  0.00  0.00    +0.133 A 
ATOM     12  C   UNL     1      84.944  54.925  46.609  0.00  0.00    +0.086 C 
ATOM     13  C   UNL     1      84.450  56.358  46.677  0.00  0.00    +0.175 C 
ATOM     14  O   UNL     1      84.013  56.801  47.774  0.00  0.00    -0.291 OA
ATOM     15  C   UNL     1      86.321  54.849  47.292  0.00  0.00    -0.046 C 
ATOM     16  C   UNL     1      83.950  54.005  47.353  0.00  0.00    -0.046 C 
ENDROOT
BRANCH   9  17
ATOM     17  C   UNL     1      85.682  51.117  43.705  0.00  0.00    +0.017 A 
ATOM     18  C   UNL     1      86.890  50.575  43.217  0.00  0.00    -0.051 A 
ATOM     19  C   UNL     1      87.065  49.190  43.142  0.00  0.00    -0.061 A 
ATOM     20  C   UNL     1      86.041  48.330  43.544  0.00  0.00    -0.062 A 
ATOM     21  C   UNL     1      84.835  48.853  44.016  0.00  0.00    -0.061 A 
ATOM     22  C   UNL     1      84.654  50.237  44.093  0.00  0.00    -0.051 A 
ENDBRANCH   9  17
TORSDOF 1
ENDMDL
