MODEL 1
REMARK VINA RESULT:   -10.501      0.000      0.000
REMARK INTER + INTRA:         -14.117
REMARK INTER:                 -12.996
REMARK INTRA:                  -1.120
REMARK UNBOUND:                 0.067
REMARK  Name = 
REMARK  8 active torsions:
REMARK  status: ('A' for Active; 'I' for Inactive)
REMARK    1  A    between atoms: C_1  and  O_2
REMARK    2  A    between atoms: O_2  and  C_3
REMARK    3  A    between atoms: C_8  and  C_10
REMARK    4  A    between atoms: C_11  and  C_12
REMARK    5  A    between atoms: C_19  and  C_20
REMARK    6  A    between atoms: C_21  and  C_22
REMARK    7  A    between atoms: C_32  and  O_33
REMARK    8  A    between atoms: O_33  and  C_34
REMARK                            x       y       z     vdW  Elec       q    Type
REMARK                         _______ _______ _______ _____ _____    ______ ____
ROOT
ATOM      1  C   UNL     1      86.739  51.333  44.331  0.00  0.00    +0.069 C 
ATOM      2  C   UNL     1      88.198  51.157  43.855  0.00  0.00    +0.012 C 
ATOM      3  C   UNL     1      88.143  52.535  43.168  0.00  0.00    +0.069 C 
ATOM      4  C   UNL     1      86.659  52.690  43.582  0.00  0.00    +0.153 C 
ATOM      5  O   UNL     1      85.721  52.613  42.504  0.00  0.00    -0.449 OA
ATOM      6  C   UNL     1      86.082  52.722  41.163  0.00  0.00    +0.336 C 
ATOM      7  O   UNL     1      85.186  52.809  40.284  0.00  0.00    -0.245 OA
ATOM      8  C   UNL     1      87.489  52.688  40.770  0.00  0.00    +0.060 C 
ATOM      9  C   UNL     1      88.459  52.564  41.688  0.00  0.00    +0.112 C 
ENDROOT
BRANCH   1  15
ATOM     10  C   UNL     1      85.577  52.305  47.824  0.00  0.00    +0.130 A 
ATOM     11  C   UNL     1      86.468  51.540  48.593  0.00  0.00    +0.065 A 
ATOM     12  C   UNL     1      87.403  50.733  47.938  0.00  0.00    +0.340 A 
ATOM     13  O   UNL     1      88.214  50.040  48.606  0.00  0.00    -0.245 OA
ATOM     14  O   UNL     1      87.444  50.694  46.611  0.00  0.00    -0.427 OA
ATOM     15  C   UNL     1      86.616  51.400  45.841  0.00  0.00    +0.120 A 
ATOM     16  C   UNL     1      85.656  52.233  46.433  0.00  0.00    +0.019 A 
BRANCH  10  18
ATOM     17  C   UNL     1      83.733  52.752  49.451  0.00  0.00    +0.079 C 
ATOM     18  O   UNL     1      84.611  53.142  48.400  0.00  0.00    -0.495 OA
ENDBRANCH  10  18
ENDBRANCH   1  15
BRANCH   2  19
ATOM     19  C   UNL     1      88.463  49.954  42.953  0.00  0.00    -0.043 A 
ATOM     20  C   UNL     1      89.765  49.518  42.625  0.00  0.00    -0.058 A 
ATOM     21  C   UNL     1      89.953  48.382  41.832  0.00  0.00    -0.061 A 
ATOM     22  C   UNL     1      88.853  47.663  41.363  0.00  0.00    -0.062 A 
ATOM     23  C   UNL     1      87.560  48.075  41.689  0.00  0.00    -0.061 A 
ATOM     24  C   UNL     1      87.365  49.210  42.482  0.00  0.00    -0.058 A 
ENDBRANCH   2  19
BRANCH   4  25
ATOM     25  C   UNL     1      86.383  53.924  44.415  0.00  0.00    -0.039 C 
ATOM     26  C   UNL     1      85.634  54.927  43.938  0.00  0.00    -0.055 C 
BRANCH  26  27
ATOM     27  C   UNL     1      85.297  56.141  44.718  0.00  0.00    -0.025 A 
ATOM     28  C   UNL     1      85.647  57.438  44.286  0.00  0.00    -0.055 A 
ATOM     29  C   UNL     1      85.294  58.555  45.049  0.00  0.00    -0.061 A 
ATOM     30  C   UNL     1      84.583  58.395  46.240  0.00  0.00    -0.062 A 
ATOM     31  C   UNL     1      84.217  57.117  46.668  0.00  0.00    -0.061 A 
ATOM     32  C   UNL     1      84.566  55.996  45.909  0.00  0.00    -0.055 A 
ENDBRANCH  26  27
ENDBRANCH   4  25
BRANCH   9  33
ATOM     33  O   UNL     1      89.813  52.454  41.330  0.00  0.00    -0.499 OA
ATOM     34  C   UNL     1      90.480  53.284  40.384  0.00  0.00    +0.078 C 
ENDBRANCH   9  33
TORSDOF 6
ENDMDL
MODEL 2
REMARK VINA RESULT:   -10.492      3.962      7.637
REMARK INTER + INTRA:         -14.105
REMARK INTER:                 -13.362
REMARK INTRA:                  -0.743
REMARK UNBOUND:                 0.067
REMARK  Name = 
REMARK  8 active torsions:
REMARK  status: ('A' for Active; 'I' for Inactive)
REMARK    1  A    between atoms: C_1  and  O_2
REMARK    2  A    between atoms: O_2  and  C_3
REMARK    3  A    between atoms: C_8  and  C_10
REMARK    4  A    between atoms: C_11  and  C_12
REMARK    5  A    between atoms: C_19  and  C_20
REMARK    6  A    between atoms: C_21  and  C_22
REMARK    7  A    between atoms: C_32  and  O_33
REMARK    8  A    between atoms: O_33  and  C_34
REMARK                            x       y       z     vdW  Elec       q    Type
REMARK                         _______ _______ _______ _____ _____    ______ ____
ROOT
ATOM      1  C   UNL     1      83.822  50.793  44.235  0.00  0.00    +0.069 C 
ATOM      2  C   UNL     1      84.086  51.588  42.938  0.00  0.00    +0.012 C 
ATOM      3  C   UNL     1      85.458  50.902  42.792  0.00  0.00    +0.069 C 
ATOM      4  C   UNL     1      85.231  50.152  44.128  0.00  0.00    +0.153 C 
ATOM      5  O   UNL     1      86.062  50.583  45.210  0.00  0.00    -0.449 OA
ATOM      6  C   UNL     1      87.202  51.365  45.038  0.00  0.00    +0.336 C 
ATOM      7  O   UNL     1      87.969  51.568  46.014  0.00  0.00    -0.245 OA
ATOM      8  C   UNL     1      87.484  51.989  43.747  0.00  0.00    +0.060 C 
ATOM      9  C   UNL     1      86.662  51.813  42.702  0.00  0.00    +0.112 C 
ENDROOT
BRANCH   1  15
ATOM     10  C   UNL     1      80.312  49.436  43.656  0.00  0.00    +0.130 A 
ATOM     11  C   UNL     1      80.526  48.084  43.966  0.00  0.00    +0.065 A 
ATOM     12  C   UNL     1      81.808  47.671  44.341  0.00  0.00    +0.340 A 
ATOM     13  O   UNL     1      82.023  46.465  44.625  0.00  0.00    -0.245 OA
ATOM     14  O   UNL     1      82.804  48.548  44.401  0.00  0.00    -0.427 OA
ATOM     15  C   UNL     1      82.649  49.841  44.114  0.00  0.00    +0.120 A 
ATOM     16  C   UNL     1      81.388  50.322  43.734  0.00  0.00    +0.019 A 
BRANCH  10  18
ATOM     17  C   UNL     1      78.219  50.726  44.108  0.00  0.00    +0.079 C 
ATOM     18  O   UNL     1      79.058  49.934  43.274  0.00  0.00    -0.495 OA
ENDBRANCH  10  18
ENDBRANCH   1  15
BRANCH   2  19
ATOM     19  C   UNL     1      84.094  53.109  43.079  0.00  0.00    -0.043 A 
ATOM     20  C   UNL     1      84.480  53.763  44.269  0.00  0.00    -0.058 A 
ATOM     21  C   UNL     1      84.515  55.159  44.331  0.00  0.00    -0.061 A 
ATOM     22  C   UNL     1      84.174  55.920  43.212  0.00  0.00    -0.062 A 
ATOM     23  C   UNL     1      83.801  55.287  42.025  0.00  0.00    -0.061 A 
ATOM     24  C   UNL     1      83.765  53.892  41.956  0.00  0.00    -0.058 A 
ENDBRANCH   2  19
BRANCH   4  25
ATOM     25  C   UNL     1      85.297  48.644  44.001  0.00  0.00    -0.039 C 
ATOM     26  C   UNL     1      86.404  48.036  43.558  0.00  0.00    -0.055 C 
BRANCH  26  27
ATOM     27  C   UNL     1      86.543  46.564  43.449  0.00  0.00    -0.025 A 
ATOM     28  C   UNL     1      87.459  45.955  42.566  0.00  0.00    -0.055 A 
ATOM     29  C   UNL     1      87.564  44.562  42.509  0.00  0.00    -0.061 A 
ATOM     30  C   UNL     1      86.769  43.764  43.333  0.00  0.00    -0.062 A 
ATOM     31  C   UNL     1      85.871  44.357  44.223  0.00  0.00    -0.061 A 
ATOM     32  C   UNL     1      85.761  45.749  44.286  0.00  0.00    -0.055 A 
ENDBRANCH  26  27
ENDBRANCH   4  25
BRANCH   9  33
ATOM     33  O   UNL     1      86.871  52.462  41.474  0.00  0.00    -0.499 OA
ATOM     34  C   UNL     1      87.810  52.055  40.482  0.00  0.00    +0.078 C 
ENDBRANCH   9  33
TORSDOF 6
ENDMDL
MODEL 3
REMARK VINA RESULT:   -10.434      1.804      6.560
REMARK INTER + INTRA:         -14.027
REMARK INTER:                 -12.283
REMARK INTRA:                  -1.744
REMARK UNBOUND:                 0.067
REMARK  Name = 
REMARK  8 active torsions:
REMARK  status: ('A' for Active; 'I' for Inactive)
REMARK    1  A    between atoms: C_1  and  O_2
REMARK    2  A    between atoms: O_2  and  C_3
REMARK    3  A    between atoms: C_8  and  C_10
REMARK    4  A    between atoms: C_11  and  C_12
REMARK    5  A    between atoms: C_19  and  C_20
REMARK    6  A    between atoms: C_21  and  C_22
REMARK    7  A    between atoms: C_32  and  O_33
REMARK    8  A    between atoms: O_33  and  C_34
REMARK                            x       y       z     vdW  Elec       q    Type
REMARK                         _______ _______ _______ _____ _____    ______ ____
ROOT
ATOM      1  C   UNL     1      86.481  52.931  45.009  0.00  0.00    +0.069 C 
ATOM      2  C   UNL     1      85.170  53.745  44.935  0.00  0.00    +0.012 C 
ATOM      3  C   UNL     1      84.694  52.878  43.753  0.00  0.00    +0.069 C 
ATOM      4  C   UNL     1      86.034  52.101  43.776  0.00  0.00    +0.153 C 
ATOM      5  O   UNL     1      86.896  52.354  42.662  0.00  0.00    -0.449 OA
ATOM      6  C   UNL     1      86.473  52.973  41.488  0.00  0.00    +0.336 C 
ATOM      7  O   UNL     1      87.244  53.014  40.495  0.00  0.00    -0.245 OA
ATOM      8  C   UNL     1      85.162  53.615  41.421  0.00  0.00    +0.060 C 
ATOM      9  C   UNL     1      84.337  53.612  42.479  0.00  0.00    +0.112 C 
ENDROOT
BRANCH   1  15
ATOM     10  C   UNL     1      85.901  51.703  48.566  0.00  0.00    +0.130 A 
ATOM     11  C   UNL     1      86.960  50.789  48.678  0.00  0.00    +0.065 A 
ATOM     12  C   UNL     1      87.812  50.606  47.585  0.00  0.00    +0.340 A 
ATOM     13  O   UNL     1      88.769  49.793  47.663  0.00  0.00    -0.245 OA
ATOM     14  O   UNL     1      87.618  51.287  46.461  0.00  0.00    -0.427 OA
ATOM     15  C   UNL     1      86.624  52.163  46.308  0.00  0.00    +0.120 A 
ATOM     16  C   UNL     1      85.735  52.397  47.366  0.00  0.00    +0.019 A 
BRANCH  10  18
ATOM     17  C   UNL     1      83.813  52.721  49.489  0.00  0.00    +0.079 C 
ATOM     18  O   UNL     1      85.002  51.949  49.614  0.00  0.00    -0.495 OA
ENDBRANCH  10  18
ENDBRANCH   1  15
BRANCH   2  19
ATOM     19  C   UNL     1      85.330  55.239  44.665  0.00  0.00    -0.043 A 
ATOM     20  C   UNL     1      84.241  56.138  44.677  0.00  0.00    -0.058 A 
ATOM     21  C   UNL     1      84.447  57.505  44.470  0.00  0.00    -0.061 A 
ATOM     22  C   UNL     1      85.736  57.996  44.255  0.00  0.00    -0.062 A 
ATOM     23  C   UNL     1      86.823  57.121  44.253  0.00  0.00    -0.061 A 
ATOM     24  C   UNL     1      86.624  55.753  44.460  0.00  0.00    -0.058 A 
ENDBRANCH   2  19
BRANCH   4  25
ATOM     25  C   UNL     1      85.872  50.608  43.969  0.00  0.00    -0.039 C 
ATOM     26  C   UNL     1      86.584  49.736  43.244  0.00  0.00    -0.055 C 
BRANCH  26  27
ATOM     27  C   UNL     1      86.497  48.266  43.414  0.00  0.00    -0.025 A 
ATOM     28  C   UNL     1      85.648  47.664  44.366  0.00  0.00    -0.055 A 
ATOM     29  C   UNL     1      85.589  46.272  44.479  0.00  0.00    -0.061 A 
ATOM     30  C   UNL     1      86.365  45.467  43.643  0.00  0.00    -0.062 A 
ATOM     31  C   UNL     1      87.196  46.052  42.686  0.00  0.00    -0.061 A 
ATOM     32  C   UNL     1      87.259  47.443  42.566  0.00  0.00    -0.055 A 
ENDBRANCH  26  27
ENDBRANCH   4  25
BRANCH   9  33
ATOM     33  O   UNL     1      83.105  54.285  42.464  0.00  0.00    -0.499 OA
ATOM     34  C   UNL     1      82.107  54.144  41.457  0.00  0.00    +0.078 C 
ENDBRANCH   9  33
TORSDOF 6
ENDMDL
MODEL 4
REMARK VINA RESULT:   -10.145      2.095      7.961
REMARK INTER + INTRA:         -13.636
REMARK INTER:                 -12.916
REMARK INTRA:                  -0.720
REMARK UNBOUND:                 0.067
REMARK  Name = 
REMARK  8 active torsions:
REMARK  status: ('A' for Active; 'I' for Inactive)
REMARK    1  A    between atoms: C_1  and  O_2
REMARK    2  A    between atoms: O_2  and  C_3
REMARK    3  A    between atoms: C_8  and  C_10
REMARK    4  A    between atoms: C_11  and  C_12
REMARK    5  A    between atoms: C_19  and  C_20
REMARK    6  A    between atoms: C_21  and  C_22
REMARK    7  A    between atoms: C_32  and  O_33
REMARK    8  A    between atoms: O_33  and  C_34
REMARK                            x       y       z     vdW  Elec       q    Type
REMARK                         _______ _______ _______ _____ _____    ______ ____
ROOT
ATOM      1  C   UNL     1      86.446  52.610  42.253  0.00  0.00    +0.069 C 
ATOM      2  C   UNL     1      86.840  53.399  43.521  0.00  0.00    +0.012 C 
ATOM      3  C   UNL     1      86.286  52.264  44.404  0.00  0.00    +0.069 C 
ATOM      4  C   UNL     1      85.826  51.497  43.139  0.00  0.00    +0.153 C 
ATOM      5  O   UNL     1      84.408  51.439  42.952  0.00  0.00    -0.449 OA
ATOM      6  C   UNL     1      83.489  51.740  43.954  0.00  0.00    +0.336 C 
ATOM      7  O   UNL     1      82.267  51.509  43.764  0.00  0.00    -0.245 OA
ATOM      8  C   UNL     1      83.928  52.364  45.200  0.00  0.00    +0.060 C 
ATOM      9  C   UNL     1      85.222  52.649  45.409  0.00  0.00    +0.112 C 
ENDROOT
BRANCH   1  15
ATOM     10  C   UNL     1      89.439  50.661  40.933  0.00  0.00    +0.130 A 
ATOM     11  C   UNL     1      89.856  51.529  39.912  0.00  0.00    +0.065 A 
ATOM     12  C   UNL     1      89.138  52.708  39.692  0.00  0.00    +0.340 A 
ATOM     13  O   UNL     1      89.495  53.503  38.784  0.00  0.00    -0.245 OA
ATOM     14  O   UNL     1      88.079  52.998  40.440  0.00  0.00    -0.427 OA
ATOM     15  C   UNL     1      87.644  52.202  41.418  0.00  0.00    +0.120 A 
ATOM     16  C   UNL     1      88.320  51.006  41.693  0.00  0.00    +0.019 A 
BRANCH  10  18
ATOM     17  C   UNL     1      90.703  49.155  42.476  0.00  0.00    +0.079 C 
ATOM     18  O   UNL     1      90.104  49.460  41.221  0.00  0.00    -0.495 OA
ENDBRANCH  10  18
ENDBRANCH   1  15
BRANCH   2  19
ATOM     19  C   UNL     1      86.187  54.770  43.682  0.00  0.00    -0.043 A 
ATOM     20  C   UNL     1      86.755  55.799  44.464  0.00  0.00    -0.058 A 
ATOM     21  C   UNL     1      86.140  57.052  44.540  0.00  0.00    -0.061 A 
ATOM     22  C   UNL     1      84.960  57.300  43.837  0.00  0.00    -0.062 A 
ATOM     23  C   UNL     1      84.394  56.295  43.051  0.00  0.00    -0.061 A 
ATOM     24  C   UNL     1      85.004  55.041  42.969  0.00  0.00    -0.058 A 
ENDBRANCH   2  19
BRANCH   4  25
ATOM     25  C   UNL     1      86.416  50.108  43.018  0.00  0.00    -0.039 C 
ATOM     26  C   UNL     1      85.819  49.052  43.585  0.00  0.00    -0.055 C 
BRANCH  26  27
ATOM     27  C   UNL     1      86.326  47.664  43.470  0.00  0.00    -0.025 A 
ATOM     28  C   UNL     1      85.760  46.590  44.188  0.00  0.00    -0.055 A 
ATOM     29  C   UNL     1      86.264  45.295  44.035  0.00  0.00    -0.061 A 
ATOM     30  C   UNL     1      87.326  45.054  43.161  0.00  0.00    -0.062 A 
ATOM     31  C   UNL     1      87.882  46.106  42.432  0.00  0.00    -0.061 A 
ATOM     32  C   UNL     1      87.383  47.404  42.580  0.00  0.00    -0.055 A 
ENDBRANCH  26  27
ENDBRANCH   4  25
BRANCH   9  33
ATOM     33  O   UNL     1      85.660  53.316  46.565  0.00  0.00    -0.499 OA
ATOM     34  C   UNL     1      84.894  54.264  47.302  0.00  0.00    +0.078 C 
ENDBRANCH   9  33
TORSDOF 6
ENDMDL
MODEL 5
REMARK VINA RESULT:    -9.769      3.859      7.981
REMARK INTER + INTRA:         -13.128
REMARK INTER:                 -11.912
REMARK INTRA:                  -1.217
REMARK UNBOUND:                 0.067
REMARK  Name = 
REMARK  8 active torsions:
REMARK  status: ('A' for Active; 'I' for Inactive)
REMARK    1  A    between atoms: C_1  and  O_2
REMARK    2  A    between atoms: O_2  and  C_3
REMARK    3  A    between atoms: C_8  and  C_10
REMARK    4  A    between atoms: C_11  and  C_12
REMARK    5  A    between atoms: C_19  and  C_20
REMARK    6  A    between atoms: C_21  and  C_22
REMARK    7  A    between atoms: C_32  and  O_33
REMARK    8  A    between atoms: O_33  and  C_34
REMARK                            x       y       z     vdW  Elec       q    Type
REMARK                         _______ _______ _______ _____ _____    ______ ____
ROOT
ATOM      1  C   UNL     1      83.908  50.700  44.771  0.00  0.00    +0.069 C 
ATOM      2  C   UNL     1      84.358  51.821  43.808  0.00  0.00    +0.012 C 
ATOM      3  C   UNL     1      85.649  51.040  43.497  0.00  0.00    +0.069 C 
ATOM      4  C   UNL     1      85.238  49.944  44.512  0.00  0.00    +0.153 C 
ATOM      5  O   UNL     1      86.029  49.898  45.703  0.00  0.00    -0.449 OA
ATOM      6  C   UNL     1      87.261  50.536  45.831  0.00  0.00    +0.336 C 
ATOM      7  O   UNL     1      87.971  50.317  46.846  0.00  0.00    -0.245 OA
ATOM      8  C   UNL     1      87.710  51.492  44.820  0.00  0.00    +0.060 C 
ATOM      9  C   UNL     1      86.953  51.765  43.747  0.00  0.00    +0.112 C 
ENDROOT
BRANCH   1  15
ATOM     10  C   UNL     1      81.285  48.009  44.155  0.00  0.00    +0.130 A 
ATOM     11  C   UNL     1      80.363  48.746  43.396  0.00  0.00    +0.065 A 
ATOM     12  C   UNL     1      80.631  50.091  43.125  0.00  0.00    +0.340 A 
ATOM     13  O   UNL     1      79.820  50.770  42.444  0.00  0.00    -0.245 OA
ATOM     14  O   UNL     1      81.742  50.658  43.582  0.00  0.00    -0.427 OA
ATOM     15  C   UNL     1      82.645  49.999  44.309  0.00  0.00    +0.120 A 
ATOM     16  C   UNL     1      82.439  48.647  44.614  0.00  0.00    +0.019 A 
BRANCH  10  18
ATOM     17  C   UNL     1      80.130  46.176  45.401  0.00  0.00    +0.079 C 
ATOM     18  O   UNL     1      81.094  46.656  44.470  0.00  0.00    -0.495 OA
ENDBRANCH  10  18
ENDBRANCH   1  15
BRANCH   2  19
ATOM     19  C   UNL     1      84.530  53.204  44.432  0.00  0.00    -0.043 A 
ATOM     20  C   UNL     1      84.749  53.397  45.813  0.00  0.00    -0.058 A 
ATOM     21  C   UNL     1      84.947  54.682  46.327  0.00  0.00    -0.061 A 
ATOM     22  C   UNL     1      84.936  55.788  45.476  0.00  0.00    -0.062 A 
ATOM     23  C   UNL     1      84.733  55.611  44.106  0.00  0.00    -0.061 A 
ATOM     24  C   UNL     1      84.535  54.329  43.587  0.00  0.00    -0.058 A 
ENDBRANCH   2  19
BRANCH   4  25
ATOM     25  C   UNL     1      85.140  48.559  43.908  0.00  0.00    -0.039 C 
ATOM     26  C   UNL     1      86.163  47.698  43.983  0.00  0.00    -0.055 C 
BRANCH  26  27
ATOM     27  C   UNL     1      86.113  46.317  43.447  0.00  0.00    -0.025 A 
ATOM     28  C   UNL     1      84.913  45.581  43.365  0.00  0.00    -0.055 A 
ATOM     29  C   UNL     1      84.913  44.286  42.838  0.00  0.00    -0.061 A 
ATOM     30  C   UNL     1      86.102  43.717  42.378  0.00  0.00    -0.062 A 
ATOM     31  C   UNL     1      87.293  44.443  42.438  0.00  0.00    -0.061 A 
ATOM     32  C   UNL     1      87.299  45.738  42.964  0.00  0.00    -0.055 A 
ENDBRANCH  26  27
ENDBRANCH   4  25
BRANCH   9  33
ATOM     33  O   UNL     1      87.327  52.734  42.801  0.00  0.00    -0.499 OA
ATOM     34  C   UNL     1      87.126  52.626  41.395  0.00  0.00    +0.078 C 
ENDBRANCH   9  33
TORSDOF 6
ENDMDL
MODEL 6
REMARK VINA RESULT:    -9.580      2.218      6.741
REMARK INTER + INTRA:         -12.874
REMARK INTER:                 -11.206
REMARK INTRA:                  -1.667
REMARK UNBOUND:                 0.067
REMARK  Name = 
REMARK  8 active torsions:
REMARK  status: ('A' for Active; 'I' for Inactive)
REMARK    1  A    between atoms: C_1  and  O_2
REMARK    2  A    between atoms: O_2  and  C_3
REMARK    3  A    between atoms: C_8  and  C_10
REMARK    4  A    between atoms: C_11  and  C_12
REMARK    5  A    between atoms: C_19  and  C_20
REMARK    6  A    between atoms: C_21  and  C_22
REMARK    7  A    between atoms: C_32  and  O_33
REMARK    8  A    between atoms: O_33  and  C_34
REMARK                            x       y       z     vdW  Elec       q    Type
REMARK                         _______ _______ _______ _____ _____    ______ ____
ROOT
ATOM      1  C   UNL     1      86.030  53.309  45.483  0.00  0.00    +0.069 C 
ATOM      2  C   UNL     1      84.820  54.237  45.238  0.00  0.00    +0.012 C 
ATOM      3  C   UNL     1      84.361  53.338  44.074  0.00  0.00    +0.069 C 
ATOM      4  C   UNL     1      85.609  52.440  44.268  0.00  0.00    +0.153 C 
ATOM      5  O   UNL     1      86.584  52.530  43.225  0.00  0.00    -0.449 OA
ATOM      6  C   UNL     1      86.327  53.101  41.980  0.00  0.00    +0.336 C 
ATOM      7  O   UNL     1      87.179  52.997  41.061  0.00  0.00    -0.245 OA
ATOM      8  C   UNL     1      85.097  53.859  41.753  0.00  0.00    +0.060 C 
ATOM      9  C   UNL     1      84.190  54.009  42.729  0.00  0.00    +0.112 C 
ENDROOT
BRANCH   1  15
ATOM     10  C   UNL     1      86.868  51.019  48.406  0.00  0.00    +0.130 A 
ATOM     11  C   UNL     1      85.827  51.362  49.283  0.00  0.00    +0.065 A 
ATOM     12  C   UNL     1      84.902  52.333  48.887  0.00  0.00    +0.340 A 
ATOM     13  O   UNL     1      83.959  52.655  49.655  0.00  0.00    -0.245 OA
ATOM     14  O   UNL     1      85.011  52.918  47.699  0.00  0.00    -0.427 OA
ATOM     15  C   UNL     1      85.984  52.626  46.835  0.00  0.00    +0.120 A 
ATOM     16  C   UNL     1      86.943  51.659  47.169  0.00  0.00    +0.019 A 
BRANCH  10  18
ATOM     17  C   UNL     1      88.995  49.791  47.941  0.00  0.00    +0.079 C 
ATOM     18  O   UNL     1      87.835  50.055  48.725  0.00  0.00    -0.495 OA
ENDBRANCH  10  18
ENDBRANCH   1  15
BRANCH   2  19
ATOM     19  C   UNL     1      85.152  55.687  44.891  0.00  0.00    -0.043 A 
ATOM     20  C   UNL     1      84.202  56.727  44.968  0.00  0.00    -0.058 A 
ATOM     21  C   UNL     1      84.569  58.046  44.684  0.00  0.00    -0.061 A 
ATOM     22  C   UNL     1      85.885  58.347  44.327  0.00  0.00    -0.062 A 
ATOM     23  C   UNL     1      86.838  57.330  44.259  0.00  0.00    -0.061 A 
ATOM     24  C   UNL     1      86.477  56.010  44.542  0.00  0.00    -0.058 A 
ENDBRANCH   2  19
BRANCH   4  25
ATOM     25  C   UNL     1      85.280  50.987  44.539  0.00  0.00    -0.039 C 
ATOM     26  C   UNL     1      85.264  50.086  43.548  0.00  0.00    -0.055 C 
BRANCH  26  27
ATOM     27  C   UNL     1      84.988  48.645  43.756  0.00  0.00    -0.025 A 
ATOM     28  C   UNL     1      86.001  47.721  44.086  0.00  0.00    -0.055 A 
ATOM     29  C   UNL     1      85.690  46.373  44.286  0.00  0.00    -0.061 A 
ATOM     30  C   UNL     1      84.369  45.933  44.171  0.00  0.00    -0.062 A 
ATOM     31  C   UNL     1      83.356  46.842  43.862  0.00  0.00    -0.061 A 
ATOM     32  C   UNL     1      83.661  48.192  43.661  0.00  0.00    -0.055 A 
ENDBRANCH  26  27
ENDBRANCH   4  25
BRANCH   9  33
ATOM     33  O   UNL     1      83.038  54.794  42.558  0.00  0.00    -0.499 OA
ATOM     34  C   UNL     1      81.950  54.476  41.695  0.00  0.00    +0.078 C 
ENDBRANCH   9  33
TORSDOF 6
ENDMDL
MODEL 7
REMARK VINA RESULT:    -9.375      2.968      4.854
REMARK INTER + INTRA:         -12.596
REMARK INTER:                 -11.423
REMARK INTRA:                  -1.173
REMARK UNBOUND:                 0.067
REMARK  Name = 
REMARK  8 active torsions:
REMARK  status: ('A' for Active; 'I' for Inactive)
REMARK    1  A    between atoms: C_1  and  O_2
REMARK    2  A    between atoms: O_2  and  C_3
REMARK    3  A    between atoms: C_8  and  C_10
REMARK    4  A    between atoms: C_11  and  C_12
REMARK    5  A    between atoms: C_19  and  C_20
REMARK    6  A    between atoms: C_21  and  C_22
REMARK    7  A    between atoms: C_32  and  O_33
REMARK    8  A    between atoms: O_33  and  C_34
REMARK                            x       y       z     vdW  Elec       q    Type
REMARK                         _______ _______ _______ _____ _____    ______ ____
ROOT
ATOM      1  C   UNL     1      84.841  50.675  42.840  0.00  0.00    +0.069 C 
ATOM      2  C   UNL     1      85.060  49.804  44.096  0.00  0.00    +0.012 C 
ATOM      3  C   UNL     1      86.025  50.862  44.665  0.00  0.00    +0.069 C 
ATOM      4  C   UNL     1      85.864  51.710  43.378  0.00  0.00    +0.153 C 
ATOM      5  O   UNL     1      87.021  51.755  42.538  0.00  0.00    -0.449 OA
ATOM      6  C   UNL     1      88.291  51.366  42.958  0.00  0.00    +0.336 C 
ATOM      7  O   UNL     1      89.284  51.587  42.219  0.00  0.00    -0.245 OA
ATOM      8  C   UNL     1      88.468  50.661  44.227  0.00  0.00    +0.060 C 
ATOM      9  C   UNL     1      87.418  50.387  45.015  0.00  0.00    +0.112 C 
ENDROOT
BRANCH   1  15
ATOM     10  C   UNL     1      81.045  50.861  43.080  0.00  0.00    +0.130 A 
ATOM     11  C   UNL     1      80.821  52.057  42.381  0.00  0.00    +0.065 A 
ATOM     12  C   UNL     1      81.918  52.756  41.869  0.00  0.00    +0.340 A 
ATOM     13  O   UNL     1      81.741  53.829  41.236  0.00  0.00    -0.245 OA
ATOM     14  O   UNL     1      83.151  52.292  42.044  0.00  0.00    -0.427 OA
ATOM     15  C   UNL     1      83.412  51.163  42.704  0.00  0.00    +0.120 A 
ATOM     16  C   UNL     1      82.357  50.411  43.240  0.00  0.00    +0.019 A 
BRANCH  10  18
ATOM     17  C   UNL     1      80.087  48.705  43.904  0.00  0.00    +0.079 C 
ATOM     18  O   UNL     1      80.002  50.098  43.623  0.00  0.00    -0.495 OA
ENDBRANCH  10  18
ENDBRANCH   1  15
BRANCH   2  19
ATOM     19  C   UNL     1      85.640  48.413  43.849  0.00  0.00    -0.043 A 
ATOM     20  C   UNL     1      85.295  47.292  44.634  0.00  0.00    -0.058 A 
ATOM     21  C   UNL     1      85.819  46.030  44.337  0.00  0.00    -0.061 A 
ATOM     22  C   UNL     1      86.685  45.867  43.255  0.00  0.00    -0.062 A 
ATOM     23  C   UNL     1      87.027  46.965  42.463  0.00  0.00    -0.061 A 
ATOM     24  C   UNL     1      86.505  48.228  42.755  0.00  0.00    -0.058 A 
ENDBRANCH   2  19
BRANCH   4  25
ATOM     25  C   UNL     1      85.359  53.114  43.631  0.00  0.00    -0.039 C 
ATOM     26  C   UNL     1      86.076  53.988  44.349  0.00  0.00    -0.055 C 
BRANCH  26  27
ATOM     27  C   UNL     1      85.653  55.386  44.598  0.00  0.00    -0.025 A 
ATOM     28  C   UNL     1      85.217  56.240  43.563  0.00  0.00    -0.055 A 
ATOM     29  C   UNL     1      84.814  57.548  43.849  0.00  0.00    -0.061 A 
ATOM     30  C   UNL     1      84.831  58.015  45.164  0.00  0.00    -0.062 A 
ATOM     31  C   UNL     1      85.245  57.174  46.198  0.00  0.00    -0.061 A 
ATOM     32  C   UNL     1      85.648  55.865  45.920  0.00  0.00    -0.055 A 
ENDBRANCH  26  27
ENDBRANCH   4  25
BRANCH   9  33
ATOM     33  O   UNL     1      87.552  49.646  46.201  0.00  0.00    -0.499 OA
ATOM     34  C   UNL     1      87.158  50.094  47.495  0.00  0.00    +0.078 C 
ENDBRANCH   9  33
TORSDOF 6
ENDMDL
MODEL 8
REMARK VINA RESULT:    -8.797      3.757      5.981
REMARK INTER + INTRA:         -11.815
REMARK INTER:                 -10.738
REMARK INTRA:                  -1.078
REMARK UNBOUND:                 0.067
REMARK  Name = 
REMARK  8 active torsions:
REMARK  status: ('A' for Active; 'I' for Inactive)
REMARK    1  A    between atoms: C_1  and  O_2
REMARK    2  A    between atoms: O_2  and  C_3
REMARK    3  A    between atoms: C_8  and  C_10
REMARK    4  A    between atoms: C_11  and  C_12
REMARK    5  A    between atoms: C_19  and  C_20
REMARK    6  A    between atoms: C_21  and  C_22
REMARK    7  A    between atoms: C_32  and  O_33
REMARK    8  A    between atoms: O_33  and  C_34
REMARK                            x       y       z     vdW  Elec       q    Type
REMARK                         _______ _______ _______ _____ _____    ______ ____
ROOT
ATOM      1  C   UNL     1      84.700  51.112  44.112  0.00  0.00    +0.069 C 
ATOM      2  C   UNL     1      84.834  51.619  45.565  0.00  0.00    +0.012 C 
ATOM      3  C   UNL     1      84.859  53.074  45.058  0.00  0.00    +0.069 C 
ATOM      4  C   UNL     1      84.793  52.572  43.594  0.00  0.00    +0.153 C 
ATOM      5  O   UNL     1      85.994  52.760  42.838  0.00  0.00    -0.449 OA
ATOM      6  C   UNL     1      87.027  53.604  43.237  0.00  0.00    +0.336 C 
ATOM      7  O   UNL     1      87.975  53.843  42.444  0.00  0.00    -0.245 OA
ATOM      8  C   UNL     1      87.042  54.174  44.583  0.00  0.00    +0.060 C 
ATOM      9  C   UNL     1      86.058  53.907  45.455  0.00  0.00    +0.112 C 
ENDROOT
BRANCH   1  15
ATOM     10  C   UNL     1      82.117  48.359  43.614  0.00  0.00    +0.130 A 
ATOM     11  C   UNL     1      80.989  49.142  43.323  0.00  0.00    +0.065 A 
ATOM     12  C   UNL     1      81.117  50.534  43.311  0.00  0.00    +0.340 A 
ATOM     13  O   UNL     1      80.120  51.255  43.051  0.00  0.00    -0.245 OA
ATOM     14  O   UNL     1      82.289  51.102  43.572  0.00  0.00    -0.427 OA
ATOM     15  C   UNL     1      83.386  50.399  43.856  0.00  0.00    +0.120 A 
ATOM     16  C   UNL     1      83.328  48.999  43.882  0.00  0.00    +0.019 A 
BRANCH  10  18
ATOM     17  C   UNL     1      83.208  46.125  43.872  0.00  0.00    +0.079 C 
ATOM     18  O   UNL     1      82.076  46.958  43.644  0.00  0.00    -0.495 OA
ENDBRANCH  10  18
ENDBRANCH   1  15
BRANCH   2  19
ATOM     19  C   UNL     1      86.068  51.140  46.326  0.00  0.00    -0.043 A 
ATOM     20  C   UNL     1      86.183  51.231  47.730  0.00  0.00    -0.058 A 
ATOM     21  C   UNL     1      87.315  50.735  48.383  0.00  0.00    -0.061 A 
ATOM     22  C   UNL     1      88.342  50.137  47.651  0.00  0.00    -0.062 A 
ATOM     23  C   UNL     1      88.237  50.029  46.263  0.00  0.00    -0.061 A 
ATOM     24  C   UNL     1      87.108  50.523  45.605  0.00  0.00    -0.058 A 
ENDBRANCH   2  19
BRANCH   4  25
ATOM     25  C   UNL     1      83.609  53.106  42.817  0.00  0.00    -0.039 C 
ATOM     26  C   UNL     1      83.771  54.023  41.854  0.00  0.00    -0.055 C 
BRANCH  26  27
ATOM     27  C   UNL     1      82.658  54.555  41.034  0.00  0.00    -0.025 A 
ATOM     28  C   UNL     1      81.304  54.350  41.372  0.00  0.00    -0.055 A 
ATOM     29  C   UNL     1      80.288  54.885  40.575  0.00  0.00    -0.061 A 
ATOM     30  C   UNL     1      80.607  55.636  39.442  0.00  0.00    -0.062 A 
ATOM     31  C   UNL     1      81.944  55.860  39.107  0.00  0.00    -0.061 A 
ATOM     32  C   UNL     1      82.965  55.328  39.900  0.00  0.00    -0.055 A 
ENDBRANCH  26  27
ENDBRANCH   4  25
BRANCH   9  33
ATOM     33  O   UNL     1      86.087  54.380  46.777  0.00  0.00    -0.499 OA
ATOM     34  C   UNL     1      85.146  55.289  47.341  0.00  0.00    +0.078 C 
ENDBRANCH   9  33
TORSDOF 6
ENDMDL
MODEL 9
REMARK VINA RESULT:    -8.503      4.327      7.841
REMARK INTER + INTRA:         -11.419
REMARK INTER:                 -11.486
REMARK INTRA:                   0.067
REMARK UNBOUND:                 0.067
REMARK  Name = 
REMARK  8 active torsions:
REMARK  status: ('A' for Active; 'I' for Inactive)
REMARK    1  A    between atoms: C_1  and  O_2
REMARK    2  A    between atoms: O_2  and  C_3
REMARK    3  A    between atoms: C_8  and  C_10
REMARK    4  A    between atoms: C_11  and  C_12
REMARK    5  A    between atoms: C_19  and  C_20
REMARK    6  A    between atoms: C_21  and  C_22
REMARK    7  A    between atoms: C_32  and  O_33
REMARK    8  A    between atoms: O_33  and  C_34
REMARK                            x       y       z     vdW  Elec       q    Type
REMARK                         _______ _______ _______ _____ _____    ______ ____
ROOT
ATOM      1  C   UNL     1      83.940  48.389  44.205  0.00  0.00    +0.069 C 
ATOM      2  C   UNL     1      82.889  48.901  43.198  0.00  0.00    +0.012 C 
ATOM      3  C   UNL     1      83.783  50.114  42.876  0.00  0.00    +0.069 C 
ATOM      4  C   UNL     1      84.811  49.644  43.935  0.00  0.00    +0.153 C 
ATOM      5  O   UNL     1      84.888  50.463  45.106  0.00  0.00    -0.449 OA
ATOM      6  C   UNL     1      84.351  51.746  45.182  0.00  0.00    +0.336 C 
ATOM      7  O   UNL     1      84.600  52.465  46.184  0.00  0.00    -0.245 OA
ATOM      8  C   UNL     1      83.465  52.242  44.131  0.00  0.00    +0.060 C 
ATOM      9  C   UNL     1      83.161  51.481  43.069  0.00  0.00    +0.112 C 
ENDROOT
BRANCH   1  15
ATOM     10  C   UNL     1      86.273  45.795  42.679  0.00  0.00    +0.130 A 
ATOM     11  C   UNL     1      85.584  44.623  43.025  0.00  0.00    +0.065 A 
ATOM     12  C   UNL     1      84.393  44.728  43.750  0.00  0.00    +0.340 A 
ATOM     13  O   UNL     1      83.757  43.690  44.069  0.00  0.00    -0.245 OA
ATOM     14  O   UNL     1      83.925  45.920  44.103  0.00  0.00    -0.427 OA
ATOM     15  C   UNL     1      84.547  47.060  43.799  0.00  0.00    +0.120 A 
ATOM     16  C   UNL     1      85.745  47.026  43.071  0.00  0.00    +0.019 A 
BRANCH  10  18
ATOM     17  C   UNL     1      88.757  46.018  42.517  0.00  0.00    +0.079 C 
ATOM     18  O   UNL     1      87.472  45.779  41.952  0.00  0.00    -0.495 OA
ENDBRANCH  10  18
ENDBRANCH   1  15
BRANCH   2  19
ATOM     19  C   UNL     1      81.507  49.204  43.773  0.00  0.00    -0.043 A 
ATOM     20  C   UNL     1      80.485  49.823  43.021  0.00  0.00    -0.058 A 
ATOM     21  C   UNL     1      79.222  50.036  43.580  0.00  0.00    -0.061 A 
ATOM     22  C   UNL     1      78.958  49.632  44.890  0.00  0.00    -0.062 A 
ATOM     23  C   UNL     1      79.955  49.009  45.642  0.00  0.00    -0.061 A 
ATOM     24  C   UNL     1      81.219  48.793  45.088  0.00  0.00    -0.058 A 
ENDBRANCH   2  19
BRANCH   4  25
ATOM     25  C   UNL     1      86.200  49.415  43.378  0.00  0.00    -0.039 C 
ATOM     26  C   UNL     1      87.286  49.853  44.027  0.00  0.00    -0.055 C 
BRANCH  26  27
ATOM     27  C   UNL     1      88.672  49.627  43.552  0.00  0.00    -0.025 A 
ATOM     28  C   UNL     1      89.144  50.138  42.325  0.00  0.00    -0.055 A 
ATOM     29  C   UNL     1      90.465  49.910  41.927  0.00  0.00    -0.061 A 
ATOM     30  C   UNL     1      91.329  49.182  42.747  0.00  0.00    -0.062 A 
ATOM     31  C   UNL     1      90.877  48.686  43.971  0.00  0.00    -0.061 A 
ATOM     32  C   UNL     1      89.558  48.911  44.376  0.00  0.00    -0.055 A 
ENDBRANCH  26  27
ENDBRANCH   4  25
BRANCH   9  33
ATOM     33  O   UNL     1      82.255  51.905  42.085  0.00  0.00    -0.499 OA
ATOM     34  C   UNL     1      81.811  53.247  41.904  0.00  0.00    +0.078 C 
ENDBRANCH   9  33
TORSDOF 6
ENDMDL
