MODEL 1
REMARK VINA RESULT:   -10.698      0.000      0.000
REMARK INTER + INTRA:         -14.278
REMARK INTER:                 -12.990
REMARK INTRA:                  -1.288
REMARK UNBOUND:                 0.173
REMARK  Name = 
REMARK  8 active torsions:
REMARK  status: ('A' for Active; 'I' for Inactive)
REMARK    1  A    between atoms: C_1  and  O_2
REMARK    2  A    between atoms: O_2  and  C_3
REMARK    3  A    between atoms: C_8  and  C_10
REMARK    4  A    between atoms: C_11  and  C_12
REMARK    5  A    between atoms: C_19  and  C_20
REMARK    6  A    between atoms: C_21  and  C_22
REMARK    7  A    between atoms: C_32  and  O_33
REMARK    8  A    between atoms: O_33  and  C_34
REMARK                            x       y       z     vdW  Elec       q    Type
REMARK                         _______ _______ _______ _____ _____    ______ ____
ROOT
ATOM      1  C   UNL     1      86.768  51.281  44.156  0.00  0.00    +0.069 C 
ATOM      2  C   UNL     1      88.236  51.098  43.714  0.00  0.00    +0.012 C 
ATOM      3  C   UNL     1      88.213  52.487  43.048  0.00  0.00    +0.069 C 
ATOM      4  C   UNL     1      86.720  52.650  43.428  0.00  0.00    +0.153 C 
ATOM      5  O   UNL     1      85.809  52.601  42.326  0.00  0.00    -0.449 OA
ATOM      6  C   UNL     1      86.205  52.728  40.996  0.00  0.00    +0.336 C 
ATOM      7  O   UNL     1      85.333  52.838  40.096  0.00  0.00    -0.245 OA
ATOM      8  C   UNL     1      87.621  52.686  40.638  0.00  0.00    +0.060 C 
ATOM      9  C   UNL     1      88.566  52.537  41.578  0.00  0.00    +0.112 C 
ENDROOT
BRANCH   1  15
ATOM     10  C   UNL     1      85.466  52.138  47.630  0.00  0.00    +0.130 A 
ATOM     11  C   UNL     1      86.389  51.426  48.412  0.00  0.00    +0.065 A 
ATOM     12  C   UNL     1      87.390  50.690  47.772  0.00  0.00    +0.340 A 
ATOM     13  O   UNL     1      88.231  50.046  48.453  0.00  0.00    -0.245 OA
ATOM     14  O   UNL     1      87.463  50.667  46.446  0.00  0.00    -0.427 OA
ATOM     15  C   UNL     1      86.607  51.324  45.663  0.00  0.00    +0.120 A 
ATOM     16  C   UNL     1      85.581  52.085  46.240  0.00  0.00    +0.019 A 
BRANCH  10  18
ATOM     17  C   UNL     1      84.625  54.148  48.854  0.00  0.00    +0.079 C 
ATOM     18  O   UNL     1      84.433  52.903  48.191  0.00  0.00    -0.495 OA
ENDBRANCH  10  18
ENDBRANCH   1  15
BRANCH   2  19
ATOM     19  C   UNL     1      88.512  49.907  42.799  0.00  0.00    -0.043 A 
ATOM     20  C   UNL     1      89.813  49.411  42.562  0.00  0.00    -0.058 A 
ATOM     21  C   UNL     1      90.007  48.289  41.753  0.00  0.00    -0.061 A 
ATOM     22  C   UNL     1      88.914  47.642  41.175  0.00  0.00    -0.062 A 
ATOM     23  C   UNL     1      87.621  48.113  41.410  0.00  0.00    -0.061 A 
ATOM     24  C   UNL     1      87.420  49.234  42.219  0.00  0.00    -0.058 A 
ENDBRANCH   2  19
BRANCH   4  25
ATOM     25  C   UNL     1      86.435  53.874  44.274  0.00  0.00    -0.039 C 
ATOM     26  C   UNL     1      85.778  54.925  43.769  0.00  0.00    -0.055 C 
BRANCH  26  27
ATOM     27  C   UNL     1      85.435  56.133  44.556  0.00  0.00    -0.025 A 
ATOM     28  C   UNL     1      85.889  57.421  44.201  0.00  0.00    -0.055 A 
ATOM     29  C   UNL     1      85.528  58.533  44.968  0.00  0.00    -0.061 A 
ATOM     30  C   UNL     1      84.705  58.377  46.085  0.00  0.00    -0.062 A 
ATOM     31  C   UNL     1      84.236  57.110  46.435  0.00  0.00    -0.061 A 
ATOM     32  C   UNL     1      84.593  55.994  45.673  0.00  0.00    -0.055 A 
ENDBRANCH  26  27
ENDBRANCH   4  25
BRANCH   9  33
ATOM     33  O   UNL     1      89.927  52.419  41.252  0.00  0.00    -0.499 OA
ATOM     34  C   UNL     1      90.577  53.106  40.187  0.00  0.00    +0.078 C 
ENDBRANCH   9  33
TORSDOF 6
ENDMDL
MODEL 2
REMARK VINA RESULT:   -10.434      1.776      6.577
REMARK INTER + INTRA:         -13.921
REMARK INTER:                 -12.218
REMARK INTRA:                  -1.703
REMARK UNBOUND:                 0.173
REMARK  Name = 
REMARK  8 active torsions:
REMARK  status: ('A' for Active; 'I' for Inactive)
REMARK    1  A    between atoms: C_1  and  O_2
REMARK    2  A    between atoms: O_2  and  C_3
REMARK    3  A    between atoms: C_8  and  C_10
REMARK    4  A    between atoms: C_11  and  C_12
REMARK    5  A    between atoms: C_19  and  C_20
REMARK    6  A    between atoms: C_21  and  C_22
REMARK    7  A    between atoms: C_32  and  O_33
REMARK    8  A    between atoms: O_33  and  C_34
REMARK                            x       y       z     vdW  Elec       q    Type
REMARK                         _______ _______ _______ _____ _____    ______ ____
ROOT
ATOM      1  C   UNL     1      86.640  52.804  44.760  0.00  0.00    +0.069 C 
ATOM      2  C   UNL     1      85.307  53.573  44.641  0.00  0.00    +0.012 C 
ATOM      3  C   UNL     1      84.902  52.693  43.443  0.00  0.00    +0.069 C 
ATOM      4  C   UNL     1      86.266  51.962  43.511  0.00  0.00    +0.153 C 
ATOM      5  O   UNL     1      87.158  52.247  42.429  0.00  0.00    -0.449 OA
ATOM      6  C   UNL     1      86.754  52.853  41.241  0.00  0.00    +0.336 C 
ATOM      7  O   UNL     1      87.557  52.922  40.276  0.00  0.00    -0.245 OA
ATOM      8  C   UNL     1      85.425  53.450  41.129  0.00  0.00    +0.060 C 
ATOM      9  C   UNL     1      84.565  53.417  42.157  0.00  0.00    +0.112 C 
ENDROOT
BRANCH   1  15
ATOM     10  C   UNL     1      85.972  51.542  48.289  0.00  0.00    +0.130 A 
ATOM     11  C   UNL     1      87.063  50.674  48.442  0.00  0.00    +0.065 A 
ATOM     12  C   UNL     1      87.966  50.530  47.384  0.00  0.00    +0.340 A 
ATOM     13  O   UNL     1      88.954  49.759  47.500  0.00  0.00    -0.245 OA
ATOM     14  O   UNL     1      87.788  51.206  46.255  0.00  0.00    -0.427 OA
ATOM     15  C   UNL     1      86.765  52.039  46.063  0.00  0.00    +0.120 A 
ATOM     16  C   UNL     1      85.825  52.232  47.085  0.00  0.00    +0.019 A 
BRANCH  10  18
ATOM     17  C   UNL     1      84.038  52.774  49.284  0.00  0.00    +0.079 C 
ATOM     18  O   UNL     1      85.022  51.746  49.301  0.00  0.00    -0.495 OA
ENDBRANCH  10  18
ENDBRANCH   1  15
BRANCH   2  19
ATOM     19  C   UNL     1      85.424  55.073  44.378  0.00  0.00    -0.043 A 
ATOM     20  C   UNL     1      84.304  55.932  44.341  0.00  0.00    -0.058 A 
ATOM     21  C   UNL     1      84.470  57.305  44.143  0.00  0.00    -0.061 A 
ATOM     22  C   UNL     1      85.749  57.843  43.986  0.00  0.00    -0.062 A 
ATOM     23  C   UNL     1      86.866  57.007  44.032  0.00  0.00    -0.061 A 
ATOM     24  C   UNL     1      86.706  55.633  44.230  0.00  0.00    -0.058 A 
ENDBRANCH   2  19
BRANCH   4  25
ATOM     25  C   UNL     1      86.148  50.464  43.698  0.00  0.00    -0.039 C 
ATOM     26  C   UNL     1      86.709  49.613  42.829  0.00  0.00    -0.055 C 
BRANCH  26  27
ATOM     27  C   UNL     1      86.661  48.140  42.978  0.00  0.00    -0.025 A 
ATOM     28  C   UNL     1      85.761  47.498  43.854  0.00  0.00    -0.055 A 
ATOM     29  C   UNL     1      85.743  46.103  43.950  0.00  0.00    -0.061 A 
ATOM     30  C   UNL     1      86.610  45.335  43.171  0.00  0.00    -0.062 A 
ATOM     31  C   UNL     1      87.493  45.959  42.288  0.00  0.00    -0.061 A 
ATOM     32  C   UNL     1      87.516  47.354  42.187  0.00  0.00    -0.055 A 
ENDBRANCH  26  27
ENDBRANCH   4  25
BRANCH   9  33
ATOM     33  O   UNL     1      83.312  54.048  42.099  0.00  0.00    -0.499 OA
ATOM     34  C   UNL     1      82.201  53.594  41.331  0.00  0.00    +0.078 C 
ENDBRANCH   9  33
TORSDOF 6
ENDMDL
MODEL 3
REMARK VINA RESULT:   -10.407      1.927      5.805
REMARK INTER + INTRA:         -13.885
REMARK INTER:                 -12.803
REMARK INTRA:                  -1.081
REMARK UNBOUND:                 0.173
REMARK  Name = 
REMARK  8 active torsions:
REMARK  status: ('A' for Active; 'I' for Inactive)
REMARK    1  A    between atoms: C_1  and  O_2
REMARK    2  A    between atoms: O_2  and  C_3
REMARK    3  A    between atoms: C_8  and  C_10
REMARK    4  A    between atoms: C_11  and  C_12
REMARK    5  A    between atoms: C_19  and  C_20
REMARK    6  A    between atoms: C_21  and  C_22
REMARK    7  A    between atoms: C_32  and  O_33
REMARK    8  A    between atoms: O_33  and  C_34
REMARK                            x       y       z     vdW  Elec       q    Type
REMARK                         _______ _______ _______ _____ _____    ______ ____
ROOT
ATOM      1  C   UNL     1      88.044  50.645  42.335  0.00  0.00    +0.069 C 
ATOM      2  C   UNL     1      87.096  49.444  42.128  0.00  0.00    +0.012 C 
ATOM      3  C   UNL     1      86.206  49.943  43.283  0.00  0.00    +0.069 C 
ATOM      4  C   UNL     1      87.188  51.112  43.542  0.00  0.00    +0.153 C 
ATOM      5  O   UNL     1      87.937  51.012  44.757  0.00  0.00    -0.449 OA
ATOM      6  C   UNL     1      87.609  50.139  45.792  0.00  0.00    +0.336 C 
ATOM      7  O   UNL     1      88.215  50.222  46.891  0.00  0.00    -0.245 OA
ATOM      8  C   UNL     1      86.601  49.099  45.592  0.00  0.00    +0.060 C 
ATOM      9  C   UNL     1      85.966  48.971  44.418  0.00  0.00    +0.112 C 
ENDROOT
BRANCH   1  15
ATOM     10  C   UNL     1      89.296  52.694  39.380  0.00  0.00    +0.130 A 
ATOM     11  C   UNL     1      88.105  53.343  39.018  0.00  0.00    +0.065 A 
ATOM     12  C   UNL     1      86.943  53.077  39.748  0.00  0.00    +0.340 A 
ATOM     13  O   UNL     1      85.864  53.649  39.444  0.00  0.00    -0.245 OA
ATOM     14  O   UNL     1      86.970  52.224  40.766  0.00  0.00    -0.427 OA
ATOM     15  C   UNL     1      88.077  51.582  41.143  0.00  0.00    +0.120 A 
ATOM     16  C   UNL     1      89.278  51.805  40.456  0.00  0.00    +0.019 A 
BRANCH  10  18
ATOM     17  C   UNL     1      91.456  53.907  39.048  0.00  0.00    +0.079 C 
ATOM     18  O   UNL     1      90.506  52.905  38.702  0.00  0.00    -0.495 OA
ENDBRANCH  10  18
ENDBRANCH   1  15
BRANCH   2  19
ATOM     19  C   UNL     1      87.725  48.063  42.297  0.00  0.00    -0.043 A 
ATOM     20  C   UNL     1      86.982  46.867  42.188  0.00  0.00    -0.058 A 
ATOM     21  C   UNL     1      87.614  45.627  42.305  0.00  0.00    -0.061 A 
ATOM     22  C   UNL     1      88.991  45.558  42.525  0.00  0.00    -0.062 A 
ATOM     23  C   UNL     1      89.740  46.732  42.623  0.00  0.00    -0.061 A 
ATOM     24  C   UNL     1      89.114  47.976  42.506  0.00  0.00    -0.058 A 
ENDBRANCH   2  19
BRANCH   4  25
ATOM     25  C   UNL     1      86.547  52.481  43.448  0.00  0.00    -0.039 C 
ATOM     26  C   UNL     1      86.698  53.384  44.425  0.00  0.00    -0.055 C 
BRANCH  26  27
ATOM     27  C   UNL     1      86.128  54.751  44.372  0.00  0.00    -0.025 A 
ATOM     28  C   UNL     1      86.327  55.693  45.404  0.00  0.00    -0.055 A 
ATOM     29  C   UNL     1      85.782  56.976  45.303  0.00  0.00    -0.061 A 
ATOM     30  C   UNL     1      85.044  57.338  44.174  0.00  0.00    -0.062 A 
ATOM     31  C   UNL     1      84.856  56.420  43.139  0.00  0.00    -0.061 A 
ATOM     32  C   UNL     1      85.400  55.135  43.233  0.00  0.00    -0.055 A 
ENDBRANCH  26  27
ENDBRANCH   4  25
BRANCH   9  33
ATOM     33  O   UNL     1      85.050  47.934  44.177  0.00  0.00    -0.499 OA
ATOM     34  C   UNL     1      83.753  48.103  43.611  0.00  0.00    +0.078 C 
ENDBRANCH   9  33
TORSDOF 6
ENDMDL
MODEL 4
REMARK VINA RESULT:   -10.389      2.020      8.009
REMARK INTER + INTRA:         -13.860
REMARK INTER:                 -13.018
REMARK INTRA:                  -0.841
REMARK UNBOUND:                 0.173
REMARK  Name = 
REMARK  8 active torsions:
REMARK  status: ('A' for Active; 'I' for Inactive)
REMARK    1  A    between atoms: C_1  and  O_2
REMARK    2  A    between atoms: O_2  and  C_3
REMARK    3  A    between atoms: C_8  and  C_10
REMARK    4  A    between atoms: C_11  and  C_12
REMARK    5  A    between atoms: C_19  and  C_20
REMARK    6  A    between atoms: C_21  and  C_22
REMARK    7  A    between atoms: C_32  and  O_33
REMARK    8  A    between atoms: O_33  and  C_34
REMARK                            x       y       z     vdW  Elec       q    Type
REMARK                         _______ _______ _______ _____ _____    ______ ____
ROOT
ATOM      1  C   UNL     1      86.596  52.603  42.063  0.00  0.00    +0.069 C 
ATOM      2  C   UNL     1      86.980  53.408  43.324  0.00  0.00    +0.012 C 
ATOM      3  C   UNL     1      86.490  52.251  44.216  0.00  0.00    +0.069 C 
ATOM      4  C   UNL     1      86.039  51.465  42.959  0.00  0.00    +0.153 C 
ATOM      5  O   UNL     1      84.622  51.348  42.799  0.00  0.00    -0.449 OA
ATOM      6  C   UNL     1      83.709  51.611  43.817  0.00  0.00    +0.336 C 
ATOM      7  O   UNL     1      82.494  51.330  43.651  0.00  0.00    -0.245 OA
ATOM      8  C   UNL     1      84.146  52.254  45.056  0.00  0.00    +0.060 C 
ATOM      9  C   UNL     1      85.430  52.592  45.241  0.00  0.00    +0.112 C 
ENDROOT
BRANCH   1  15
ATOM     10  C   UNL     1      89.667  50.802  40.712  0.00  0.00    +0.130 A 
ATOM     11  C   UNL     1      90.003  51.664  39.657  0.00  0.00    +0.065 A 
ATOM     12  C   UNL     1      89.208  52.791  39.426  0.00  0.00    +0.340 A 
ATOM     13  O   UNL     1      89.492  53.579  38.487  0.00  0.00    -0.245 OA
ATOM     14  O   UNL     1      88.153  53.037  40.194  0.00  0.00    -0.427 OA
ATOM     15  C   UNL     1      87.794  52.245  41.205  0.00  0.00    +0.120 A 
ATOM     16  C   UNL     1      88.550  51.100  41.494  0.00  0.00    +0.019 A 
BRANCH  10  18
ATOM     17  C   UNL     1      90.855  49.302  42.320  0.00  0.00    +0.079 C 
ATOM     18  O   UNL     1      90.412  49.652  41.014  0.00  0.00    -0.495 OA
ENDBRANCH  10  18
ENDBRANCH   1  15
BRANCH   2  19
ATOM     19  C   UNL     1      86.274  54.750  43.497  0.00  0.00    -0.043 A 
ATOM     20  C   UNL     1      86.805  55.797  44.282  0.00  0.00    -0.058 A 
ATOM     21  C   UNL     1      86.141  57.024  44.371  0.00  0.00    -0.061 A 
ATOM     22  C   UNL     1      84.948  57.228  43.676  0.00  0.00    -0.062 A 
ATOM     23  C   UNL     1      84.418  56.207  42.886  0.00  0.00    -0.061 A 
ATOM     24  C   UNL     1      85.077  54.978  42.793  0.00  0.00    -0.058 A 
ENDBRANCH   2  19
BRANCH   4  25
ATOM     25  C   UNL     1      86.684  50.102  42.827  0.00  0.00    -0.039 C 
ATOM     26  C   UNL     1      85.981  48.981  43.036  0.00  0.00    -0.055 C 
BRANCH  26  27
ATOM     27  C   UNL     1      86.545  47.619  42.884  0.00  0.00    -0.025 A 
ATOM     28  C   UNL     1      85.979  46.492  43.516  0.00  0.00    -0.055 A 
ATOM     29  C   UNL     1      86.539  45.224  43.331  0.00  0.00    -0.061 A 
ATOM     30  C   UNL     1      87.657  45.064  42.511  0.00  0.00    -0.062 A 
ATOM     31  C   UNL     1      88.215  46.170  41.867  0.00  0.00    -0.061 A 
ATOM     32  C   UNL     1      87.660  47.441  42.047  0.00  0.00    -0.055 A 
ENDBRANCH  26  27
ENDBRANCH   4  25
BRANCH   9  33
ATOM     33  O   UNL     1      85.861  53.277  46.389  0.00  0.00    -0.499 OA
ATOM     34  C   UNL     1      85.067  54.185  47.146  0.00  0.00    +0.078 C 
ENDBRANCH   9  33
TORSDOF 6
ENDMDL
MODEL 5
REMARK VINA RESULT:   -10.375      3.924      7.645
REMARK INTER + INTRA:         -13.841
REMARK INTER:                 -13.123
REMARK INTRA:                  -0.718
REMARK UNBOUND:                 0.173
REMARK  Name = 
REMARK  8 active torsions:
REMARK  status: ('A' for Active; 'I' for Inactive)
REMARK    1  A    between atoms: C_1  and  O_2
REMARK    2  A    between atoms: O_2  and  C_3
REMARK    3  A    between atoms: C_8  and  C_10
REMARK    4  A    between atoms: C_11  and  C_12
REMARK    5  A    between atoms: C_19  and  C_20
REMARK    6  A    between atoms: C_21  and  C_22
REMARK    7  A    between atoms: C_32  and  O_33
REMARK    8  A    between atoms: O_33  and  C_34
REMARK                            x       y       z     vdW  Elec       q    Type
REMARK                         _______ _______ _______ _____ _____    ______ ____
ROOT
ATOM      1  C   UNL     1      84.135  50.635  43.850  0.00  0.00    +0.069 C 
ATOM      2  C   UNL     1      84.474  51.332  42.514  0.00  0.00    +0.012 C 
ATOM      3  C   UNL     1      85.829  50.599  42.472  0.00  0.00    +0.069 C 
ATOM      4  C   UNL     1      85.526  49.949  43.845  0.00  0.00    +0.153 C 
ATOM      5  O   UNL     1      86.327  50.430  44.929  0.00  0.00    -0.449 OA
ATOM      6  C   UNL     1      87.496  51.166  44.751  0.00  0.00    +0.336 C 
ATOM      7  O   UNL     1      88.231  51.413  45.742  0.00  0.00    -0.245 OA
ATOM      8  C   UNL     1      87.849  51.692  43.434  0.00  0.00    +0.060 C 
ATOM      9  C   UNL     1      87.063  51.468  42.370  0.00  0.00    +0.112 C 
ENDROOT
BRANCH   1  15
ATOM     10  C   UNL     1      80.591  49.356  43.298  0.00  0.00    +0.130 A 
ATOM     11  C   UNL     1      80.773  48.004  43.626  0.00  0.00    +0.065 A 
ATOM     12  C   UNL     1      82.045  47.566  44.005  0.00  0.00    +0.340 A 
ATOM     13  O   UNL     1      82.231  46.358  44.307  0.00  0.00    -0.245 OA
ATOM     14  O   UNL     1      83.063  48.419  44.051  0.00  0.00    -0.427 OA
ATOM     15  C   UNL     1      82.938  49.710  43.745  0.00  0.00    +0.120 A 
ATOM     16  C   UNL     1      81.689  50.216  43.360  0.00  0.00    +0.019 A 
BRANCH  10  18
ATOM     17  C   UNL     1      78.464  50.577  43.780  0.00  0.00    +0.079 C 
ATOM     18  O   UNL     1      79.349  49.878  42.910  0.00  0.00    -0.495 OA
ENDBRANCH  10  18
ENDBRANCH   1  15
BRANCH   2  19
ATOM     19  C   UNL     1      84.523  52.857  42.552  0.00  0.00    -0.043 A 
ATOM     20  C   UNL     1      84.367  53.656  41.398  0.00  0.00    -0.058 A 
ATOM     21  C   UNL     1      84.374  55.050  41.494  0.00  0.00    -0.061 A 
ATOM     22  C   UNL     1      84.530  55.667  42.737  0.00  0.00    -0.062 A 
ATOM     23  C   UNL     1      84.674  54.891  43.888  0.00  0.00    -0.061 A 
ATOM     24  C   UNL     1      84.667  53.496  43.798  0.00  0.00    -0.058 A 
ENDBRANCH   2  19
BRANCH   4  25
ATOM     25  C   UNL     1      85.551  48.435  43.823  0.00  0.00    -0.039 C 
ATOM     26  C   UNL     1      86.517  47.768  43.179  0.00  0.00    -0.055 C 
BRANCH  26  27
ATOM     27  C   UNL     1      86.616  46.290  43.154  0.00  0.00    -0.025 A 
ATOM     28  C   UNL     1      87.580  45.610  42.379  0.00  0.00    -0.055 A 
ATOM     29  C   UNL     1      87.644  44.214  42.399  0.00  0.00    -0.061 A 
ATOM     30  C   UNL     1      86.760  43.482  43.195  0.00  0.00    -0.062 A 
ATOM     31  C   UNL     1      85.814  44.145  43.979  0.00  0.00    -0.061 A 
ATOM     32  C   UNL     1      85.745  45.542  43.964  0.00  0.00    -0.055 A 
ENDBRANCH  26  27
ENDBRANCH   4  25
BRANCH   9  33
ATOM     33  O   UNL     1      87.340  52.024  41.111  0.00  0.00    -0.499 OA
ATOM     34  C   UNL     1      88.484  51.724  40.316  0.00  0.00    +0.078 C 
ENDBRANCH   9  33
TORSDOF 6
ENDMDL
MODEL 6
REMARK VINA RESULT:   -10.195      1.876      5.437
REMARK INTER + INTRA:         -13.598
REMARK INTER:                 -12.694
REMARK INTRA:                  -0.904
REMARK UNBOUND:                 0.173
REMARK  Name = 
REMARK  8 active torsions:
REMARK  status: ('A' for Active; 'I' for Inactive)
REMARK    1  A    between atoms: C_1  and  O_2
REMARK    2  A    between atoms: O_2  and  C_3
REMARK    3  A    between atoms: C_8  and  C_10
REMARK    4  A    between atoms: C_11  and  C_12
REMARK    5  A    between atoms: C_19  and  C_20
REMARK    6  A    between atoms: C_21  and  C_22
REMARK    7  A    between atoms: C_32  and  O_33
REMARK    8  A    between atoms: O_33  and  C_34
REMARK                            x       y       z     vdW  Elec       q    Type
REMARK                         _______ _______ _______ _____ _____    ______ ____
ROOT
ATOM      1  C   UNL     1      88.161  50.731  42.367  0.00  0.00    +0.069 C 
ATOM      2  C   UNL     1      87.235  49.518  42.129  0.00  0.00    +0.012 C 
ATOM      3  C   UNL     1      86.323  49.984  43.281  0.00  0.00    +0.069 C 
ATOM      4  C   UNL     1      87.282  51.165  43.570  0.00  0.00    +0.153 C 
ATOM      5  O   UNL     1      88.018  51.059  44.792  0.00  0.00    -0.449 OA
ATOM      6  C   UNL     1      87.692  50.165  45.810  0.00  0.00    +0.336 C 
ATOM      7  O   UNL     1      88.283  50.242  46.917  0.00  0.00    -0.245 OA
ATOM      8  C   UNL     1      86.704  49.111  45.582  0.00  0.00    +0.060 C 
ATOM      9  C   UNL     1      86.086  48.991  44.398  0.00  0.00    +0.112 C 
ENDROOT
BRANCH   1  15
ATOM     10  C   UNL     1      87.059  53.176  39.664  0.00  0.00    +0.130 A 
ATOM     11  C   UNL     1      88.283  53.369  39.005  0.00  0.00    +0.065 A 
ATOM     12  C   UNL     1      89.416  52.701  39.476  0.00  0.00    +0.340 A 
ATOM     13  O   UNL     1      90.524  52.857  38.899  0.00  0.00    -0.245 OA
ATOM     14  O   UNL     1      89.332  51.898  40.531  0.00  0.00    -0.427 OA
ATOM     15  C   UNL     1      88.192  51.687  41.190  0.00  0.00    +0.120 A 
ATOM     16  C   UNL     1      87.017  52.323  40.768  0.00  0.00    +0.019 A 
BRANCH  10  18
ATOM     17  C   UNL     1      84.701  53.908  40.056  0.00  0.00    +0.079 C 
ATOM     18  O   UNL     1      85.874  53.806  39.255  0.00  0.00    -0.495 OA
ENDBRANCH  10  18
ENDBRANCH   1  15
BRANCH   2  19
ATOM     19  C   UNL     1      87.885  48.145  42.286  0.00  0.00    -0.043 A 
ATOM     20  C   UNL     1      87.174  46.939  42.105  0.00  0.00    -0.058 A 
ATOM     21  C   UNL     1      87.827  45.707  42.214  0.00  0.00    -0.061 A 
ATOM     22  C   UNL     1      89.193  45.660  42.497  0.00  0.00    -0.062 A 
ATOM     23  C   UNL     1      89.911  46.845  42.666  0.00  0.00    -0.061 A 
ATOM     24  C   UNL     1      89.264  48.078  42.558  0.00  0.00    -0.058 A 
ENDBRANCH   2  19
BRANCH   4  25
ATOM     25  C   UNL     1      86.620  52.525  43.488  0.00  0.00    -0.039 C 
ATOM     26  C   UNL     1      86.713  53.401  44.496  0.00  0.00    -0.055 C 
BRANCH  26  27
ATOM     27  C   UNL     1      86.120  54.759  44.459  0.00  0.00    -0.025 A 
ATOM     28  C   UNL     1      85.505  55.283  43.303  0.00  0.00    -0.055 A 
ATOM     29  C   UNL     1      84.946  56.565  43.321  0.00  0.00    -0.061 A 
ATOM     30  C   UNL     1      84.984  57.331  44.488  0.00  0.00    -0.062 A 
ATOM     31  C   UNL     1      85.575  56.814  45.642  0.00  0.00    -0.061 A 
ATOM     32  C   UNL     1      86.135  55.533  45.632  0.00  0.00    -0.055 A 
ENDBRANCH  26  27
ENDBRANCH   4  25
BRANCH   9  33
ATOM     33  O   UNL     1      85.190  47.944  44.130  0.00  0.00    -0.499 OA
ATOM     34  C   UNL     1      83.881  48.103  43.589  0.00  0.00    +0.078 C 
ENDBRANCH   9  33
TORSDOF 6
ENDMDL
MODEL 7
REMARK VINA RESULT:   -10.006      3.519      7.809
REMARK INTER + INTRA:         -13.343
REMARK INTER:                 -12.170
REMARK INTRA:                  -1.173
REMARK UNBOUND:                 0.173
REMARK  Name = 
REMARK  8 active torsions:
REMARK  status: ('A' for Active; 'I' for Inactive)
REMARK    1  A    between atoms: C_1  and  O_2
REMARK    2  A    between atoms: O_2  and  C_3
REMARK    3  A    between atoms: C_8  and  C_10
REMARK    4  A    between atoms: C_11  and  C_12
REMARK    5  A    between atoms: C_19  and  C_20
REMARK    6  A    between atoms: C_21  and  C_22
REMARK    7  A    between atoms: C_32  and  O_33
REMARK    8  A    between atoms: O_33  and  C_34
REMARK                            x       y       z     vdW  Elec       q    Type
REMARK                         _______ _______ _______ _____ _____    ______ ____
ROOT
ATOM      1  C   UNL     1      84.413  51.210  44.490  0.00  0.00    +0.069 C 
ATOM      2  C   UNL     1      85.361  52.096  43.653  0.00  0.00    +0.012 C 
ATOM      3  C   UNL     1      86.409  50.967  43.638  0.00  0.00    +0.069 C 
ATOM      4  C   UNL     1      85.494  50.097  44.535  0.00  0.00    +0.153 C 
ATOM      5  O   UNL     1      85.965  49.908  45.873  0.00  0.00    -0.449 OA
ATOM      6  C   UNL     1      87.270  50.183  46.273  0.00  0.00    +0.336 C 
ATOM      7  O   UNL     1      87.653  49.840  47.421  0.00  0.00    -0.245 OA
ATOM      8  C   UNL     1      88.180  50.909  45.388  0.00  0.00    +0.060 C 
ATOM      9  C   UNL     1      87.782  51.313  44.173  0.00  0.00    +0.112 C 
ENDROOT
BRANCH   1  15
ATOM     10  C   UNL     1      81.338  49.315  43.286  0.00  0.00    +0.130 A 
ATOM     11  C   UNL     1      80.837  50.241  42.357  0.00  0.00    +0.065 A 
ATOM     12  C   UNL     1      81.519  51.447  42.171  0.00  0.00    +0.340 A 
ATOM     13  O   UNL     1      81.090  52.291  41.342  0.00  0.00    -0.245 OA
ATOM     14  O   UNL     1      82.622  51.708  42.863  0.00  0.00    -0.427 OA
ATOM     15  C   UNL     1      83.132  50.861  43.757  0.00  0.00    +0.120 A 
ATOM     16  C   UNL     1      82.500  49.632  43.991  0.00  0.00    +0.019 A 
BRANCH  10  18
ATOM     17  C   UNL     1      81.092  47.188  44.574  0.00  0.00    +0.079 C 
ATOM     18  O   UNL     1      80.717  48.082  43.532  0.00  0.00    -0.495 OA
ENDBRANCH  10  18
ENDBRANCH   1  15
BRANCH   2  19
ATOM     19  C   UNL     1      85.785  53.413  44.299  0.00  0.00    -0.043 A 
ATOM     20  C   UNL     1      85.766  53.619  45.696  0.00  0.00    -0.058 A 
ATOM     21  C   UNL     1      86.209  54.828  46.240  0.00  0.00    -0.061 A 
ATOM     22  C   UNL     1      86.680  55.843  45.406  0.00  0.00    -0.062 A 
ATOM     23  C   UNL     1      86.715  55.649  44.024  0.00  0.00    -0.061 A 
ATOM     24  C   UNL     1      86.275  54.442  43.474  0.00  0.00    -0.058 A 
ENDBRANCH   2  19
BRANCH   4  25
ATOM     25  C   UNL     1      85.134  48.758  43.925  0.00  0.00    -0.039 C 
ATOM     26  C   UNL     1      85.967  47.713  44.011  0.00  0.00    -0.055 C 
BRANCH  26  27
ATOM     27  C   UNL     1      85.655  46.370  43.469  0.00  0.00    -0.025 A 
ATOM     28  C   UNL     1      84.413  45.737  43.686  0.00  0.00    -0.055 A 
ATOM     29  C   UNL     1      84.160  44.474  43.142  0.00  0.00    -0.061 A 
ATOM     30  C   UNL     1      85.132  43.836  42.369  0.00  0.00    -0.062 A 
ATOM     31  C   UNL     1      86.357  44.460  42.133  0.00  0.00    -0.061 A 
ATOM     32  C   UNL     1      86.618  45.723  42.675  0.00  0.00    -0.055 A 
ENDBRANCH  26  27
ENDBRANCH   4  25
BRANCH   9  33
ATOM     33  O   UNL     1      88.611  52.076  43.335  0.00  0.00    -0.499 OA
ATOM     34  C   UNL     1      88.667  51.963  41.915  0.00  0.00    +0.078 C 
ENDBRANCH   9  33
TORSDOF 6
ENDMDL
MODEL 8
REMARK VINA RESULT:    -9.899      0.706      1.999
REMARK INTER + INTRA:         -13.198
REMARK INTER:                 -11.538
REMARK INTRA:                  -1.660
REMARK UNBOUND:                 0.173
REMARK  Name = 
REMARK  8 active torsions:
REMARK  status: ('A' for Active; 'I' for Inactive)
REMARK    1  A    between atoms: C_1  and  O_2
REMARK    2  A    between atoms: O_2  and  C_3
REMARK    3  A    between atoms: C_8  and  C_10
REMARK    4  A    between atoms: C_11  and  C_12
REMARK    5  A    between atoms: C_19  and  C_20
REMARK    6  A    between atoms: C_21  and  C_22
REMARK    7  A    between atoms: C_32  and  O_33
REMARK    8  A    between atoms: O_33  and  C_34
REMARK                            x       y       z     vdW  Elec       q    Type
REMARK                         _______ _______ _______ _____ _____    ______ ____
ROOT
ATOM      1  C   UNL     1      86.621  51.635  43.939  0.00  0.00    +0.069 C 
ATOM      2  C   UNL     1      88.091  51.342  43.570  0.00  0.00    +0.012 C 
ATOM      3  C   UNL     1      88.191  52.710  42.868  0.00  0.00    +0.069 C 
ATOM      4  C   UNL     1      86.697  52.983  43.175  0.00  0.00    +0.153 C 
ATOM      5  O   UNL     1      85.834  52.962  42.034  0.00  0.00    -0.449 OA
ATOM      6  C   UNL     1      86.295  53.024  40.721  0.00  0.00    +0.336 C 
ATOM      7  O   UNL     1      85.473  53.165  39.780  0.00  0.00    -0.245 OA
ATOM      8  C   UNL     1      87.720  52.878  40.428  0.00  0.00    +0.060 C 
ATOM      9  C   UNL     1      88.610  52.694  41.414  0.00  0.00    +0.112 C 
ENDROOT
BRANCH   1  15
ATOM     10  C   UNL     1      86.994  51.110  47.692  0.00  0.00    +0.130 A 
ATOM     11  C   UNL     1      85.920  51.889  48.149  0.00  0.00    +0.065 A 
ATOM     12  C   UNL     1      85.125  52.559  47.214  0.00  0.00    +0.340 A 
ATOM     13  O   UNL     1      84.154  53.260  47.600  0.00  0.00    -0.245 OA
ATOM     14  O   UNL     1      85.387  52.457  45.916  0.00  0.00    -0.427 OA
ATOM     15  C   UNL     1      86.398  51.733  45.436  0.00  0.00    +0.120 A 
ATOM     16  C   UNL     1      87.232  51.033  46.319  0.00  0.00    +0.019 A 
BRANCH  10  18
ATOM     17  C   UNL     1      89.041  49.756  48.163  0.00  0.00    +0.079 C 
ATOM     18  O   UNL     1      87.839  50.405  48.562  0.00  0.00    -0.495 OA
ENDBRANCH  10  18
ENDBRANCH   1  15
BRANCH   2  19
ATOM     19  C   UNL     1      88.326  50.109  42.699  0.00  0.00    -0.043 A 
ATOM     20  C   UNL     1      89.608  49.558  42.485  0.00  0.00    -0.058 A 
ATOM     21  C   UNL     1      89.763  48.401  41.718  0.00  0.00    -0.061 A 
ATOM     22  C   UNL     1      88.648  47.773  41.160  0.00  0.00    -0.062 A 
ATOM     23  C   UNL     1      87.373  48.300  41.373  0.00  0.00    -0.061 A 
ATOM     24  C   UNL     1      87.211  49.456  42.140  0.00  0.00    -0.058 A 
ENDBRANCH   2  19
BRANCH   4  25
ATOM     25  C   UNL     1      86.459  54.246  43.975  0.00  0.00    -0.039 C 
ATOM     26  C   UNL     1      85.420  55.048  43.707  0.00  0.00    -0.055 C 
BRANCH  26  27
ATOM     27  C   UNL     1      85.113  56.275  44.478  0.00  0.00    -0.025 A 
ATOM     28  C   UNL     1      84.396  56.245  45.693  0.00  0.00    -0.055 A 
ATOM     29  C   UNL     1      84.143  57.429  46.393  0.00  0.00    -0.061 A 
ATOM     30  C   UNL     1      84.607  58.649  45.898  0.00  0.00    -0.062 A 
ATOM     31  C   UNL     1      85.332  58.689  44.706  0.00  0.00    -0.061 A 
ATOM     32  C   UNL     1      85.590  57.509  44.002  0.00  0.00    -0.055 A 
ENDBRANCH  26  27
ENDBRANCH   4  25
BRANCH   9  33
ATOM     33  O   UNL     1      89.973  52.476  41.154  0.00  0.00    -0.499 OA
ATOM     34  C   UNL     1      90.745  53.182  40.187  0.00  0.00    +0.078 C 
ENDBRANCH   9  33
TORSDOF 6
ENDMDL
MODEL 9
REMARK VINA RESULT:    -9.408      2.349      6.792
REMARK INTER + INTRA:         -12.535
REMARK INTER:                 -12.708
REMARK INTRA:                   0.173
REMARK UNBOUND:                 0.173
REMARK  Name = 
REMARK  8 active torsions:
REMARK  status: ('A' for Active; 'I' for Inactive)
REMARK    1  A    between atoms: C_1  and  O_2
REMARK    2  A    between atoms: O_2  and  C_3
REMARK    3  A    between atoms: C_8  and  C_10
REMARK    4  A    between atoms: C_11  and  C_12
REMARK    5  A    between atoms: C_19  and  C_20
REMARK    6  A    between atoms: C_21  and  C_22
REMARK    7  A    between atoms: C_32  and  O_33
REMARK    8  A    between atoms: O_33  and  C_34
REMARK                            x       y       z     vdW  Elec       q    Type
REMARK                         _______ _______ _______ _____ _____    ______ ____
ROOT
ATOM      1  C   UNL     1      85.008  53.216  44.877  0.00  0.00    +0.069 C 
ATOM      2  C   UNL     1      85.920  53.216  46.123  0.00  0.00    +0.012 C 
ATOM      3  C   UNL     1      86.855  52.197  45.443  0.00  0.00    +0.069 C 
ATOM      4  C   UNL     1      85.909  52.139  44.217  0.00  0.00    +0.153 C 
ATOM      5  O   UNL     1      85.194  50.910  44.066  0.00  0.00    -0.449 OA
ATOM      6  C   UNL     1      85.530  49.737  44.738  0.00  0.00    +0.336 C 
ATOM      7  O   UNL     1      84.959  48.660  44.431  0.00  0.00    -0.245 OA
ATOM      8  C   UNL     1      86.506  49.761  45.826  0.00  0.00    +0.060 C 
ATOM      9  C   UNL     1      87.104  50.905  46.191  0.00  0.00    +0.112 C 
ENDROOT
BRANCH   1  15
ATOM     10  C   UNL     1      85.219  56.963  44.234  0.00  0.00    +0.130 A 
ATOM     11  C   UNL     1      84.809  56.997  42.892  0.00  0.00    +0.065 A 
ATOM     12  C   UNL     1      84.490  55.796  42.252  0.00  0.00    +0.340 A 
ATOM     13  O   UNL     1      84.118  55.803  41.050  0.00  0.00    -0.245 OA
ATOM     14  O   UNL     1      84.576  54.644  42.907  0.00  0.00    -0.427 OA
ATOM     15  C   UNL     1      84.963  54.562  44.181  0.00  0.00    +0.120 A 
ATOM     16  C   UNL     1      85.295  55.730  44.882  0.00  0.00    +0.019 A 
BRANCH  10  18
ATOM     17  C   UNL     1      84.673  58.801  45.837  0.00  0.00    +0.079 C 
ATOM     18  O   UNL     1      85.555  58.121  44.950  0.00  0.00    -0.495 OA
ENDBRANCH  10  18
ENDBRANCH   1  15
BRANCH   2  19
ATOM     19  C   UNL     1      85.263  52.774  47.429  0.00  0.00    -0.043 A 
ATOM     20  C   UNL     1      85.986  52.175  48.483  0.00  0.00    -0.058 A 
ATOM     21  C   UNL     1      85.345  51.831  49.677  0.00  0.00    -0.061 A 
ATOM     22  C   UNL     1      83.982  52.084  49.840  0.00  0.00    -0.062 A 
ATOM     23  C   UNL     1      83.257  52.686  48.811  0.00  0.00    -0.061 A 
ATOM     24  C   UNL     1      83.892  53.033  47.615  0.00  0.00    -0.058 A 
ENDBRANCH   2  19
BRANCH   4  25
ATOM     25  C   UNL     1      86.581  52.506  42.910  0.00  0.00    -0.039 C 
ATOM     26  C   UNL     1      87.871  52.223  42.693  0.00  0.00    -0.055 C 
BRANCH  26  27
ATOM     27  C   UNL     1      88.573  52.521  41.422  0.00  0.00    -0.025 A 
ATOM     28  C   UNL     1      89.891  53.022  41.387  0.00  0.00    -0.055 A 
ATOM     29  C   UNL     1      90.518  53.275  40.163  0.00  0.00    -0.061 A 
ATOM     30  C   UNL     1      89.845  53.022  38.965  0.00  0.00    -0.062 A 
ATOM     31  C   UNL     1      88.547  52.509  38.989  0.00  0.00    -0.061 A 
ATOM     32  C   UNL     1      87.915  52.254  40.210  0.00  0.00    -0.055 A 
ENDBRANCH  26  27
ENDBRANCH   4  25
BRANCH   9  33
ATOM     33  O   UNL     1      87.987  50.968  47.281  0.00  0.00    -0.499 OA
ATOM     34  C   UNL     1      88.773  49.881  47.762  0.00  0.00    +0.078 C 
ENDBRANCH   9  33
TORSDOF 6
ENDMDL
