MODEL 1
REMARK VINA RESULT:    -8.965      0.000      0.000
REMARK INTER + INTRA:          -9.937
REMARK INTER:                  -9.741
REMARK INTRA:                  -0.196
REMARK UNBOUND:                 0.077
REMARK  Name = 
REMARK  6 active torsions:
REMARK  status: ('A' for Active; 'I' for Inactive)
REMARK    1  A    between atoms: C_1  and  O_2
REMARK    2  A    between atoms: O_2  and  C_3
REMARK    3  A    between atoms: C_4  and  C_5
REMARK    4  A    between atoms: C_8  and  C_22
REMARK    5  A    between atoms: C_8  and  C_23
REMARK    6  A    between atoms: C_14  and  C_16
REMARK                            x       y       z     vdW  Elec       q    Type
REMARK                         _______ _______ _______ _____ _____    ______ ____
ROOT
ATOM      1  C   UNL     1      85.318  54.440  42.169  0.00  0.00    +0.140 C 
ATOM      2  C   UNL     1      84.981  54.947  43.369  0.00  0.00    +0.035 C 
ATOM      3  C   UNL     1      84.163  56.211  43.456  0.00  0.00    -0.033 C 
ATOM      4  C   UNL     1      85.320  54.212  44.611  0.00  0.00    +0.175 C 
ATOM      5  O   UNL     1      85.082  54.748  45.729  0.00  0.00    -0.291 OA
ATOM      6  C   UNL     1      85.848  52.787  44.572  0.00  0.00    +0.086 C 
ATOM      7  C   UNL     1      86.420  52.433  43.210  0.00  0.00    +0.133 A 
ATOM      8  C   UNL     1      86.160  53.216  42.065  0.00  0.00    +0.103 A 
ATOM      9  C   UNL     1      86.738  52.808  40.845  0.00  0.00    +0.196 A 
ATOM     10  O   UNL     1      86.587  53.482  39.792  0.00  0.00    -0.287 OA
ATOM     11  C   UNL     1      87.503  51.645  40.796  0.00  0.00    +0.029 A 
ATOM     12  C   UNL     1      87.702  50.905  41.969  0.00  0.00    +0.139 A 
ATOM     13  O   UNL     1      87.155  51.327  43.105  0.00  0.00    -0.458 OA
ATOM     14  C   UNL     1      86.953  52.623  45.639  0.00  0.00    -0.046 C 
ATOM     15  C   UNL     1      84.688  51.825  44.878  0.00  0.00    -0.046 C 
ENDROOT
BRANCH  12  16
ATOM     16  C   UNL     1      88.499  49.652  41.985  0.00  0.00    +0.017 A 
ATOM     17  C   UNL     1      89.893  49.722  42.158  0.00  0.00    -0.051 A 
ATOM     18  C   UNL     1      90.668  48.559  42.168  0.00  0.00    -0.061 A 
ATOM     19  C   UNL     1      90.062  47.312  41.999  0.00  0.00    -0.062 A 
ATOM     20  C   UNL     1      88.681  47.227  41.812  0.00  0.00    -0.061 A 
ATOM     21  C   UNL     1      87.900  48.388  41.801  0.00  0.00    -0.051 A 
ENDBRANCH  12  16
BRANCH   1  23
ATOM     22  C   UNL     1      83.603  54.787  40.445  0.00  0.00    +0.079 C 
ATOM     23  O   UNL     1      84.874  55.081  41.008  0.00  0.00    -0.494 OA
ENDBRANCH   1  23
TORSDOF 2
ENDMDL
MODEL 2
REMARK VINA RESULT:    -8.696      1.481      1.747
REMARK INTER + INTRA:          -9.636
REMARK INTER:                  -9.443
REMARK INTRA:                  -0.193
REMARK UNBOUND:                 0.077
REMARK  Name = 
REMARK  6 active torsions:
REMARK  status: ('A' for Active; 'I' for Inactive)
REMARK    1  A    between atoms: C_1  and  O_2
REMARK    2  A    between atoms: O_2  and  C_3
REMARK    3  A    between atoms: C_4  and  C_5
REMARK    4  A    between atoms: C_8  and  C_22
REMARK    5  A    between atoms: C_8  and  C_23
REMARK    6  A    between atoms: C_14  and  C_16
REMARK                            x       y       z     vdW  Elec       q    Type
REMARK                         _______ _______ _______ _____ _____    ______ ____
ROOT
ATOM      1  C   UNL     1      86.465  54.120  43.850  0.00  0.00    +0.140 C 
ATOM      2  C   UNL     1      86.093  54.448  45.101  0.00  0.00    +0.035 C 
ATOM      3  C   UNL     1      85.447  55.784  45.374  0.00  0.00    -0.033 C 
ATOM      4  C   UNL     1      86.219  53.461  46.200  0.00  0.00    +0.175 C 
ATOM      5  O   UNL     1      85.956  53.818  47.381  0.00  0.00    -0.291 OA
ATOM      6  C   UNL     1      86.554  52.005  45.924  0.00  0.00    +0.086 C 
ATOM      7  C   UNL     1      87.192  51.819  44.558  0.00  0.00    +0.133 A 
ATOM      8  C   UNL     1      87.142  52.824  43.568  0.00  0.00    +0.103 A 
ATOM      9  C   UNL     1      87.767  52.560  42.332  0.00  0.00    +0.196 A 
ATOM     10  O   UNL     1      87.801  53.426  41.418  0.00  0.00    -0.287 OA
ATOM     11  C   UNL     1      88.371  51.324  42.111  0.00  0.00    +0.029 A 
ATOM     12  C   UNL     1      88.364  50.365  43.132  0.00  0.00    +0.139 A 
ATOM     13  O   UNL     1      87.779  50.653  44.291  0.00  0.00    -0.458 OA
ATOM     14  C   UNL     1      87.527  51.490  47.007  0.00  0.00    -0.046 C 
ATOM     15  C   UNL     1      85.253  51.185  45.968  0.00  0.00    -0.046 C 
ENDROOT
BRANCH  12  16
ATOM     16  C   UNL     1      88.982  49.026  42.961  0.00  0.00    +0.017 A 
ATOM     17  C   UNL     1      90.242  48.768  43.530  0.00  0.00    -0.051 A 
ATOM     18  C   UNL     1      90.850  47.519  43.377  0.00  0.00    -0.061 A 
ATOM     19  C   UNL     1      90.212  46.514  42.646  0.00  0.00    -0.062 A 
ATOM     20  C   UNL     1      88.967  46.760  42.063  0.00  0.00    -0.061 A 
ATOM     21  C   UNL     1      88.354  48.008  42.214  0.00  0.00    -0.051 A 
ENDBRANCH  12  16
BRANCH   1  23
ATOM     22  C   UNL     1      84.966  55.031  42.130  0.00  0.00    +0.079 C 
ATOM     23  O   UNL     1      86.216  55.017  42.806  0.00  0.00    -0.494 OA
ENDBRANCH   1  23
TORSDOF 2
ENDMDL
MODEL 3
REMARK VINA RESULT:    -8.615      2.219      4.389
REMARK INTER + INTRA:          -9.545
REMARK INTER:                  -9.622
REMARK INTRA:                   0.077
REMARK UNBOUND:                 0.077
REMARK  Name = 
REMARK  6 active torsions:
REMARK  status: ('A' for Active; 'I' for Inactive)
REMARK    1  A    between atoms: C_1  and  O_2
REMARK    2  A    between atoms: O_2  and  C_3
REMARK    3  A    between atoms: C_4  and  C_5
REMARK    4  A    between atoms: C_8  and  C_22
REMARK    5  A    between atoms: C_8  and  C_23
REMARK    6  A    between atoms: C_14  and  C_16
REMARK                            x       y       z     vdW  Elec       q    Type
REMARK                         _______ _______ _______ _____ _____    ______ ____
ROOT
ATOM      1  C   UNL     1      85.373  54.094  47.242  0.00  0.00    +0.140 C 
ATOM      2  C   UNL     1      84.710  55.164  46.768  0.00  0.00    +0.035 C 
ATOM      3  C   UNL     1      83.913  56.039  47.705  0.00  0.00    -0.033 C 
ATOM      4  C   UNL     1      84.840  55.552  45.343  0.00  0.00    +0.175 C 
ATOM      5  O   UNL     1      84.136  56.499  44.896  0.00  0.00    -0.291 OA
ATOM      6  C   UNL     1      85.876  54.908  44.437  0.00  0.00    +0.086 C 
ATOM      7  C   UNL     1      86.362  53.579  44.988  0.00  0.00    +0.133 A 
ATOM      8  C   UNL     1      86.130  53.196  46.326  0.00  0.00    +0.103 A 
ATOM      9  C   UNL     1      86.617  51.941  46.744  0.00  0.00    +0.196 A 
ATOM     10  O   UNL     1      86.409  51.513  47.910  0.00  0.00    -0.287 OA
ATOM     11  C   UNL     1      87.336  51.145  45.854  0.00  0.00    +0.029 A 
ATOM     12  C   UNL     1      87.548  51.599  44.546  0.00  0.00    +0.139 A 
ATOM     13  O   UNL     1      87.060  52.782  44.181  0.00  0.00    -0.458 OA
ATOM     14  C   UNL     1      85.259  54.678  43.040  0.00  0.00    -0.046 C 
ATOM     15  C   UNL     1      87.081  55.857  44.319  0.00  0.00    -0.046 C 
ENDROOT
BRANCH  12  16
ATOM     16  C   UNL     1      88.311  50.806  43.549  0.00  0.00    +0.017 A 
ATOM     17  C   UNL     1      88.721  49.500  43.873  0.00  0.00    -0.051 A 
ATOM     18  C   UNL     1      89.448  48.734  42.957  0.00  0.00    -0.061 A 
ATOM     19  C   UNL     1      89.783  49.266  41.710  0.00  0.00    -0.062 A 
ATOM     20  C   UNL     1      89.396  50.567  41.380  0.00  0.00    -0.061 A 
ATOM     21  C   UNL     1      88.668  51.337  42.293  0.00  0.00    -0.051 A 
ENDBRANCH  12  16
BRANCH   1  23
ATOM     22  C   UNL     1      84.190  53.259  49.227  0.00  0.00    +0.079 C 
ATOM     23  O   UNL     1      85.342  53.823  48.614  0.00  0.00    -0.494 OA
ENDBRANCH   1  23
TORSDOF 2
ENDMDL
MODEL 4
REMARK VINA RESULT:    -8.549      2.302      7.193
REMARK INTER + INTRA:          -9.472
REMARK INTER:                  -9.225
REMARK INTRA:                  -0.247
REMARK UNBOUND:                 0.077
REMARK  Name = 
REMARK  6 active torsions:
REMARK  status: ('A' for Active; 'I' for Inactive)
REMARK    1  A    between atoms: C_1  and  O_2
REMARK    2  A    between atoms: O_2  and  C_3
REMARK    3  A    between atoms: C_4  and  C_5
REMARK    4  A    between atoms: C_8  and  C_22
REMARK    5  A    between atoms: C_8  and  C_23
REMARK    6  A    between atoms: C_14  and  C_16
REMARK                            x       y       z     vdW  Elec       q    Type
REMARK                         _______ _______ _______ _____ _____    ______ ____
ROOT
ATOM      1  C   UNL     1      87.591  50.333  44.471  0.00  0.00    +0.140 C 
ATOM      2  C   UNL     1      88.286  50.004  43.368  0.00  0.00    +0.035 C 
ATOM      3  C   UNL     1      88.747  48.582  43.157  0.00  0.00    -0.033 C 
ATOM      4  C   UNL     1      88.515  51.009  42.302  0.00  0.00    +0.175 C 
ATOM      5  O   UNL     1      89.251  50.710  41.322  0.00  0.00    -0.291 OA
ATOM      6  C   UNL     1      87.802  52.350  42.310  0.00  0.00    +0.086 C 
ATOM      7  C   UNL     1      87.273  52.702  43.689  0.00  0.00    +0.133 A 
ATOM      8  C   UNL     1      87.165  51.739  44.715  0.00  0.00    +0.103 A 
ATOM      9  C   UNL     1      86.665  52.163  45.964  0.00  0.00    +0.196 A 
ATOM     10  O   UNL     1      86.582  51.369  46.939  0.00  0.00    -0.287 OA
ATOM     11  C   UNL     1      86.262  53.485  46.136  0.00  0.00    +0.029 A 
ATOM     12  C   UNL     1      86.377  54.382  45.066  0.00  0.00    +0.139 A 
ATOM     13  O   UNL     1      86.868  53.952  43.907  0.00  0.00    -0.458 OA
ATOM     14  C   UNL     1      88.782  53.453  41.851  0.00  0.00    -0.046 C 
ATOM     15  C   UNL     1      86.613  52.279  41.336  0.00  0.00    -0.046 C 
ENDROOT
BRANCH  12  16
ATOM     16  C   UNL     1      85.959  55.803  45.179  0.00  0.00    +0.017 A 
ATOM     17  C   UNL     1      85.090  56.187  46.216  0.00  0.00    -0.051 A 
ATOM     18  C   UNL     1      84.673  57.515  46.340  0.00  0.00    -0.061 A 
ATOM     19  C   UNL     1      85.113  58.475  45.426  0.00  0.00    -0.062 A 
ATOM     20  C   UNL     1      85.965  58.107  44.383  0.00  0.00    -0.061 A 
ATOM     21  C   UNL     1      86.385  56.778  44.254  0.00  0.00    -0.051 A 
ENDBRANCH  12  16
BRANCH   1  23
ATOM     22  C   UNL     1      86.072  48.585  45.293  0.00  0.00    +0.079 C 
ATOM     23  O   UNL     1      87.273  49.338  45.401  0.00  0.00    -0.494 OA
ENDBRANCH   1  23
TORSDOF 2
ENDMDL
MODEL 5
REMARK VINA RESULT:    -8.313      2.497      6.550
REMARK INTER + INTRA:          -9.208
REMARK INTER:                  -8.959
REMARK INTRA:                  -0.250
REMARK UNBOUND:                 0.077
REMARK  Name = 
REMARK  6 active torsions:
REMARK  status: ('A' for Active; 'I' for Inactive)
REMARK    1  A    between atoms: C_1  and  O_2
REMARK    2  A    between atoms: O_2  and  C_3
REMARK    3  A    between atoms: C_4  and  C_5
REMARK    4  A    between atoms: C_8  and  C_22
REMARK    5  A    between atoms: C_8  and  C_23
REMARK    6  A    between atoms: C_14  and  C_16
REMARK                            x       y       z     vdW  Elec       q    Type
REMARK                         _______ _______ _______ _____ _____    ______ ____
ROOT
ATOM      1  C   UNL     1      87.808  51.294  42.305  0.00  0.00    +0.140 C 
ATOM      2  C   UNL     1      87.928  49.955  42.363  0.00  0.00    +0.035 C 
ATOM      3  C   UNL     1      88.653  49.210  41.270  0.00  0.00    -0.033 C 
ATOM      4  C   UNL     1      87.442  49.213  43.551  0.00  0.00    +0.175 C 
ATOM      5  O   UNL     1      87.475  47.951  43.546  0.00  0.00    -0.291 OA
ATOM      6  C   UNL     1      87.005  49.936  44.814  0.00  0.00    +0.086 C 
ATOM      7  C   UNL     1      86.669  51.393  44.545  0.00  0.00    +0.133 A 
ATOM      8  C   UNL     1      87.060  52.041  43.354  0.00  0.00    +0.103 A 
ATOM      9  C   UNL     1      86.700  53.394  43.194  0.00  0.00    +0.196 A 
ATOM     10  O   UNL     1      86.975  54.024  42.139  0.00  0.00    -0.287 OA
ATOM     11  C   UNL     1      86.016  54.055  44.213  0.00  0.00    +0.029 A 
ATOM     12  C   UNL     1      85.680  53.354  45.379  0.00  0.00    +0.139 A 
ATOM     13  O   UNL     1      86.022  52.073  45.489  0.00  0.00    -0.458 OA
ATOM     14  C   UNL     1      85.759  49.234  45.399  0.00  0.00    -0.046 C 
ATOM     15  C   UNL     1      88.155  49.881  45.834  0.00  0.00    -0.046 C 
ENDROOT
BRANCH  12  16
ATOM     16  C   UNL     1      84.959  53.998  46.506  0.00  0.00    +0.017 A 
ATOM     17  C   UNL     1      84.310  53.194  47.461  0.00  0.00    -0.051 A 
ATOM     18  C   UNL     1      83.617  53.774  48.527  0.00  0.00    -0.061 A 
ATOM     19  C   UNL     1      83.556  55.165  48.649  0.00  0.00    -0.062 A 
ATOM     20  C   UNL     1      84.183  55.976  47.701  0.00  0.00    -0.061 A 
ATOM     21  C   UNL     1      84.879  55.400  46.632  0.00  0.00    -0.051 A 
ENDBRANCH  12  16
BRANCH   1  23
ATOM     22  C   UNL     1      89.743  52.419  41.292  0.00  0.00    +0.079 C 
ATOM     23  O   UNL     1      88.390  51.986  41.239  0.00  0.00    -0.494 OA
ENDBRANCH   1  23
TORSDOF 2
ENDMDL
MODEL 6
REMARK VINA RESULT:    -8.101      3.641      5.187
REMARK INTER + INTRA:          -8.972
REMARK INTER:                  -9.092
REMARK INTRA:                   0.120
REMARK UNBOUND:                 0.077
REMARK  Name = 
REMARK  6 active torsions:
REMARK  status: ('A' for Active; 'I' for Inactive)
REMARK    1  A    between atoms: C_1  and  O_2
REMARK    2  A    between atoms: O_2  and  C_3
REMARK    3  A    between atoms: C_4  and  C_5
REMARK    4  A    between atoms: C_8  and  C_22
REMARK    5  A    between atoms: C_8  and  C_23
REMARK    6  A    between atoms: C_14  and  C_16
REMARK                            x       y       z     vdW  Elec       q    Type
REMARK                         _______ _______ _______ _____ _____    ______ ____
ROOT
ATOM      1  C   UNL     1      84.116  54.156  43.049  0.00  0.00    +0.140 C 
ATOM      2  C   UNL     1      85.218  54.424  43.772  0.00  0.00    +0.035 C 
ATOM      3  C   UNL     1      85.924  55.749  43.616  0.00  0.00    -0.033 C 
ATOM      4  C   UNL     1      85.687  53.466  44.802  0.00  0.00    +0.175 C 
ATOM      5  O   UNL     1      86.775  53.690  45.401  0.00  0.00    -0.291 OA
ATOM      6  C   UNL     1      84.839  52.279  45.226  0.00  0.00    +0.086 C 
ATOM      7  C   UNL     1      83.781  51.940  44.191  0.00  0.00    +0.133 A 
ATOM      8  C   UNL     1      83.431  52.838  43.160  0.00  0.00    +0.103 A 
ATOM      9  C   UNL     1      82.439  52.432  42.244  0.00  0.00    +0.196 A 
ATOM     10  O   UNL     1      82.108  53.162  41.272  0.00  0.00    -0.287 OA
ATOM     11  C   UNL     1      81.815  51.196  42.401  0.00  0.00    +0.029 A 
ATOM     12  C   UNL     1      82.197  50.365  43.462  0.00  0.00    +0.139 A 
ATOM     13  O   UNL     1      83.148  50.773  44.298  0.00  0.00    -0.458 OA
ATOM     14  C   UNL     1      85.749  51.049  45.436  0.00  0.00    -0.046 C 
ATOM     15  C   UNL     1      84.133  52.629  46.548  0.00  0.00    -0.046 C 
ENDROOT
BRANCH  12  16
ATOM     16  C   UNL     1      81.568  49.040  43.692  0.00  0.00    +0.017 A 
ATOM     17  C   UNL     1      82.367  47.882  43.670  0.00  0.00    -0.051 A 
ATOM     18  C   UNL     1      81.798  46.621  43.875  0.00  0.00    -0.061 A 
ATOM     19  C   UNL     1      80.424  46.500  44.096  0.00  0.00    -0.062 A 
ATOM     20  C   UNL     1      79.617  47.639  44.107  0.00  0.00    -0.061 A 
ATOM     21  C   UNL     1      80.180  48.903  43.902  0.00  0.00    -0.051 A 
ENDBRANCH  12  16
BRANCH   1  23
ATOM     22  C   UNL     1      84.249  55.400  40.935  0.00  0.00    +0.079 C 
ATOM     23  O   UNL     1      83.616  55.129  42.179  0.00  0.00    -0.494 OA
ENDBRANCH   1  23
TORSDOF 2
ENDMDL
MODEL 7
REMARK VINA RESULT:    -8.100      3.759      5.955
REMARK INTER + INTRA:          -8.970
REMARK INTER:                  -8.732
REMARK INTRA:                  -0.238
REMARK UNBOUND:                 0.077
REMARK  Name = 
REMARK  6 active torsions:
REMARK  status: ('A' for Active; 'I' for Inactive)
REMARK    1  A    between atoms: C_1  and  O_2
REMARK    2  A    between atoms: O_2  and  C_3
REMARK    3  A    between atoms: C_4  and  C_5
REMARK    4  A    between atoms: C_8  and  C_22
REMARK    5  A    between atoms: C_8  and  C_23
REMARK    6  A    between atoms: C_14  and  C_16
REMARK                            x       y       z     vdW  Elec       q    Type
REMARK                         _______ _______ _______ _____ _____    ______ ____
ROOT
ATOM      1  C   UNL     1      85.868  52.130  42.661  0.00  0.00    +0.140 C 
ATOM      2  C   UNL     1      87.132  51.691  42.802  0.00  0.00    +0.035 C 
ATOM      3  C   UNL     1      88.291  52.592  42.452  0.00  0.00    -0.033 C 
ATOM      4  C   UNL     1      87.398  50.361  43.398  0.00  0.00    +0.175 C 
ATOM      5  O   UNL     1      88.582  49.927  43.433  0.00  0.00    -0.291 OA
ATOM      6  C   UNL     1      86.295  49.554  44.064  0.00  0.00    +0.086 C 
ATOM      7  C   UNL     1      84.915  50.010  43.622  0.00  0.00    +0.133 A 
ATOM      8  C   UNL     1      84.712  51.241  42.962  0.00  0.00    +0.103 A 
ATOM      9  C   UNL     1      83.394  51.576  42.588  0.00  0.00    +0.196 A 
ATOM     10  O   UNL     1      83.143  52.636  41.956  0.00  0.00    -0.287 OA
ATOM     11  C   UNL     1      82.344  50.718  42.909  0.00  0.00    +0.029 A 
ATOM     12  C   UNL     1      82.617  49.522  43.585  0.00  0.00    +0.139 A 
ATOM     13  O   UNL     1      83.874  49.231  43.909  0.00  0.00    -0.458 OA
ATOM     14  C   UNL     1      86.469  48.061  43.708  0.00  0.00    -0.046 C 
ATOM     15  C   UNL     1      86.404  49.738  45.587  0.00  0.00    -0.046 C 
ENDROOT
BRANCH  12  16
ATOM     16  C   UNL     1      81.545  48.567  43.965  0.00  0.00    +0.017 A 
ATOM     17  C   UNL     1      81.814  47.187  43.956  0.00  0.00    -0.051 A 
ATOM     18  C   UNL     1      80.821  46.266  44.301  0.00  0.00    -0.061 A 
ATOM     19  C   UNL     1      79.544  46.711  44.650  0.00  0.00    -0.062 A 
ATOM     20  C   UNL     1      79.257  48.078  44.649  0.00  0.00    -0.061 A 
ATOM     21  C   UNL     1      80.248  49.004  44.305  0.00  0.00    -0.051 A 
ENDBRANCH  12  16
BRANCH   1  23
ATOM     22  C   UNL     1      85.609  54.528  43.132  0.00  0.00    +0.079 C 
ATOM     23  O   UNL     1      85.644  53.438  42.220  0.00  0.00    -0.494 OA
ENDBRANCH   1  23
TORSDOF 2
ENDMDL
MODEL 8
REMARK VINA RESULT:    -8.003      2.822      7.327
REMARK INTER + INTRA:          -8.862
REMARK INTER:                  -8.995
REMARK INTRA:                   0.133
REMARK UNBOUND:                 0.077
REMARK  Name = 
REMARK  6 active torsions:
REMARK  status: ('A' for Active; 'I' for Inactive)
REMARK    1  A    between atoms: C_1  and  O_2
REMARK    2  A    between atoms: O_2  and  C_3
REMARK    3  A    between atoms: C_4  and  C_5
REMARK    4  A    between atoms: C_8  and  C_22
REMARK    5  A    between atoms: C_8  and  C_23
REMARK    6  A    between atoms: C_14  and  C_16
REMARK                            x       y       z     vdW  Elec       q    Type
REMARK                         _______ _______ _______ _____ _____    ______ ____
ROOT
ATOM      1  C   UNL     1      86.359  46.635  43.195  0.00  0.00    +0.140 C 
ATOM      2  C   UNL     1      87.523  46.085  42.803  0.00  0.00    +0.035 C 
ATOM      3  C   UNL     1      87.569  44.643  42.361  0.00  0.00    -0.033 C 
ATOM      4  C   UNL     1      88.745  46.918  42.701  0.00  0.00    +0.175 C 
ATOM      5  O   UNL     1      89.845  46.365  42.425  0.00  0.00    -0.291 OA
ATOM      6  C   UNL     1      88.686  48.432  42.816  0.00  0.00    +0.086 C 
ATOM      7  C   UNL     1      87.413  48.898  43.501  0.00  0.00    +0.133 A 
ATOM      8  C   UNL     1      86.303  48.045  43.674  0.00  0.00    +0.103 A 
ATOM      9  C   UNL     1      85.167  48.568  44.325  0.00  0.00    +0.196 A 
ATOM     10  O   UNL     1      84.156  47.852  44.554  0.00  0.00    -0.287 OA
ATOM     11  C   UNL     1      85.156  49.899  44.737  0.00  0.00    +0.029 A 
ATOM     12  C   UNL     1      86.287  50.695  44.513  0.00  0.00    +0.139 A 
ATOM     13  O   UNL     1      87.347  50.164  43.910  0.00  0.00    -0.458 OA
ATOM     14  C   UNL     1      89.904  48.930  43.625  0.00  0.00    -0.046 C 
ATOM     15  C   UNL     1      88.725  49.033  41.400  0.00  0.00    -0.046 C 
ENDROOT
BRANCH  12  16
ATOM     16  C   UNL     1      86.340  52.122  44.919  0.00  0.00    +0.017 A 
ATOM     17  C   UNL     1      86.390  52.450  46.286  0.00  0.00    -0.051 A 
ATOM     18  C   UNL     1      86.432  53.786  46.696  0.00  0.00    -0.061 A 
ATOM     19  C   UNL     1      86.415  54.811  45.747  0.00  0.00    -0.062 A 
ATOM     20  C   UNL     1      86.351  54.501  44.387  0.00  0.00    -0.061 A 
ATOM     21  C   UNL     1      86.309  53.166  43.971  0.00  0.00    -0.051 A 
ENDBRANCH  12  16
BRANCH   1  23
ATOM     22  C   UNL     1      84.944  44.857  44.129  0.00  0.00    +0.079 C 
ATOM     23  O   UNL     1      85.193  45.865  43.158  0.00  0.00    -0.494 OA
ENDBRANCH   1  23
TORSDOF 2
ENDMDL
MODEL 9
REMARK VINA RESULT:    -7.969      2.049      3.077
REMARK INTER + INTRA:          -8.824
REMARK INTER:                  -8.901
REMARK INTRA:                   0.077
REMARK UNBOUND:                 0.077
REMARK  Name = 
REMARK  6 active torsions:
REMARK  status: ('A' for Active; 'I' for Inactive)
REMARK    1  A    between atoms: C_1  and  O_2
REMARK    2  A    between atoms: O_2  and  C_3
REMARK    3  A    between atoms: C_4  and  C_5
REMARK    4  A    between atoms: C_8  and  C_22
REMARK    5  A    between atoms: C_8  and  C_23
REMARK    6  A    between atoms: C_14  and  C_16
REMARK                            x       y       z     vdW  Elec       q    Type
REMARK                         _______ _______ _______ _____ _____    ______ ____
ROOT
ATOM      1  C   UNL     1      84.783  55.731  45.390  0.00  0.00    +0.140 C 
ATOM      2  C   UNL     1      84.444  55.677  46.691  0.00  0.00    +0.035 C 
ATOM      3  C   UNL     1      83.615  56.779  47.305  0.00  0.00    -0.033 C 
ATOM      4  C   UNL     1      84.790  54.487  47.503  0.00  0.00    +0.175 C 
ATOM      5  O   UNL     1      84.550  54.496  48.742  0.00  0.00    -0.291 OA
ATOM      6  C   UNL     1      85.330  53.219  46.864  0.00  0.00    +0.086 C 
ATOM      7  C   UNL     1      85.903  53.481  45.482  0.00  0.00    +0.133 A 
ATOM      8  C   UNL     1      85.635  54.674  44.777  0.00  0.00    +0.103 A 
ATOM      9  C   UNL     1      86.215  54.828  43.502  0.00  0.00    +0.196 A 
ATOM     10  O   UNL     1      86.057  55.884  42.834  0.00  0.00    -0.287 OA
ATOM     11  C   UNL     1      86.989  53.801  42.964  0.00  0.00    +0.029 A 
ATOM     12  C   UNL     1      87.195  52.634  43.712  0.00  0.00    +0.139 A 
ATOM     13  O   UNL     1      86.646  52.530  44.919  0.00  0.00    -0.458 OA
ATOM     14  C   UNL     1      86.437  52.625  47.763  0.00  0.00    -0.046 C 
ATOM     15  C   UNL     1      84.178  52.209  46.730  0.00  0.00    -0.046 C 
ENDROOT
BRANCH  12  16
ATOM     16  C   UNL     1      88.002  51.500  43.197  0.00  0.00    +0.017 A 
ATOM     17  C   UNL     1      88.731  51.655  42.004  0.00  0.00    -0.051 A 
ATOM     18  C   UNL     1      89.492  50.600  41.492  0.00  0.00    -0.061 A 
ATOM     19  C   UNL     1      89.528  49.374  42.160  0.00  0.00    -0.062 A 
ATOM     20  C   UNL     1      88.798  49.200  43.337  0.00  0.00    -0.061 A 
ATOM     21  C   UNL     1      88.035  50.253  43.854  0.00  0.00    -0.051 A 
ENDBRANCH  12  16
BRANCH   1  23
ATOM     22  C   UNL     1      84.940  58.083  44.698  0.00  0.00    +0.079 C 
ATOM     23  O   UNL     1      84.333  56.801  44.610  0.00  0.00    -0.494 OA
ENDBRANCH   1  23
TORSDOF 2
ENDMDL
