MODEL 1
REMARK VINA RESULT:    -8.082      0.000      0.000
REMARK INTER + INTRA:         -10.081
REMARK INTER:                  -9.729
REMARK INTRA:                  -0.352
REMARK UNBOUND:                -0.345
REMARK  Name = 
REMARK  6 active torsions:
REMARK  status: ('A' for Active; 'I' for Inactive)
REMARK    1  A    between atoms: O_1  and  C_2
REMARK    2  A    between atoms: C_6  and  O_7
REMARK    3  A    between atoms: C_6  and  C_14
REMARK    4  A    between atoms: C_11  and  O_13
REMARK    5  A    between atoms: C_17  and  O_21
REMARK    6  A    between atoms: C_18  and  O_20
REMARK                            x       y       z     vdW  Elec       q    Type
REMARK                         _______ _______ _______ _____ _____    ______ ____
ROOT
ATOM      1  C   UNL     1      85.616  58.020  44.634  0.00  0.00    +0.124 A 
ATOM      2  C   UNL     1      85.980  56.692  44.862  0.00  0.00    +0.022 A 
ATOM      3  C   UNL     1      85.379  55.962  45.890  0.00  0.00    +0.135 A 
ATOM      4  O   UNL     1      85.753  54.626  46.082  0.00  0.00    -0.457 OA
ATOM      5  C   UNL     1      85.047  53.748  46.961  0.00  0.00    +0.237 C 
ATOM      6  C   UNL     1      84.644  54.538  48.228  0.00  0.00    +0.022 C 
ATOM      7  C   UNL     1      83.807  55.772  47.861  0.00  0.00    -0.014 C 
ATOM      8  C   UNL     1      84.422  56.571  46.732  0.00  0.00    +0.036 A 
ATOM      9  C   UNL     1      84.026  57.904  46.472  0.00  0.00    +0.127 A 
ATOM     10  C   UNL     1      84.637  58.620  45.435  0.00  0.00    +0.022 A 
ENDROOT
BRANCH   5  11
ATOM     11  C   UNL     1      85.963  52.593  47.347  0.00  0.00    +0.027 A 
ATOM     12  C   UNL     1      86.054  52.192  48.694  0.00  0.00    -0.049 A 
ATOM     13  C   UNL     1      86.855  51.108  49.063  0.00  0.00    -0.016 A 
ATOM     14  C   UNL     1      87.566  50.394  48.093  0.00  0.00    +0.158 A 
ATOM     15  C   UNL     1      87.469  50.763  46.747  0.00  0.00    +0.159 A 
ATOM     16  C   UNL     1      86.665  51.852  46.375  0.00  0.00    -0.007 A 
BRANCH  15  17
ATOM     17  O   UNL     1      88.170  50.042  45.781  0.00  0.00    -0.503 OA
ATOM     18  H   UNL     1      87.744  49.355  45.308  0.00  0.00    +0.000 HD
ENDBRANCH  15  17
BRANCH  14  19
ATOM     19  O   UNL     1      88.368  49.313  48.457  0.00  0.00    -0.503 OA
ATOM     20  H   UNL     1      89.114  49.449  49.007  0.00  0.00    +0.000 HD
ENDBRANCH  14  19
ENDBRANCH   5  11
BRANCH   1  21
ATOM     21  O   UNL     1      86.225  58.733  43.604  0.00  0.00    -0.507 OA
ATOM     22  H   UNL     1      85.920  58.637  42.723  0.00  0.00    +0.000 HD
ENDBRANCH   1  21
BRANCH   5  23
ATOM     23  O   UNL     1      83.912  53.276  46.267  0.00  0.00    -0.352 OA
ATOM     24  H   UNL     1      83.113  53.672  46.647  0.00  0.00    +0.000 HD
ENDBRANCH   5  23
BRANCH   9  25
ATOM     25  O   UNL     1      83.028  58.542  47.211  0.00  0.00    -0.506 OA
ATOM     26  H   UNL     1      83.252  59.026  47.982  0.00  0.00    +0.000 HD
ENDBRANCH   9  25
TORSDOF 6
ENDMDL
MODEL 2
REMARK VINA RESULT:    -7.882      6.341      9.892
REMARK INTER + INTRA:          -9.840
REMARK INTER:                  -9.507
REMARK INTRA:                  -0.333
REMARK UNBOUND:                -0.345
REMARK  Name = 
REMARK  6 active torsions:
REMARK  status: ('A' for Active; 'I' for Inactive)
REMARK    1  A    between atoms: O_1  and  C_2
REMARK    2  A    between atoms: C_6  and  O_7
REMARK    3  A    between atoms: C_6  and  C_14
REMARK    4  A    between atoms: C_11  and  O_13
REMARK    5  A    between atoms: C_17  and  O_21
REMARK    6  A    between atoms: C_18  and  O_20
REMARK                            x       y       z     vdW  Elec       q    Type
REMARK                         _______ _______ _______ _____ _____    ______ ____
ROOT
ATOM      1  C   UNL     1      87.100  44.339  42.931  0.00  0.00    +0.124 A 
ATOM      2  C   UNL     1      87.609  45.539  42.432  0.00  0.00    +0.022 A 
ATOM      3  C   UNL     1      87.137  46.762  42.917  0.00  0.00    +0.135 A 
ATOM      4  O   UNL     1      87.680  47.948  42.408  0.00  0.00    -0.457 OA
ATOM      5  C   UNL     1      87.414  49.227  42.988  0.00  0.00    +0.237 C 
ATOM      6  C   UNL     1      85.928  49.277  43.411  0.00  0.00    +0.022 C 
ATOM      7  C   UNL     1      85.594  48.132  44.377  0.00  0.00    -0.014 C 
ATOM      8  C   UNL     1      86.115  46.796  43.890  0.00  0.00    +0.036 A 
ATOM      9  C   UNL     1      85.631  45.578  44.424  0.00  0.00    +0.127 A 
ATOM     10  C   UNL     1      86.117  44.362  43.928  0.00  0.00    +0.022 A 
ENDROOT
BRANCH   5  11
ATOM     11  C   UNL     1      87.689  50.307  41.950  0.00  0.00    +0.027 A 
ATOM     12  C   UNL     1      88.853  50.237  41.158  0.00  0.00    -0.049 A 
ATOM     13  C   UNL     1      89.102  51.194  40.172  0.00  0.00    -0.016 A 
ATOM     14  C   UNL     1      88.189  52.229  39.945  0.00  0.00    +0.158 A 
ATOM     15  C   UNL     1      87.016  52.301  40.705  0.00  0.00    +0.159 A 
ATOM     16  C   UNL     1      86.764  51.341  41.697  0.00  0.00    -0.007 A 
BRANCH  15  17
ATOM     17  O   UNL     1      86.103  53.327  40.469  0.00  0.00    -0.503 OA
ATOM     18  H   UNL     1      85.383  53.457  41.054  0.00  0.00    +0.000 HD
ENDBRANCH  15  17
BRANCH  14  19
ATOM     19  O   UNL     1      88.436  53.187  38.963  0.00  0.00    -0.503 OA
ATOM     20  H   UNL     1      89.074  53.857  39.112  0.00  0.00    +0.000 HD
ENDBRANCH  14  19
ENDBRANCH   5  11
BRANCH   1  21
ATOM     21  O   UNL     1      87.583  43.130  42.438  0.00  0.00    -0.507 OA
ATOM     22  H   UNL     1      87.660  42.998  41.513  0.00  0.00    +0.000 HD
ENDBRANCH   1  21
BRANCH   5  23
ATOM     23  O   UNL     1      88.271  49.373  44.101  0.00  0.00    -0.352 OA
ATOM     24  H   UNL     1      89.046  48.802  43.990  0.00  0.00    +0.000 HD
ENDBRANCH   5  23
BRANCH   9  25
ATOM     25  O   UNL     1      84.681  45.538  45.446  0.00  0.00    -0.506 OA
ATOM     26  H   UNL     1      84.888  45.884  46.292  0.00  0.00    +0.000 HD
ENDBRANCH   9  25
TORSDOF 6
ENDMDL
MODEL 3
REMARK VINA RESULT:    -7.746      3.807      5.284
REMARK INTER + INTRA:          -9.676
REMARK INTER:                  -9.316
REMARK INTRA:                  -0.360
REMARK UNBOUND:                -0.345
REMARK  Name = 
REMARK  6 active torsions:
REMARK  status: ('A' for Active; 'I' for Inactive)
REMARK    1  A    between atoms: O_1  and  C_2
REMARK    2  A    between atoms: C_6  and  O_7
REMARK    3  A    between atoms: C_6  and  C_14
REMARK    4  A    between atoms: C_11  and  O_13
REMARK    5  A    between atoms: C_17  and  O_21
REMARK    6  A    between atoms: C_18  and  O_20
REMARK                            x       y       z     vdW  Elec       q    Type
REMARK                         _______ _______ _______ _____ _____    ______ ____
ROOT
ATOM      1  C   UNL     1      84.503  55.979  46.395  0.00  0.00    +0.124 A 
ATOM      2  C   UNL     1      84.903  55.332  45.225  0.00  0.00    +0.022 A 
ATOM      3  C   UNL     1      85.613  54.130  45.290  0.00  0.00    +0.135 A 
ATOM      4  O   UNL     1      85.985  53.496  44.098  0.00  0.00    -0.457 OA
ATOM      5  C   UNL     1      86.520  52.172  44.065  0.00  0.00    +0.237 C 
ATOM      6  C   UNL     1      87.481  51.999  45.264  0.00  0.00    +0.022 C 
ATOM      7  C   UNL     1      86.762  52.291  46.589  0.00  0.00    -0.014 C 
ATOM      8  C   UNL     1      85.964  53.577  46.540  0.00  0.00    +0.036 A 
ATOM      9  C   UNL     1      85.521  54.214  47.724  0.00  0.00    +0.127 A 
ATOM     10  C   UNL     1      84.808  55.416  47.640  0.00  0.00    +0.022 A 
ENDROOT
BRANCH   5  11
ATOM     11  C   UNL     1      87.286  51.980  42.762  0.00  0.00    +0.027 A 
ATOM     12  C   UNL     1      88.320  51.026  42.692  0.00  0.00    -0.049 A 
ATOM     13  C   UNL     1      89.006  50.804  41.496  0.00  0.00    -0.016 A 
ATOM     14  C   UNL     1      88.663  51.518  40.343  0.00  0.00    +0.158 A 
ATOM     15  C   UNL     1      87.622  52.452  40.387  0.00  0.00    +0.159 A 
ATOM     16  C   UNL     1      86.932  52.676  41.588  0.00  0.00    -0.007 A 
BRANCH  15  17
ATOM     17  O   UNL     1      87.275  53.154  39.233  0.00  0.00    -0.503 OA
ATOM     18  H   UNL     1      87.916  53.307  38.568  0.00  0.00    +0.000 HD
ENDBRANCH  15  17
BRANCH  14  19
ATOM     19  O   UNL     1      89.346  51.301  39.147  0.00  0.00    -0.503 OA
ATOM     20  H   UNL     1      89.509  50.427  38.853  0.00  0.00    +0.000 HD
ENDBRANCH  14  19
ENDBRANCH   5  11
BRANCH   1  21
ATOM     21  O   UNL     1      83.796  57.176  46.311  0.00  0.00    -0.507 OA
ATOM     22  H   UNL     1      82.904  57.174  46.023  0.00  0.00    +0.000 HD
ENDBRANCH   1  21
BRANCH   5  23
ATOM     23  O   UNL     1      85.434  51.273  44.143  0.00  0.00    -0.352 OA
ATOM     24  H   UNL     1      85.374  50.915  45.042  0.00  0.00    +0.000 HD
ENDBRANCH   5  23
BRANCH   9  25
ATOM     25  O   UNL     1      85.761  53.679  48.992  0.00  0.00    -0.506 OA
ATOM     26  H   UNL     1      86.186  54.198  49.646  0.00  0.00    +0.000 HD
ENDBRANCH   9  25
TORSDOF 6
ENDMDL
MODEL 4
REMARK VINA RESULT:    -7.693      4.003      6.955
REMARK INTER + INTRA:          -9.611
REMARK INTER:                  -9.267
REMARK INTRA:                  -0.345
REMARK UNBOUND:                -0.345
REMARK  Name = 
REMARK  6 active torsions:
REMARK  status: ('A' for Active; 'I' for Inactive)
REMARK    1  A    between atoms: O_1  and  C_2
REMARK    2  A    between atoms: C_6  and  O_7
REMARK    3  A    between atoms: C_6  and  C_14
REMARK    4  A    between atoms: C_11  and  O_13
REMARK    5  A    between atoms: C_17  and  O_21
REMARK    6  A    between atoms: C_18  and  O_20
REMARK                            x       y       z     vdW  Elec       q    Type
REMARK                         _______ _______ _______ _____ _____    ______ ____
ROOT
ATOM      1  C   UNL     1      85.896  52.871  48.119  0.00  0.00    +0.124 A 
ATOM      2  C   UNL     1      85.973  53.016  46.733  0.00  0.00    +0.022 A 
ATOM      3  C   UNL     1      86.544  52.010  45.949  0.00  0.00    +0.135 A 
ATOM      4  O   UNL     1      86.591  52.178  44.559  0.00  0.00    -0.457 OA
ATOM      5  C   UNL     1      86.959  51.123  43.669  0.00  0.00    +0.237 C 
ATOM      6  C   UNL     1      88.120  50.324  44.305  0.00  0.00    +0.022 C 
ATOM      7  C   UNL     1      87.725  49.790  45.688  0.00  0.00    -0.014 C 
ATOM      8  C   UNL     1      87.080  50.853  46.553  0.00  0.00    +0.036 A 
ATOM      9  C   UNL     1      86.963  50.691  47.954  0.00  0.00    +0.127 A 
ATOM     10  C   UNL     1      86.385  51.707  48.725  0.00  0.00    +0.022 A 
ENDROOT
BRANCH   5  11
ATOM     11  C   UNL     1      87.416  51.728  42.347  0.00  0.00    +0.027 A 
ATOM     12  C   UNL     1      88.718  51.472  41.873  0.00  0.00    -0.049 A 
ATOM     13  C   UNL     1      89.142  51.982  40.644  0.00  0.00    -0.016 A 
ATOM     14  C   UNL     1      88.271  52.742  39.856  0.00  0.00    +0.158 A 
ATOM     15  C   UNL     1      86.966  52.985  40.299  0.00  0.00    +0.159 A 
ATOM     16  C   UNL     1      86.539  52.474  41.534  0.00  0.00    -0.007 A 
BRANCH  15  17
ATOM     17  O   UNL     1      86.097  53.733  39.507  0.00  0.00    -0.503 OA
ATOM     18  H   UNL     1      86.181  53.715  38.574  0.00  0.00    +0.000 HD
ENDBRANCH  15  17
BRANCH  14  19
ATOM     19  O   UNL     1      88.691  53.254  38.630  0.00  0.00    -0.503 OA
ATOM     20  H   UNL     1      88.920  54.159  38.554  0.00  0.00    +0.000 HD
ENDBRANCH  14  19
ENDBRANCH   5  11
BRANCH   1  21
ATOM     21  O   UNL     1      85.323  53.883  48.885  0.00  0.00    -0.507 OA
ATOM     22  H   UNL     1      84.634  54.409  48.528  0.00  0.00    +0.000 HD
ENDBRANCH   1  21
BRANCH   5  23
ATOM     23  O   UNL     1      85.819  50.312  43.479  0.00  0.00    -0.352 OA
ATOM     24  H   UNL     1      85.673  49.770  44.270  0.00  0.00    +0.000 HD
ENDBRANCH   5  23
BRANCH   9  25
ATOM     25  O   UNL     1      87.397  49.536  48.609  0.00  0.00    -0.506 OA
ATOM     26  H   UNL     1      88.313  49.375  48.716  0.00  0.00    +0.000 HD
ENDBRANCH   9  25
TORSDOF 6
ENDMDL
MODEL 5
REMARK VINA RESULT:    -7.441      5.559      7.724
REMARK INTER + INTRA:          -9.309
REMARK INTER:                  -8.982
REMARK INTRA:                  -0.327
REMARK UNBOUND:                -0.345
REMARK  Name = 
REMARK  6 active torsions:
REMARK  status: ('A' for Active; 'I' for Inactive)
REMARK    1  A    between atoms: O_1  and  C_2
REMARK    2  A    between atoms: C_6  and  O_7
REMARK    3  A    between atoms: C_6  and  C_14
REMARK    4  A    between atoms: C_11  and  O_13
REMARK    5  A    between atoms: C_17  and  O_21
REMARK    6  A    between atoms: C_18  and  O_20
REMARK                            x       y       z     vdW  Elec       q    Type
REMARK                         _______ _______ _______ _____ _____    ______ ____
ROOT
ATOM      1  C   UNL     1      81.508  47.934  44.300  0.00  0.00    +0.124 A 
ATOM      2  C   UNL     1      82.728  48.595  44.157  0.00  0.00    +0.022 A 
ATOM      3  C   UNL     1      82.778  49.870  43.587  0.00  0.00    +0.135 A 
ATOM      4  O   UNL     1      84.016  50.515  43.473  0.00  0.00    -0.457 OA
ATOM      5  C   UNL     1      84.136  51.890  43.103  0.00  0.00    +0.237 C 
ATOM      6  C   UNL     1      83.098  52.195  41.998  0.00  0.00    +0.022 C 
ATOM      7  C   UNL     1      81.678  51.854  42.471  0.00  0.00    -0.014 C 
ATOM      8  C   UNL     1      81.598  50.487  43.117  0.00  0.00    +0.036 A 
ATOM      9  C   UNL     1      80.358  49.830  43.301  0.00  0.00    +0.127 A 
ATOM     10  C   UNL     1      80.327  48.554  43.877  0.00  0.00    +0.022 A 
ENDROOT
BRANCH   5  11
ATOM     11  C   UNL     1      85.541  52.137  42.569  0.00  0.00    +0.027 A 
ATOM     12  C   UNL     1      86.658  51.848  43.378  0.00  0.00    -0.049 A 
ATOM     13  C   UNL     1      87.955  52.027  42.893  0.00  0.00    -0.016 A 
ATOM     14  C   UNL     1      88.164  52.480  41.586  0.00  0.00    +0.158 A 
ATOM     15  C   UNL     1      87.067  52.748  40.759  0.00  0.00    +0.159 A 
ATOM     16  C   UNL     1      85.763  52.569  41.246  0.00  0.00    -0.007 A 
BRANCH  15  17
ATOM     17  O   UNL     1      87.279  53.189  39.454  0.00  0.00    -0.503 OA
ATOM     18  H   UNL     1      86.894  53.992  39.162  0.00  0.00    +0.000 HD
ENDBRANCH  15  17
BRANCH  14  19
ATOM     19  O   UNL     1      89.458  52.662  41.099  0.00  0.00    -0.503 OA
ATOM     20  H   UNL     1      90.093  53.117  41.615  0.00  0.00    +0.000 HD
ENDBRANCH  14  19
ENDBRANCH   5  11
BRANCH   1  21
ATOM     21  O   UNL     1      81.477  46.664  44.872  0.00  0.00    -0.507 OA
ATOM     22  H   UNL     1      80.823  46.047  44.610  0.00  0.00    +0.000 HD
ENDBRANCH   1  21
BRANCH   5  23
ATOM     23  O   UNL     1      83.898  52.663  44.260  0.00  0.00    -0.352 OA
ATOM     24  H   UNL     1      84.685  53.192  44.462  0.00  0.00    +0.000 HD
ENDBRANCH   5  23
BRANCH   9  25
ATOM     25  O   UNL     1      79.144  50.416  42.935  0.00  0.00    -0.506 OA
ATOM     26  H   UNL     1      78.408  50.368  43.512  0.00  0.00    +0.000 HD
ENDBRANCH   9  25
TORSDOF 6
ENDMDL
MODEL 6
REMARK VINA RESULT:    -7.441      2.923      3.866
REMARK INTER + INTRA:          -9.308
REMARK INTER:                  -8.948
REMARK INTRA:                  -0.360
REMARK UNBOUND:                -0.345
REMARK  Name = 
REMARK  6 active torsions:
REMARK  status: ('A' for Active; 'I' for Inactive)
REMARK    1  A    between atoms: O_1  and  C_2
REMARK    2  A    between atoms: C_6  and  O_7
REMARK    3  A    between atoms: C_6  and  C_14
REMARK    4  A    between atoms: C_11  and  O_13
REMARK    5  A    between atoms: C_17  and  O_21
REMARK    6  A    between atoms: C_18  and  O_20
REMARK                            x       y       z     vdW  Elec       q    Type
REMARK                         _______ _______ _______ _____ _____    ______ ____
ROOT
ATOM      1  C   UNL     1      86.008  57.368  44.604  0.00  0.00    +0.124 A 
ATOM      2  C   UNL     1      86.442  56.215  43.949  0.00  0.00    +0.022 A 
ATOM      3  C   UNL     1      86.390  54.976  44.592  0.00  0.00    +0.135 A 
ATOM      4  O   UNL     1      86.817  53.834  43.901  0.00  0.00    -0.457 OA
ATOM      5  C   UNL     1      86.604  52.511  44.397  0.00  0.00    +0.237 C 
ATOM      6  C   UNL     1      86.833  52.515  45.926  0.00  0.00    +0.022 C 
ATOM      7  C   UNL     1      85.916  53.535  46.614  0.00  0.00    -0.014 C 
ATOM      8  C   UNL     1      85.932  54.883  45.924  0.00  0.00    +0.036 A 
ATOM      9  C   UNL     1      85.454  56.047  46.570  0.00  0.00    +0.127 A 
ATOM     10  C   UNL     1      85.511  57.281  45.910  0.00  0.00    +0.022 A 
ENDROOT
BRANCH   5  11
ATOM     11  C   UNL     1      87.599  51.569  43.731  0.00  0.00    +0.027 A 
ATOM     12  C   UNL     1      87.967  50.371  44.375  0.00  0.00    -0.049 A 
ATOM     13  C   UNL     1      88.844  49.472  43.764  0.00  0.00    -0.016 A 
ATOM     14  C   UNL     1      89.359  49.744  42.492  0.00  0.00    +0.158 A 
ATOM     15  C   UNL     1      88.986  50.916  41.826  0.00  0.00    +0.159 A 
ATOM     16  C   UNL     1      88.105  51.820  42.439  0.00  0.00    -0.007 A 
BRANCH  15  17
ATOM     17  O   UNL     1      89.491  51.178  40.554  0.00  0.00    -0.503 OA
ATOM     18  H   UNL     1      90.211  51.769  40.448  0.00  0.00    +0.000 HD
ENDBRANCH  15  17
BRANCH  14  19
ATOM     19  O   UNL     1      90.236  48.850  41.879  0.00  0.00    -0.503 OA
ATOM     20  H   UNL     1      90.871  48.391  42.393  0.00  0.00    +0.000 HD
ENDBRANCH  14  19
ENDBRANCH   5  11
BRANCH   1  21
ATOM     21  O   UNL     1      86.065  58.595  43.947  0.00  0.00    -0.507 OA
ATOM     22  H   UNL     1      85.327  58.899  43.456  0.00  0.00    +0.000 HD
ENDBRANCH   1  21
BRANCH   5  23
ATOM     23  O   UNL     1      85.279  52.146  44.075  0.00  0.00    -0.352 OA
ATOM     24  H   UNL     1      85.286  51.324  43.561  0.00  0.00    +0.000 HD
ENDBRANCH   5  23
BRANCH   9  25
ATOM     25  O   UNL     1      84.911  56.016  47.857  0.00  0.00    -0.506 OA
ATOM     26  H   UNL     1      84.072  55.626  48.002  0.00  0.00    +0.000 HD
ENDBRANCH   9  25
TORSDOF 6
ENDMDL
MODEL 7
REMARK VINA RESULT:    -7.426      4.416      7.654
REMARK INTER + INTRA:          -9.290
REMARK INTER:                  -8.942
REMARK INTRA:                  -0.348
REMARK UNBOUND:                -0.345
REMARK  Name = 
REMARK  6 active torsions:
REMARK  status: ('A' for Active; 'I' for Inactive)
REMARK    1  A    between atoms: O_1  and  C_2
REMARK    2  A    between atoms: C_6  and  O_7
REMARK    3  A    between atoms: C_6  and  C_14
REMARK    4  A    between atoms: C_11  and  O_13
REMARK    5  A    between atoms: C_17  and  O_21
REMARK    6  A    between atoms: C_18  and  O_20
REMARK                            x       y       z     vdW  Elec       q    Type
REMARK                         _______ _______ _______ _____ _____    ______ ____
ROOT
ATOM      1  C   UNL     1      80.425  50.048  43.092  0.00  0.00    +0.124 A 
ATOM      2  C   UNL     1      81.080  51.259  42.861  0.00  0.00    +0.022 A 
ATOM      3  C   UNL     1      82.440  51.393  43.150  0.00  0.00    +0.135 A 
ATOM      4  O   UNL     1      83.072  52.615  42.891  0.00  0.00    -0.457 OA
ATOM      5  C   UNL     1      84.490  52.777  42.955  0.00  0.00    +0.237 C 
ATOM      6  C   UNL     1      85.024  51.970  44.161  0.00  0.00    +0.022 C 
ATOM      7  C   UNL     1      84.624  50.492  44.051  0.00  0.00    -0.014 C 
ATOM      8  C   UNL     1      83.158  50.316  43.713  0.00  0.00    +0.036 A 
ATOM      9  C   UNL     1      82.502  49.077  43.908  0.00  0.00    +0.127 A 
ATOM     10  C   UNL     1      81.138  48.960  43.610  0.00  0.00    +0.022 A 
ENDROOT
BRANCH   5  11
ATOM     11  C   UNL     1      84.811  54.254  43.144  0.00  0.00    +0.027 A 
ATOM     12  C   UNL     1      83.817  55.223  42.902  0.00  0.00    -0.049 A 
ATOM     13  C   UNL     1      84.077  56.579  43.110  0.00  0.00    -0.016 A 
ATOM     14  C   UNL     1      85.328  56.994  43.580  0.00  0.00    +0.158 A 
ATOM     15  C   UNL     1      86.319  56.045  43.850  0.00  0.00    +0.159 A 
ATOM     16  C   UNL     1      86.059  54.682  43.640  0.00  0.00    -0.007 A 
BRANCH  15  17
ATOM     17  O   UNL     1      87.561  56.460  44.328  0.00  0.00    -0.503 OA
ATOM     18  H   UNL     1      87.710  56.523  45.251  0.00  0.00    +0.000 HD
ENDBRANCH  15  17
BRANCH  14  19
ATOM     19  O   UNL     1      85.592  58.347  43.787  0.00  0.00    -0.503 OA
ATOM     20  H   UNL     1      85.160  58.994  43.265  0.00  0.00    +0.000 HD
ENDBRANCH  14  19
ENDBRANCH   5  11
BRANCH   1  21
ATOM     21  O   UNL     1      79.069  49.932  42.797  0.00  0.00    -0.507 OA
ATOM     22  H   UNL     1      78.495  49.495  43.394  0.00  0.00    +0.000 HD
ENDBRANCH   1  21
BRANCH   5  23
ATOM     23  O   UNL     1      85.027  52.301  41.739  0.00  0.00    -0.352 OA
ATOM     24  H   UNL     1      84.318  52.224  41.081  0.00  0.00    +0.000 HD
ENDBRANCH   5  23
BRANCH   9  25
ATOM     25  O   UNL     1      83.169  47.947  44.383  0.00  0.00    -0.506 OA
ATOM     26  H   UNL     1      84.072  48.004  44.628  0.00  0.00    +0.000 HD
ENDBRANCH   9  25
TORSDOF 6
ENDMDL
MODEL 8
REMARK VINA RESULT:    -7.291      4.059      5.182
REMARK INTER + INTRA:          -9.128
REMARK INTER:                  -8.783
REMARK INTRA:                  -0.345
REMARK UNBOUND:                -0.345
REMARK  Name = 
REMARK  6 active torsions:
REMARK  status: ('A' for Active; 'I' for Inactive)
REMARK    1  A    between atoms: O_1  and  C_2
REMARK    2  A    between atoms: C_6  and  O_7
REMARK    3  A    between atoms: C_6  and  C_14
REMARK    4  A    between atoms: C_11  and  O_13
REMARK    5  A    between atoms: C_17  and  O_21
REMARK    6  A    between atoms: C_18  and  O_20
REMARK                            x       y       z     vdW  Elec       q    Type
REMARK                         _______ _______ _______ _____ _____    ______ ____
ROOT
ATOM      1  C   UNL     1      85.770  56.208  46.332  0.00  0.00    +0.124 A 
ATOM      2  C   UNL     1      85.307  54.925  46.035  0.00  0.00    +0.022 A 
ATOM      3  C   UNL     1      84.779  54.640  44.773  0.00  0.00    +0.135 A 
ATOM      4  O   UNL     1      84.339  53.340  44.499  0.00  0.00    -0.457 OA
ATOM      5  C   UNL     1      83.985  52.908  43.184  0.00  0.00    +0.237 C 
ATOM      6  C   UNL     1      83.226  54.054  42.476  0.00  0.00    +0.022 C 
ATOM      7  C   UNL     1      84.071  55.335  42.447  0.00  0.00    -0.014 C 
ATOM      8  C   UNL     1      84.677  55.656  43.797  0.00  0.00    +0.036 A 
ATOM      9  C   UNL     1      85.186  56.944  44.089  0.00  0.00    +0.127 A 
ATOM     10  C   UNL     1      85.713  57.211  45.358  0.00  0.00    +0.022 A 
ENDROOT
BRANCH   5  11
ATOM     11  C   UNL     1      83.084  51.684  43.291  0.00  0.00    +0.027 A 
ATOM     12  C   UNL     1      81.789  51.718  42.736  0.00  0.00    -0.049 A 
ATOM     13  C   UNL     1      80.962  50.594  42.786  0.00  0.00    -0.016 A 
ATOM     14  C   UNL     1      81.417  49.409  43.374  0.00  0.00    +0.158 A 
ATOM     15  C   UNL     1      82.709  49.348  43.907  0.00  0.00    +0.159 A 
ATOM     16  C   UNL     1      83.540  50.478  43.859  0.00  0.00    -0.007 A 
BRANCH  15  17
ATOM     17  O   UNL     1      83.163  48.162  44.482  0.00  0.00    -0.503 OA
ATOM     18  H   UNL     1      82.592  47.657  45.027  0.00  0.00    +0.000 HD
ENDBRANCH  15  17
BRANCH  14  19
ATOM     19  O   UNL     1      80.594  48.285  43.427  0.00  0.00    -0.503 OA
ATOM     20  H   UNL     1      79.819  48.247  42.902  0.00  0.00    +0.000 HD
ENDBRANCH  14  19
ENDBRANCH   5  11
BRANCH   1  21
ATOM     21  O   UNL     1      86.294  56.473  47.595  0.00  0.00    -0.507 OA
ATOM     22  H   UNL     1      87.218  56.427  47.739  0.00  0.00    +0.000 HD
ENDBRANCH   1  21
BRANCH   5  23
ATOM     23  O   UNL     1      85.183  52.588  42.507  0.00  0.00    -0.352 OA
ATOM     24  H   UNL     1      85.824  52.226  43.138  0.00  0.00    +0.000 HD
ENDBRANCH   5  23
BRANCH   9  25
ATOM     25  O   UNL     1      85.192  57.973  43.145  0.00  0.00    -0.506 OA
ATOM     26  H   UNL     1      84.526  58.632  43.165  0.00  0.00    +0.000 HD
ENDBRANCH   9  25
TORSDOF 6
ENDMDL
MODEL 9
REMARK VINA RESULT:    -7.264      5.654      7.596
REMARK INTER + INTRA:          -9.094
REMARK INTER:                  -8.750
REMARK INTRA:                  -0.344
REMARK UNBOUND:                -0.345
REMARK  Name = 
REMARK  6 active torsions:
REMARK  status: ('A' for Active; 'I' for Inactive)
REMARK    1  A    between atoms: O_1  and  C_2
REMARK    2  A    between atoms: C_6  and  O_7
REMARK    3  A    between atoms: C_6  and  C_14
REMARK    4  A    between atoms: C_11  and  O_13
REMARK    5  A    between atoms: C_17  and  O_21
REMARK    6  A    between atoms: C_18  and  O_20
REMARK                            x       y       z     vdW  Elec       q    Type
REMARK                         _______ _______ _______ _____ _____    ______ ____
ROOT
ATOM      1  C   UNL     1      88.391  52.618  39.765  0.00  0.00    +0.124 A 
ATOM      2  C   UNL     1      87.096  52.615  40.286  0.00  0.00    +0.022 A 
ATOM      3  C   UNL     1      86.787  51.837  41.404  0.00  0.00    +0.135 A 
ATOM      4  O   UNL     1      85.483  51.869  41.914  0.00  0.00    -0.457 OA
ATOM      5  C   UNL     1      85.132  51.278  43.166  0.00  0.00    +0.237 C 
ATOM      6  C   UNL     1      85.893  49.940  43.310  0.00  0.00    +0.022 C 
ATOM      7  C   UNL     1      87.408  50.155  43.187  0.00  0.00    -0.014 C 
ATOM      8  C   UNL     1      87.772  51.017  41.996  0.00  0.00    +0.036 A 
ATOM      9  C   UNL     1      89.093  51.054  41.491  0.00  0.00    +0.127 A 
ATOM     10  C   UNL     1      89.386  51.842  40.371  0.00  0.00    +0.022 A 
ENDROOT
BRANCH   5  11
ATOM     11  C   UNL     1      83.630  51.018  43.186  0.00  0.00    +0.027 A 
ATOM     12  C   UNL     1      82.775  51.793  42.376  0.00  0.00    -0.049 A 
ATOM     13  C   UNL     1      81.402  51.544  42.348  0.00  0.00    -0.016 A 
ATOM     14  C   UNL     1      80.856  50.507  43.113  0.00  0.00    +0.158 A 
ATOM     15  C   UNL     1      81.693  49.711  43.903  0.00  0.00    +0.159 A 
ATOM     16  C   UNL     1      83.073  49.961  43.933  0.00  0.00    -0.007 A 
BRANCH  15  17
ATOM     17  O   UNL     1      81.148  48.672  44.655  0.00  0.00    -0.503 OA
ATOM     18  H   UNL     1      80.453  48.151  44.301  0.00  0.00    +0.000 HD
ENDBRANCH  15  17
BRANCH  14  19
ATOM     19  O   UNL     1      79.485  50.256  43.088  0.00  0.00    -0.503 OA
ATOM     20  H   UNL     1      79.044  50.143  42.270  0.00  0.00    +0.000 HD
ENDBRANCH  14  19
ENDBRANCH   5  11
BRANCH   1  21
ATOM     21  O   UNL     1      88.682  53.401  38.650  0.00  0.00    -0.507 OA
ATOM     22  H   UNL     1      89.416  53.983  38.665  0.00  0.00    +0.000 HD
ENDBRANCH   1  21
BRANCH   5  23
ATOM     23  O   UNL     1      85.495  52.188  44.181  0.00  0.00    -0.352 OA
ATOM     24  H   UNL     1      86.368  52.562  43.984  0.00  0.00    +0.000 HD
ENDBRANCH   5  23
BRANCH   9  25
ATOM     25  O   UNL     1      90.136  50.333  42.077  0.00  0.00    -0.506 OA
ATOM     26  H   UNL     1      91.013  50.659  42.035  0.00  0.00    +0.000 HD
ENDBRANCH   9  25
TORSDOF 6
ENDMDL
