MODEL 1
REMARK VINA RESULT:   -10.787      0.000      0.000
REMARK INTER + INTRA:         -13.579
REMARK INTER:                 -13.106
REMARK INTRA:                  -0.473
REMARK UNBOUND:                 0.047
REMARK  Name = 
REMARK  11 active torsions:
REMARK  status: ('A' for Active; 'I' for Inactive)
REMARK    1  A    between atoms: O_1  and  C_2
REMARK    2  A    between atoms: C_5  and  C_31
REMARK    3  A    between atoms: C_14  and  C_28
REMARK    4  A    between atoms: C_18  and  C_19
REMARK    5  A    between atoms: C_19  and  C_20
REMARK    6  A    between atoms: C_19  and  C_27
REMARK    7  A    between atoms: C_21  and  C_22
REMARK    8  A    between atoms: C_22  and  C_23
REMARK    9  A    between atoms: C_22  and  C_26
REMARK   10  A    between atoms: C_23  and  C_24
REMARK   11  A    between atoms: C_23  and  C_25
REMARK                            x       y       z     vdW  Elec       q    Type
REMARK                         _______ _______ _______ _____ _____    ______ ____
ROOT
ATOM      1  C   UNL     1      84.566  57.077  44.916  0.00  0.00    +0.058 C 
ATOM      2  C   UNL     1      86.023  56.875  45.357  0.00  0.00    -0.026 C 
ATOM      3  C   UNL     1      86.269  55.466  45.928  0.00  0.00    -0.042 C 
ATOM      4  C   UNL     1      85.651  54.292  45.072  0.00  0.00    +0.010 C 
ATOM      5  C   UNL     1      85.070  54.832  43.707  0.00  0.00    +0.131 C 
ATOM      6  C   UNL     1      84.090  56.013  43.891  0.00  0.00    +0.010 C 
ATOM      7  O   UNL     1      86.183  55.251  42.903  0.00  0.00    -0.222 OA
ATOM      8  O   UNL     1      86.994  54.238  42.493  0.00  0.00    -0.223 OA
ATOM      9  C   UNL     1      86.689  52.983  43.106  0.00  0.00    +0.129 C 
ATOM     10  C   UNL     1      86.768  53.231  44.657  0.00  0.00    +0.003 C 
ATOM     11  C   UNL     1      86.844  51.923  45.505  0.00  0.00    -0.046 C 
ATOM     12  C   UNL     1      87.931  50.944  44.994  0.00  0.00    -0.047 C 
ATOM     13  C   UNL     1      87.729  50.614  43.494  0.00  0.00    -0.023 C 
ATOM     14  C   UNL     1      87.753  51.939  42.708  0.00  0.00    +0.001 C 
ATOM     15  C   UNL     1      87.940  51.547  41.247  0.00  0.00    -0.046 C 
ATOM     16  C   UNL     1      88.803  50.271  41.312  0.00  0.00    -0.049 C 
ATOM     17  C   UNL     1      88.934  49.904  42.815  0.00  0.00    -0.029 C 
ATOM     18  C   UNL     1      86.428  49.779  43.306  0.00  0.00    -0.059 C 
ATOM     19  C   UNL     1      85.268  52.683  42.681  0.00  0.00    -0.050 C 
ATOM     20  C   UNL     1      84.420  53.676  42.963  0.00  0.00    -0.050 C 
ATOM     21  C   UNL     1      84.510  53.645  45.917  0.00  0.00    -0.056 C 
ENDROOT
BRANCH   1  22
ATOM     22  O   UNL     1      83.740  57.061  46.053  0.00  0.00    -0.392 OA
ATOM     23  H   UNL     1      83.021  56.422  45.922  0.00  0.00    +0.000 HD
ENDBRANCH   1  22
BRANCH  17  24
ATOM     24  C   UNL     1      89.199  48.405  43.171  0.00  0.00    -0.022 C 
ATOM     25  C   UNL     1      90.648  48.002  42.838  0.00  0.00    -0.059 C 
BRANCH  24  26
ATOM     26  C   UNL     1      88.213  47.385  42.617  0.00  0.00    -0.085 C 
ATOM     27  C   UNL     1      88.311  46.055  42.815  0.00  0.00    -0.085 C 
BRANCH  27  28
ATOM     28  C   UNL     1      87.194  45.101  42.435  0.00  0.00    -0.023 C 
ATOM     29  C   UNL     1      85.836  45.768  42.700  0.00  0.00    -0.059 C 
BRANCH  28  30
ATOM     30  C   UNL     1      87.285  43.712  43.137  0.00  0.00    -0.041 C 
ATOM     31  C   UNL     1      86.245  43.518  44.255  0.00  0.00    -0.062 C 
ATOM     32  C   UNL     1      88.696  43.426  43.671  0.00  0.00    -0.062 C 
ENDBRANCH  28  30
ENDBRANCH  27  28
ENDBRANCH  24  26
ENDBRANCH  17  24
TORSDOF 5
ENDMDL
MODEL 2
REMARK VINA RESULT:   -10.623      1.801      3.371
REMARK INTER + INTRA:         -13.371
REMARK INTER:                 -12.032
REMARK INTRA:                  -1.339
REMARK UNBOUND:                 0.047
REMARK  Name = 
REMARK  11 active torsions:
REMARK  status: ('A' for Active; 'I' for Inactive)
REMARK    1  A    between atoms: O_1  and  C_2
REMARK    2  A    between atoms: C_5  and  C_31
REMARK    3  A    between atoms: C_14  and  C_28
REMARK    4  A    between atoms: C_18  and  C_19
REMARK    5  A    between atoms: C_19  and  C_20
REMARK    6  A    between atoms: C_19  and  C_27
REMARK    7  A    between atoms: C_21  and  C_22
REMARK    8  A    between atoms: C_22  and  C_23
REMARK    9  A    between atoms: C_22  and  C_26
REMARK   10  A    between atoms: C_23  and  C_24
REMARK   11  A    between atoms: C_23  and  C_25
REMARK                            x       y       z     vdW  Elec       q    Type
REMARK                         _______ _______ _______ _____ _____    ______ ____
ROOT
ATOM      1  C   UNL     1      85.011  58.067  45.981  0.00  0.00    +0.058 C 
ATOM      2  C   UNL     1      84.237  57.014  46.789  0.00  0.00    -0.026 C 
ATOM      3  C   UNL     1      83.633  55.919  45.890  0.00  0.00    -0.042 C 
ATOM      4  C   UNL     1      84.620  55.347  44.798  0.00  0.00    +0.010 C 
ATOM      5  C   UNL     1      86.080  55.911  45.003  0.00  0.00    +0.131 C 
ATOM      6  C   UNL     1      86.126  57.453  45.095  0.00  0.00    +0.010 C 
ATOM      7  O   UNL     1      86.593  55.340  46.216  0.00  0.00    -0.222 OA
ATOM      8  O   UNL     1      86.806  53.997  46.161  0.00  0.00    -0.223 OA
ATOM      9  C   UNL     1      86.292  53.389  44.974  0.00  0.00    +0.129 C 
ATOM     10  C   UNL     1      84.765  53.763  44.926  0.00  0.00    +0.003 C 
ATOM     11  C   UNL     1      83.932  52.899  43.929  0.00  0.00    -0.046 C 
ATOM     12  C   UNL     1      84.176  51.379  44.108  0.00  0.00    -0.047 C 
ATOM     13  C   UNL     1      85.684  51.036  44.005  0.00  0.00    -0.023 C 
ATOM     14  C   UNL     1      86.433  51.857  45.073  0.00  0.00    +0.001 C 
ATOM     15  C   UNL     1      87.809  51.215  45.193  0.00  0.00    -0.046 C 
ATOM     16  C   UNL     1      87.550  49.721  44.909  0.00  0.00    -0.049 C 
ATOM     17  C   UNL     1      86.061  49.607  44.482  0.00  0.00    -0.029 C 
ATOM     18  C   UNL     1      86.181  51.274  42.548  0.00  0.00    -0.059 C 
ATOM     19  C   UNL     1      87.044  54.057  43.843  0.00  0.00    -0.050 C 
ATOM     20  C   UNL     1      86.966  55.390  43.881  0.00  0.00    -0.050 C 
ATOM     21  C   UNL     1      84.075  55.777  43.401  0.00  0.00    -0.056 C 
ENDROOT
BRANCH   1  22
ATOM     22  O   UNL     1      84.102  58.791  45.189  0.00  0.00    -0.392 OA
ATOM     23  H   UNL     1      84.573  59.501  44.725  0.00  0.00    +0.000 HD
ENDBRANCH   1  22
BRANCH  17  24
ATOM     24  C   UNL     1      85.663  48.398  43.573  0.00  0.00    -0.022 C 
ATOM     25  C   UNL     1      84.560  47.548  44.229  0.00  0.00    -0.059 C 
BRANCH  24  26
ATOM     26  C   UNL     1      86.798  47.517  43.070  0.00  0.00    -0.085 C 
ATOM     27  C   UNL     1      87.565  47.810  42.001  0.00  0.00    -0.085 C 
BRANCH  27  28
ATOM     28  C   UNL     1      88.818  47.021  41.669  0.00  0.00    -0.023 C 
ATOM     29  C   UNL     1      88.771  45.659  42.380  0.00  0.00    -0.059 C 
BRANCH  28  30
ATOM     30  C   UNL     1      90.143  47.776  41.989  0.00  0.00    -0.041 C 
ATOM     31  C   UNL     1      90.712  47.457  43.383  0.00  0.00    -0.062 C 
ATOM     32  C   UNL     1      89.998  49.296  41.811  0.00  0.00    -0.062 C 
ENDBRANCH  28  30
ENDBRANCH  27  28
ENDBRANCH  24  26
ENDBRANCH  17  24
TORSDOF 5
ENDMDL
MODEL 3
REMARK VINA RESULT:   -10.497      3.487      8.156
REMARK INTER + INTRA:         -13.212
REMARK INTER:                 -13.239
REMARK INTRA:                   0.028
REMARK UNBOUND:                 0.047
REMARK  Name = 
REMARK  11 active torsions:
REMARK  status: ('A' for Active; 'I' for Inactive)
REMARK    1  A    between atoms: O_1  and  C_2
REMARK    2  A    between atoms: C_5  and  C_31
REMARK    3  A    between atoms: C_14  and  C_28
REMARK    4  A    between atoms: C_18  and  C_19
REMARK    5  A    between atoms: C_19  and  C_20
REMARK    6  A    between atoms: C_19  and  C_27
REMARK    7  A    between atoms: C_21  and  C_22
REMARK    8  A    between atoms: C_22  and  C_23
REMARK    9  A    between atoms: C_22  and  C_26
REMARK   10  A    between atoms: C_23  and  C_24
REMARK   11  A    between atoms: C_23  and  C_25
REMARK                            x       y       z     vdW  Elec       q    Type
REMARK                         _______ _______ _______ _____ _____    ______ ____
ROOT
ATOM      1  C   UNL     1      89.207  50.797  40.210  0.00  0.00    +0.058 C 
ATOM      2  C   UNL     1      89.923  51.835  41.087  0.00  0.00    -0.026 C 
ATOM      3  C   UNL     1      88.947  52.866  41.684  0.00  0.00    -0.042 C 
ATOM      4  C   UNL     1      87.633  52.246  42.303  0.00  0.00    +0.010 C 
ATOM      5  C   UNL     1      87.709  50.669  42.330  0.00  0.00    +0.131 C 
ATOM      6  C   UNL     1      88.065  50.056  40.956  0.00  0.00    +0.010 C 
ATOM      7  O   UNL     1      88.709  50.305  43.294  0.00  0.00    -0.222 OA
ATOM      8  O   UNL     1      88.384  50.603  44.581  0.00  0.00    -0.223 OA
ATOM      9  C   UNL     1      87.201  51.395  44.700  0.00  0.00    +0.129 C 
ATOM     10  C   UNL     1      87.454  52.679  43.828  0.00  0.00    +0.003 C 
ATOM     11  C   UNL     1      86.458  53.846  44.114  0.00  0.00    -0.046 C 
ATOM     12  C   UNL     1      86.325  54.160  45.625  0.00  0.00    -0.047 C 
ATOM     13  C   UNL     1      85.933  52.894  46.430  0.00  0.00    -0.023 C 
ATOM     14  C   UNL     1      87.003  51.816  46.171  0.00  0.00    +0.001 C 
ATOM     15  C   UNL     1      86.796  50.763  47.253  0.00  0.00    -0.046 C 
ATOM     16  C   UNL     1      86.294  51.572  48.467  0.00  0.00    -0.049 C 
ATOM     17  C   UNL     1      86.086  53.028  47.970  0.00  0.00    -0.029 C 
ATOM     18  C   UNL     1      84.484  52.462  46.061  0.00  0.00    -0.059 C 
ATOM     19  C   UNL     1      86.105  50.543  44.096  0.00  0.00    -0.050 C 
ATOM     20  C   UNL     1      86.391  50.126  42.860  0.00  0.00    -0.050 C 
ATOM     21  C   UNL     1      86.434  52.705  41.416  0.00  0.00    -0.056 C 
ENDROOT
BRANCH   1  22
ATOM     22  O   UNL     1      88.703  51.439  39.065  0.00  0.00    -0.392 OA
ATOM     23  H   UNL     1      88.343  52.305  39.313  0.00  0.00    +0.000 HD
ENDBRANCH   1  22
BRANCH  17  24
ATOM     24  C   UNL     1      85.048  53.910  48.738  0.00  0.00    -0.022 C 
ATOM     25  C   UNL     1      83.849  53.070  49.217  0.00  0.00    -0.059 C 
BRANCH  24  26
ATOM     26  C   UNL     1      84.576  55.177  48.038  0.00  0.00    -0.085 C 
ATOM     27  C   UNL     1      85.400  56.152  47.605  0.00  0.00    -0.085 C 
BRANCH  27  28
ATOM     28  C   UNL     1      84.910  57.285  46.722  0.00  0.00    -0.023 C 
ATOM     29  C   UNL     1      83.394  57.457  46.900  0.00  0.00    -0.059 C 
BRANCH  28  30
ATOM     30  C   UNL     1      85.285  57.120  45.218  0.00  0.00    -0.041 C 
ATOM     31  C   UNL     1      85.931  58.375  44.603  0.00  0.00    -0.062 C 
ATOM     32  C   UNL     1      84.084  56.673  44.370  0.00  0.00    -0.062 C 
ENDBRANCH  28  30
ENDBRANCH  27  28
ENDBRANCH  24  26
ENDBRANCH  17  24
TORSDOF 5
ENDMDL
MODEL 4
REMARK VINA RESULT:   -10.121      2.849      8.517
REMARK INTER + INTRA:         -12.737
REMARK INTER:                 -12.017
REMARK INTRA:                  -0.720
REMARK UNBOUND:                 0.047
REMARK  Name = 
REMARK  11 active torsions:
REMARK  status: ('A' for Active; 'I' for Inactive)
REMARK    1  A    between atoms: O_1  and  C_2
REMARK    2  A    between atoms: C_5  and  C_31
REMARK    3  A    between atoms: C_14  and  C_28
REMARK    4  A    between atoms: C_18  and  C_19
REMARK    5  A    between atoms: C_19  and  C_20
REMARK    6  A    between atoms: C_19  and  C_27
REMARK    7  A    between atoms: C_21  and  C_22
REMARK    8  A    between atoms: C_22  and  C_23
REMARK    9  A    between atoms: C_22  and  C_26
REMARK   10  A    between atoms: C_23  and  C_24
REMARK   11  A    between atoms: C_23  and  C_25
REMARK                            x       y       z     vdW  Elec       q    Type
REMARK                         _______ _______ _______ _____ _____    ______ ____
ROOT
ATOM      1  C   UNL     1      90.294  47.367  42.068  0.00  0.00    +0.058 C 
ATOM      2  C   UNL     1      88.826  47.038  41.757  0.00  0.00    -0.026 C 
ATOM      3  C   UNL     1      87.853  47.768  42.701  0.00  0.00    -0.042 C 
ATOM      4  C   UNL     1      88.174  49.299  42.920  0.00  0.00    +0.010 C 
ATOM      5  C   UNL     1      89.332  49.778  41.960  0.00  0.00    +0.131 C 
ATOM      6  C   UNL     1      90.593  48.889  42.042  0.00  0.00    +0.010 C 
ATOM      7  O   UNL     1      88.814  49.757  40.621  0.00  0.00    -0.222 OA
ATOM      8  O   UNL     1      87.839  50.675  40.380  0.00  0.00    -0.223 OA
ATOM      9  C   UNL     1      87.385  51.344  41.558  0.00  0.00    +0.129 C 
ATOM     10  C   UNL     1      86.919  50.211  42.544  0.00  0.00    +0.003 C 
ATOM     11  C   UNL     1      86.044  50.723  43.730  0.00  0.00    -0.046 C 
ATOM     12  C   UNL     1      84.879  51.631  43.262  0.00  0.00    -0.047 C 
ATOM     13  C   UNL     1      85.399  52.818  42.412  0.00  0.00    -0.023 C 
ATOM     14  C   UNL     1      86.178  52.240  41.214  0.00  0.00    +0.001 C 
ATOM     15  C   UNL     1      86.328  53.392  40.228  0.00  0.00    -0.046 C 
ATOM     16  C   UNL     1      85.047  54.225  40.431  0.00  0.00    -0.049 C 
ATOM     17  C   UNL     1      84.300  53.597  41.638  0.00  0.00    -0.029 C 
ATOM     18  C   UNL     1      86.226  53.787  43.308  0.00  0.00    -0.059 C 
ATOM     19  C   UNL     1      88.611  52.052  42.095  0.00  0.00    -0.050 C 
ATOM     20  C   UNL     1      89.651  51.233  42.269  0.00  0.00    -0.050 C 
ATOM     21  C   UNL     1      88.608  49.479  44.408  0.00  0.00    -0.056 C 
ENDROOT
BRANCH   1  22
ATOM     22  O   UNL     1      90.624  46.826  43.324  0.00  0.00    -0.392 OA
ATOM     23  H   UNL     1      91.589  46.737  43.393  0.00  0.00    +0.000 HD
ENDBRANCH   1  22
BRANCH  17  24
ATOM     24  C   UNL     1      83.342  54.525  42.456  0.00  0.00    -0.022 C 
ATOM     25  C   UNL     1      82.048  54.816  41.674  0.00  0.00    -0.059 C 
BRANCH  24  26
ATOM     26  C   UNL     1      83.942  55.811  43.007  0.00  0.00    -0.085 C 
ATOM     27  C   UNL     1      83.764  56.246  44.270  0.00  0.00    -0.085 C 
BRANCH  27  28
ATOM     28  C   UNL     1      84.554  57.410  44.839  0.00  0.00    -0.023 C 
ATOM     29  C   UNL     1      85.770  57.692  43.943  0.00  0.00    -0.059 C 
BRANCH  28  30
ATOM     30  C   UNL     1      84.984  57.215  46.325  0.00  0.00    -0.041 C 
ATOM     31  C   UNL     1      86.100  56.171  46.511  0.00  0.00    -0.062 C 
ATOM     32  C   UNL     1      83.790  56.881  47.233  0.00  0.00    -0.062 C 
ENDBRANCH  28  30
ENDBRANCH  27  28
ENDBRANCH  24  26
ENDBRANCH  17  24
TORSDOF 5
ENDMDL
MODEL 5
REMARK VINA RESULT:    -9.938      2.936      4.279
REMARK INTER + INTRA:         -12.506
REMARK INTER:                 -12.042
REMARK INTRA:                  -0.464
REMARK UNBOUND:                 0.047
REMARK  Name = 
REMARK  11 active torsions:
REMARK  status: ('A' for Active; 'I' for Inactive)
REMARK    1  A    between atoms: O_1  and  C_2
REMARK    2  A    between atoms: C_5  and  C_31
REMARK    3  A    between atoms: C_14  and  C_28
REMARK    4  A    between atoms: C_18  and  C_19
REMARK    5  A    between atoms: C_19  and  C_20
REMARK    6  A    between atoms: C_19  and  C_27
REMARK    7  A    between atoms: C_21  and  C_22
REMARK    8  A    between atoms: C_22  and  C_23
REMARK    9  A    between atoms: C_22  and  C_26
REMARK   10  A    between atoms: C_23  and  C_24
REMARK   11  A    between atoms: C_23  and  C_25
REMARK                            x       y       z     vdW  Elec       q    Type
REMARK                         _______ _______ _______ _____ _____    ______ ____
ROOT
ATOM      1  C   UNL     1      85.207  58.156  45.789  0.00  0.00    +0.058 C 
ATOM      2  C   UNL     1      84.491  57.217  46.771  0.00  0.00    -0.026 C 
ATOM      3  C   UNL     1      83.765  56.065  46.053  0.00  0.00    -0.042 C 
ATOM      4  C   UNL     1      84.614  55.352  44.928  0.00  0.00    +0.010 C 
ATOM      5  C   UNL     1      86.103  55.875  44.926  0.00  0.00    +0.131 C 
ATOM      6  C   UNL     1      86.205  57.415  44.859  0.00  0.00    +0.010 C 
ATOM      7  O   UNL     1      86.724  55.403  46.131  0.00  0.00    -0.222 OA
ATOM      8  O   UNL     1      86.890  54.054  46.188  0.00  0.00    -0.223 OA
ATOM      9  C   UNL     1      86.236  53.356  45.127  0.00  0.00    +0.129 C 
ATOM     10  C   UNL     1      84.725  53.783  45.197  0.00  0.00    +0.003 C 
ATOM     11  C   UNL     1      83.767  52.861  44.381  0.00  0.00    -0.046 C 
ATOM     12  C   UNL     1      83.983  51.357  44.685  0.00  0.00    -0.047 C 
ATOM     13  C   UNL     1      85.461  50.947  44.463  0.00  0.00    -0.023 C 
ATOM     14  C   UNL     1      86.342  51.835  45.363  0.00  0.00    +0.001 C 
ATOM     15  C   UNL     1      87.704  51.154  45.405  0.00  0.00    -0.046 C 
ATOM     16  C   UNL     1      87.372  49.651  45.299  0.00  0.00    -0.049 C 
ATOM     17  C   UNL     1      85.844  49.556  45.040  0.00  0.00    -0.029 C 
ATOM     18  C   UNL     1      85.809  51.023  42.947  0.00  0.00    -0.059 C 
ATOM     19  C   UNL     1      86.885  53.882  43.864  0.00  0.00    -0.050 C 
ATOM     20  C   UNL     1      86.850  55.214  43.777  0.00  0.00    -0.050 C 
ATOM     21  C   UNL     1      83.938  55.667  43.558  0.00  0.00    -0.056 C 
ENDROOT
BRANCH   1  22
ATOM     22  O   UNL     1      84.242  58.835  45.025  0.00  0.00    -0.392 OA
ATOM     23  H   UNL     1      83.668  58.190  44.581  0.00  0.00    +0.000 HD
ENDBRANCH   1  22
BRANCH  17  24
ATOM     24  C   UNL     1      85.317  48.282  44.300  0.00  0.00    -0.022 C 
ATOM     25  C   UNL     1      86.371  47.731  43.321  0.00  0.00    -0.059 C 
BRANCH  24  26
ATOM     26  C   UNL     1      83.958  48.397  43.623  0.00  0.00    -0.085 C 
ATOM     27  C   UNL     1      82.831  47.825  44.091  0.00  0.00    -0.085 C 
BRANCH  27  28
ATOM     28  C   UNL     1      81.466  48.145  43.512  0.00  0.00    -0.023 C 
ATOM     29  C   UNL     1      81.391  49.641  43.171  0.00  0.00    -0.059 C 
BRANCH  28  30
ATOM     30  C   UNL     1      80.277  47.717  44.424  0.00  0.00    -0.041 C 
ATOM     31  C   UNL     1      79.792  48.831  45.369  0.00  0.00    -0.062 C 
ATOM     32  C   UNL     1      80.592  46.444  45.225  0.00  0.00    -0.062 C 
ENDBRANCH  28  30
ENDBRANCH  27  28
ENDBRANCH  24  26
ENDBRANCH  17  24
TORSDOF 5
ENDMDL
MODEL 6
REMARK VINA RESULT:    -9.927      2.724      8.103
REMARK INTER + INTRA:         -12.492
REMARK INTER:                 -12.013
REMARK INTRA:                  -0.479
REMARK UNBOUND:                 0.047
REMARK  Name = 
REMARK  11 active torsions:
REMARK  status: ('A' for Active; 'I' for Inactive)
REMARK    1  A    between atoms: O_1  and  C_2
REMARK    2  A    between atoms: C_5  and  C_31
REMARK    3  A    between atoms: C_14  and  C_28
REMARK    4  A    between atoms: C_18  and  C_19
REMARK    5  A    between atoms: C_19  and  C_20
REMARK    6  A    between atoms: C_19  and  C_27
REMARK    7  A    between atoms: C_21  and  C_22
REMARK    8  A    between atoms: C_22  and  C_23
REMARK    9  A    between atoms: C_22  and  C_26
REMARK   10  A    between atoms: C_23  and  C_24
REMARK   11  A    between atoms: C_23  and  C_25
REMARK                            x       y       z     vdW  Elec       q    Type
REMARK                         _______ _______ _______ _____ _____    ______ ____
ROOT
ATOM      1  C   UNL     1      90.148  47.497  42.576  0.00  0.00    +0.058 C 
ATOM      2  C   UNL     1      90.892  48.821  42.804  0.00  0.00    -0.026 C 
ATOM      3  C   UNL     1      90.123  50.028  42.237  0.00  0.00    -0.042 C 
ATOM      4  C   UNL     1      88.582  50.047  42.584  0.00  0.00    +0.010 C 
ATOM      5  C   UNL     1      88.217  48.900  43.605  0.00  0.00    +0.131 C 
ATOM      6  C   UNL     1      88.705  47.506  43.149  0.00  0.00    +0.010 C 
ATOM      7  O   UNL     1      88.824  49.236  44.862  0.00  0.00    -0.222 OA
ATOM      8  O   UNL     1      88.299  50.337  45.464  0.00  0.00    -0.223 OA
ATOM      9  C   UNL     1      87.384  51.055  44.635  0.00  0.00    +0.129 C 
ATOM     10  C   UNL     1      88.175  51.403  43.321  0.00  0.00    +0.003 C 
ATOM     11  C   UNL     1      87.496  52.501  42.445  0.00  0.00    -0.046 C 
ATOM     12  C   UNL     1      87.103  53.757  43.262  0.00  0.00    -0.047 C 
ATOM     13  C   UNL     1      86.203  53.384  44.467  0.00  0.00    -0.023 C 
ATOM     14  C   UNL     1      86.968  52.366  45.334  0.00  0.00    +0.001 C 
ATOM     15  C   UNL     1      86.233  52.328  46.668  0.00  0.00    -0.046 C 
ATOM     16  C   UNL     1      85.700  53.765  46.840  0.00  0.00    -0.049 C 
ATOM     17  C   UNL     1      86.019  54.514  45.518  0.00  0.00    -0.029 C 
ATOM     18  C   UNL     1      84.819  52.883  43.958  0.00  0.00    -0.059 C 
ATOM     19  C   UNL     1      86.271  50.070  44.347  0.00  0.00    -0.050 C 
ATOM     20  C   UNL     1      86.715  48.917  43.841  0.00  0.00    -0.050 C 
ATOM     21  C   UNL     1      87.798  49.843  41.251  0.00  0.00    -0.056 C 
ENDROOT
BRANCH   1  22
ATOM     22  O   UNL     1      90.122  47.222  41.197  0.00  0.00    -0.392 OA
ATOM     23  H   UNL     1      89.375  46.635  40.999  0.00  0.00    +0.000 HD
ENDBRANCH   1  22
BRANCH  17  24
ATOM     24  C   UNL     1      85.111  55.729  45.140  0.00  0.00    -0.022 C 
ATOM     25  C   UNL     1      84.335  56.246  46.366  0.00  0.00    -0.059 C 
BRANCH  24  26
ATOM     26  C   UNL     1      84.180  55.544  43.949  0.00  0.00    -0.085 C 
ATOM     27  C   UNL     1      84.401  56.073  42.729  0.00  0.00    -0.085 C 
BRANCH  27  28
ATOM     28  C   UNL     1      83.569  55.684  41.521  0.00  0.00    -0.023 C 
ATOM     29  C   UNL     1      82.570  54.586  41.918  0.00  0.00    -0.059 C 
BRANCH  28  30
ATOM     30  C   UNL     1      84.415  55.253  40.284  0.00  0.00    -0.041 C 
ATOM     31  C   UNL     1      83.741  55.570  38.937  0.00  0.00    -0.062 C 
ATOM     32  C   UNL     1      84.810  53.769  40.343  0.00  0.00    -0.062 C 
ENDBRANCH  28  30
ENDBRANCH  27  28
ENDBRANCH  24  26
ENDBRANCH  17  24
TORSDOF 5
ENDMDL
MODEL 7
REMARK VINA RESULT:    -9.914      3.116      8.529
REMARK INTER + INTRA:         -12.475
REMARK INTER:                 -12.043
REMARK INTRA:                  -0.432
REMARK UNBOUND:                 0.047
REMARK  Name = 
REMARK  11 active torsions:
REMARK  status: ('A' for Active; 'I' for Inactive)
REMARK    1  A    between atoms: O_1  and  C_2
REMARK    2  A    between atoms: C_5  and  C_31
REMARK    3  A    between atoms: C_14  and  C_28
REMARK    4  A    between atoms: C_18  and  C_19
REMARK    5  A    between atoms: C_19  and  C_20
REMARK    6  A    between atoms: C_19  and  C_27
REMARK    7  A    between atoms: C_21  and  C_22
REMARK    8  A    between atoms: C_22  and  C_23
REMARK    9  A    between atoms: C_22  and  C_26
REMARK   10  A    between atoms: C_23  and  C_24
REMARK   11  A    between atoms: C_23  and  C_25
REMARK                            x       y       z     vdW  Elec       q    Type
REMARK                         _______ _______ _______ _____ _____    ______ ____
ROOT
ATOM      1  C   UNL     1      89.694  48.480  41.783  0.00  0.00    +0.058 C 
ATOM      2  C   UNL     1      90.381  49.731  42.351  0.00  0.00    -0.026 C 
ATOM      3  C   UNL     1      89.410  50.917  42.492  0.00  0.00    -0.042 C 
ATOM      4  C   UNL     1      88.017  50.552  43.143  0.00  0.00    +0.010 C 
ATOM      5  C   UNL     1      88.014  49.066  43.676  0.00  0.00    +0.131 C 
ATOM      6  C   UNL     1      88.457  48.039  42.610  0.00  0.00    +0.010 C 
ATOM      7  O   UNL     1      88.907  49.012  44.799  0.00  0.00    -0.222 OA
ATOM      8  O   UNL     1      88.486  49.712  45.887  0.00  0.00    -0.223 OA
ATOM      9  C   UNL     1      87.338  50.523  45.632  0.00  0.00    +0.129 C 
ATOM     10  C   UNL     1      87.728  51.455  44.427  0.00  0.00    +0.003 C 
ATOM     11  C   UNL     1      86.770  52.670  44.229  0.00  0.00    -0.046 C 
ATOM     12  C   UNL     1      86.522  53.454  45.542  0.00  0.00    -0.047 C 
ATOM     13  C   UNL     1      86.000  52.521  46.663  0.00  0.00    -0.023 C 
ATOM     14  C   UNL     1      87.034  51.396  46.866  0.00  0.00    +0.001 C 
ATOM     15  C   UNL     1      86.682  50.750  48.200  0.00  0.00    -0.046 C 
ATOM     16  C   UNL     1      86.117  51.914  49.040  0.00  0.00    -0.049 C 
ATOM     17  C   UNL     1      86.024  53.138  48.089  0.00  0.00    -0.029 C 
ATOM     18  C   UNL     1      84.568  52.020  46.311  0.00  0.00    -0.059 C 
ATOM     19  C   UNL     1      86.258  49.543  45.225  0.00  0.00    -0.050 C 
ATOM     20  C   UNL     1      86.629  48.747  44.219  0.00  0.00    -0.050 C 
ATOM     21  C   UNL     1      86.925  50.725  42.043  0.00  0.00    -0.056 C 
ENDROOT
BRANCH   1  22
ATOM     22  O   UNL     1      89.324  48.730  40.450  0.00  0.00    -0.392 OA
ATOM     23  H   UNL     1      88.532  48.214  40.232  0.00  0.00    +0.000 HD
ENDBRANCH   1  22
BRANCH  17  24
ATOM     24  C   UNL     1      84.968  54.239  48.432  0.00  0.00    -0.022 C 
ATOM     25  C   UNL     1      83.610  53.613  48.798  0.00  0.00    -0.059 C 
BRANCH  24  26
ATOM     26  C   UNL     1      84.791  55.358  47.415  0.00  0.00    -0.085 C 
ATOM     27  C   UNL     1      85.565  56.461  47.363  0.00  0.00    -0.085 C 
BRANCH  27  28
ATOM     28  C   UNL     1      85.496  57.439  46.205  0.00  0.00    -0.023 C 
ATOM     29  C   UNL     1      84.250  58.326  46.355  0.00  0.00    -0.059 C 
BRANCH  28  30
ATOM     30  C   UNL     1      85.536  56.760  44.803  0.00  0.00    -0.041 C 
ATOM     31  C   UNL     1      86.961  56.467  44.300  0.00  0.00    -0.062 C 
ATOM     32  C   UNL     1      84.757  57.563  43.749  0.00  0.00    -0.062 C 
ENDBRANCH  28  30
ENDBRANCH  27  28
ENDBRANCH  24  26
ENDBRANCH  17  24
TORSDOF 5
ENDMDL
