MODEL 1
REMARK VINA RESULT:    -6.743      0.000      0.000
REMARK INTER + INTRA:          -7.771
REMARK INTER:                  -7.533
REMARK INTRA:                  -0.239
REMARK UNBOUND:                -0.240
REMARK  Name = 
REMARK  3 active torsions:
REMARK  status: ('A' for Active; 'I' for Inactive)
REMARK    1  A    between atoms: C_1  and  C_2
REMARK    2  A    between atoms: C_2  and  C_4
REMARK    3  A    between atoms: C_5  and  C_6
REMARK                            x       y       z     vdW  Elec       q    Type
REMARK                         _______ _______ _______ _____ _____    ______ ____
ROOT
ATOM      1  C   UNL     1      85.763  54.393  46.834  0.00  0.00    -0.023 A 
ATOM      2  C   UNL     1      84.790  55.080  47.615  0.00  0.00    -0.054 A 
ATOM      3  C   UNL     1      84.421  56.401  47.304  0.00  0.00    -0.052 A 
ATOM      4  C   UNL     1      85.026  57.006  46.209  0.00  0.00    -0.000 A 
ATOM      5  C   UNL     1      85.950  56.352  45.442  0.00  0.00    +0.047 A 
ATOM      6  C   UNL     1      86.340  55.044  45.719  0.00  0.00    -0.031 A 
ATOM      7  N   UNL     1      86.383  57.139  44.442  0.00  0.00    -0.361 N 
ATOM      8  C   UNL     1      85.720  58.310  44.580  0.00  0.00    +0.003 A 
ATOM      9  C   UNL     1      84.861  58.265  45.673  0.00  0.00    -0.037 A 
ATOM     10  H   UNL     1      87.045  56.909  43.751  0.00  0.00    +0.000 HD
ENDROOT
BRANCH   1  12
ATOM     11  C   UNL     1      87.046  52.311  46.369  0.00  0.00    -0.059 C 
ATOM     12  C   UNL     1      86.169  52.996  47.120  0.00  0.00    -0.054 C 
BRANCH  11  14
ATOM     13  C   UNL     1      87.582  50.406  48.073  0.00  0.00    -0.040 C 
ATOM     14  C   UNL     1      87.441  50.908  46.659  0.00  0.00    -0.058 C 
ATOM     15  C   UNL     1      87.667  50.074  45.637  0.00  0.00    -0.096 C 
ENDBRANCH  11  14
ENDBRANCH   1  12
TORSDOF 2
ENDMDL
MODEL 2
REMARK VINA RESULT:    -6.564      7.038      8.709
REMARK INTER + INTRA:          -7.571
REMARK INTER:                  -7.329
REMARK INTRA:                  -0.243
REMARK UNBOUND:                -0.240
REMARK  Name = 
REMARK  3 active torsions:
REMARK  status: ('A' for Active; 'I' for Inactive)
REMARK    1  A    between atoms: C_1  and  C_2
REMARK    2  A    between atoms: C_2  and  C_4
REMARK    3  A    between atoms: C_5  and  C_6
REMARK                            x       y       z     vdW  Elec       q    Type
REMARK                         _______ _______ _______ _____ _____    ______ ____
ROOT
ATOM      1  C   UNL     1      88.521  47.431  42.104  0.00  0.00    -0.023 A 
ATOM      2  C   UNL     1      89.922  47.678  42.165  0.00  0.00    -0.054 A 
ATOM      3  C   UNL     1      90.439  48.957  41.890  0.00  0.00    -0.052 A 
ATOM      4  C   UNL     1      89.541  49.968  41.569  0.00  0.00    -0.000 A 
ATOM      5  C   UNL     1      88.192  49.747  41.522  0.00  0.00    +0.047 A 
ATOM      6  C   UNL     1      87.644  48.494  41.788  0.00  0.00    -0.031 A 
ATOM      7  N   UNL     1      87.535  50.873  41.198  0.00  0.00    -0.361 N 
ATOM      8  C   UNL     1      88.486  51.822  41.039  0.00  0.00    +0.003 A 
ATOM      9  C   UNL     1      89.753  51.294  41.263  0.00  0.00    -0.037 A 
ATOM     10  H   UNL     1      86.562  50.984  41.098  0.00  0.00    +0.000 HD
ENDROOT
BRANCH   1  12
ATOM     11  C   UNL     1      88.636  45.084  42.926  0.00  0.00    -0.059 C 
ATOM     12  C   UNL     1      87.936  46.100  42.399  0.00  0.00    -0.054 C 
BRANCH  11  14
ATOM     13  C   UNL     1      88.579  42.873  44.315  0.00  0.00    -0.040 C 
ATOM     14  C   UNL     1      88.044  43.751  43.211  0.00  0.00    -0.058 C 
ATOM     15  C   UNL     1      87.009  43.330  42.476  0.00  0.00    -0.096 C 
ENDBRANCH  11  14
ENDBRANCH   1  12
TORSDOF 2
ENDMDL
MODEL 3
REMARK VINA RESULT:    -6.509      6.553      9.960
REMARK INTER + INTRA:          -7.510
REMARK INTER:                  -7.277
REMARK INTRA:                  -0.233
REMARK UNBOUND:                -0.240
REMARK  Name = 
REMARK  3 active torsions:
REMARK  status: ('A' for Active; 'I' for Inactive)
REMARK    1  A    between atoms: C_1  and  C_2
REMARK    2  A    between atoms: C_2  and  C_4
REMARK    3  A    between atoms: C_5  and  C_6
REMARK                            x       y       z     vdW  Elec       q    Type
REMARK                         _______ _______ _______ _____ _____    ______ ____
ROOT
ATOM      1  C   UNL     1      88.742  48.729  41.850  0.00  0.00    -0.023 A 
ATOM      2  C   UNL     1      89.989  48.042  41.816  0.00  0.00    -0.054 A 
ATOM      3  C   UNL     1      90.063  46.672  42.130  0.00  0.00    -0.052 A 
ATOM      4  C   UNL     1      88.884  46.015  42.463  0.00  0.00    -0.000 A 
ATOM      5  C   UNL     1      87.679  46.661  42.483  0.00  0.00    +0.047 A 
ATOM      6  C   UNL     1      87.566  48.015  42.178  0.00  0.00    -0.031 A 
ATOM      7  N   UNL     1      86.691  45.816  42.825  0.00  0.00    -0.361 N 
ATOM      8  C   UNL     1      87.283  44.616  43.022  0.00  0.00    +0.003 A 
ATOM      9  C   UNL     1      88.654  44.701  42.804  0.00  0.00    -0.037 A 
ATOM     10  H   UNL     1      85.734  46.028  42.912  0.00  0.00    +0.000 HD
ENDROOT
BRANCH   1  12
ATOM     11  C   UNL     1      89.620  51.051  41.658  0.00  0.00    -0.059 C 
ATOM     12  C   UNL     1      88.620  50.168  41.512  0.00  0.00    -0.054 C 
BRANCH  11  14
ATOM     13  C   UNL     1      90.404  53.159  40.331  0.00  0.00    -0.040 C 
ATOM     14  C   UNL     1      89.487  52.493  41.326  0.00  0.00    -0.058 C 
ATOM     15  C   UNL     1      88.524  53.209  41.918  0.00  0.00    -0.096 C 
ENDBRANCH  11  14
ENDBRANCH   1  12
TORSDOF 2
ENDMDL
MODEL 4
REMARK VINA RESULT:    -6.387      3.350      5.276
REMARK INTER + INTRA:          -7.374
REMARK INTER:                  -7.144
REMARK INTRA:                  -0.230
REMARK UNBOUND:                -0.240
REMARK  Name = 
REMARK  3 active torsions:
REMARK  status: ('A' for Active; 'I' for Inactive)
REMARK    1  A    between atoms: C_1  and  C_2
REMARK    2  A    between atoms: C_2  and  C_4
REMARK    3  A    between atoms: C_5  and  C_6
REMARK                            x       y       z     vdW  Elec       q    Type
REMARK                         _______ _______ _______ _____ _____    ______ ____
ROOT
ATOM      1  C   UNL     1      87.511  50.851  45.545  0.00  0.00    -0.023 A 
ATOM      2  C   UNL     1      87.652  50.026  46.697  0.00  0.00    -0.054 A 
ATOM      3  C   UNL     1      87.119  50.425  47.937  0.00  0.00    -0.052 A 
ATOM      4  C   UNL     1      86.444  51.639  47.996  0.00  0.00    -0.000 A 
ATOM      5  C   UNL     1      86.288  52.432  46.893  0.00  0.00    +0.047 A 
ATOM      6  C   UNL     1      86.802  52.071  45.650  0.00  0.00    -0.031 A 
ATOM      7  N   UNL     1      85.598  53.544  47.199  0.00  0.00    -0.361 N 
ATOM      8  C   UNL     1      85.312  53.450  48.517  0.00  0.00    +0.003 A 
ATOM      9  C   UNL     1      85.824  52.272  49.050  0.00  0.00    -0.037 A 
ATOM     10  H   UNL     1      85.350  54.275  46.588  0.00  0.00    +0.000 HD
ENDROOT
BRANCH   1  12
ATOM     11  C   UNL     1      88.801  49.369  44.017  0.00  0.00    -0.059 C 
ATOM     12  C   UNL     1      88.047  50.461  44.219  0.00  0.00    -0.054 C 
BRANCH  11  14
ATOM     13  C   UNL     1      88.461  48.380  41.624  0.00  0.00    -0.040 C 
ATOM     14  C   UNL     1      89.342  48.989  42.686  0.00  0.00    -0.058 C 
ATOM     15  C   UNL     1      90.637  49.204  42.426  0.00  0.00    -0.096 C 
ENDBRANCH  11  14
ENDBRANCH   1  12
TORSDOF 2
ENDMDL
MODEL 5
REMARK VINA RESULT:    -6.379     12.212     13.853
REMARK INTER + INTRA:          -7.365
REMARK INTER:                  -7.125
REMARK INTRA:                  -0.240
REMARK UNBOUND:                -0.240
REMARK  Name = 
REMARK  3 active torsions:
REMARK  status: ('A' for Active; 'I' for Inactive)
REMARK    1  A    between atoms: C_1  and  C_2
REMARK    2  A    between atoms: C_2  and  C_4
REMARK    3  A    between atoms: C_5  and  C_6
REMARK                            x       y       z     vdW  Elec       q    Type
REMARK                         _______ _______ _______ _____ _____    ______ ____
ROOT
ATOM      1  C   UNL     1      83.577  50.527  58.985  0.00  0.00    -0.023 A 
ATOM      2  C   UNL     1      83.869  49.957  60.256  0.00  0.00    -0.054 A 
ATOM      3  C   UNL     1      83.557  50.646  61.442  0.00  0.00    -0.052 A 
ATOM      4  C   UNL     1      82.949  51.891  61.331  0.00  0.00    -0.000 A 
ATOM      5  C   UNL     1      82.649  52.443  60.116  0.00  0.00    +0.047 A 
ATOM      6  C   UNL     1      82.943  51.790  58.921  0.00  0.00    -0.031 A 
ATOM      7  N   UNL     1      82.062  53.641  60.268  0.00  0.00    -0.361 N 
ATOM      8  C   UNL     1      81.987  53.850  61.603  0.00  0.00    +0.003 A 
ATOM      9  C   UNL     1      82.531  52.777  62.301  0.00  0.00    -0.037 A 
ATOM     10  H   UNL     1      81.749  54.243  59.555  0.00  0.00    +0.000 HD
ENDROOT
BRANCH   1  12
ATOM     11  C   UNL     1      83.663  50.365  56.502  0.00  0.00    -0.059 C 
ATOM     12  C   UNL     1      83.878  49.827  57.713  0.00  0.00    -0.054 C 
BRANCH  11  14
ATOM     13  C   UNL     1      84.398  48.211  55.223  0.00  0.00    -0.040 C 
ATOM     14  C   UNL     1      83.959  49.653  55.231  0.00  0.00    -0.058 C 
ATOM     15  C   UNL     1      83.822  50.308  54.073  0.00  0.00    -0.096 C 
ENDBRANCH  11  14
ENDBRANCH   1  12
TORSDOF 2
ENDMDL
MODEL 6
REMARK VINA RESULT:    -6.342     11.091     13.032
REMARK INTER + INTRA:          -7.324
REMARK INTER:                  -7.084
REMARK INTRA:                  -0.240
REMARK UNBOUND:                -0.240
REMARK  Name = 
REMARK  3 active torsions:
REMARK  status: ('A' for Active; 'I' for Inactive)
REMARK    1  A    between atoms: C_1  and  C_2
REMARK    2  A    between atoms: C_2  and  C_4
REMARK    3  A    between atoms: C_5  and  C_6
REMARK                            x       y       z     vdW  Elec       q    Type
REMARK                         _______ _______ _______ _____ _____    ______ ____
ROOT
ATOM      1  C   UNL     1      83.970  50.023  57.815  0.00  0.00    -0.023 A 
ATOM      2  C   UNL     1      84.949  49.320  57.056  0.00  0.00    -0.054 A 
ATOM      3  C   UNL     1      84.935  49.364  55.650  0.00  0.00    -0.052 A 
ATOM      4  C   UNL     1      83.947  50.120  55.031  0.00  0.00    -0.000 A 
ATOM      5  C   UNL     1      83.012  50.812  55.749  0.00  0.00    +0.047 A 
ATOM      6  C   UNL     1      82.993  50.793  57.142  0.00  0.00    -0.031 A 
ATOM      7  N   UNL     1      82.173  51.470  54.931  0.00  0.00    -0.361 N 
ATOM      8  C   UNL     1      82.587  51.190  53.675  0.00  0.00    +0.003 A 
ATOM      9  C   UNL     1      83.694  50.349  53.696  0.00  0.00    -0.037 A 
ATOM     10  H   UNL     1      81.414  52.040  55.194  0.00  0.00    +0.000 HD
ENDROOT
BRANCH   1  12
ATOM     11  C   UNL     1      83.025  50.635  60.036  0.00  0.00    -0.059 C 
ATOM     12  C   UNL     1      83.958  50.012  59.298  0.00  0.00    -0.054 C 
BRANCH  11  14
ATOM     13  C   UNL     1      82.556  51.821  62.314  0.00  0.00    -0.040 C 
ATOM     14  C   UNL     1      83.026  50.627  61.522  0.00  0.00    -0.058 C 
ATOM     15  C   UNL     1      83.444  49.531  62.165  0.00  0.00    -0.096 C 
ENDBRANCH  11  14
ENDBRANCH   1  12
TORSDOF 2
ENDMDL
MODEL 7
REMARK VINA RESULT:    -6.342      1.105      2.014
REMARK INTER + INTRA:          -7.323
REMARK INTER:                  -7.082
REMARK INTRA:                  -0.242
REMARK UNBOUND:                -0.240
REMARK  Name = 
REMARK  3 active torsions:
REMARK  status: ('A' for Active; 'I' for Inactive)
REMARK    1  A    between atoms: C_1  and  C_2
REMARK    2  A    between atoms: C_2  and  C_4
REMARK    3  A    between atoms: C_5  and  C_6
REMARK                            x       y       z     vdW  Elec       q    Type
REMARK                         _______ _______ _______ _____ _____    ______ ____
ROOT
ATOM      1  C   UNL     1      86.031  54.624  46.271  0.00  0.00    -0.023 A 
ATOM      2  C   UNL     1      86.856  55.113  45.219  0.00  0.00    -0.054 A 
ATOM      3  C   UNL     1      86.677  56.413  44.710  0.00  0.00    -0.052 A 
ATOM      4  C   UNL     1      85.681  57.201  45.272  0.00  0.00    -0.000 A 
ATOM      5  C   UNL     1      84.892  56.748  46.293  0.00  0.00    +0.047 A 
ATOM      6  C   UNL     1      85.040  55.469  46.823  0.00  0.00    -0.031 A 
ATOM      7  N   UNL     1      84.011  57.691  46.670  0.00  0.00    -0.361 N 
ATOM      8  C   UNL     1      84.250  58.758  45.874  0.00  0.00    +0.003 A 
ATOM      9  C   UNL     1      85.287  58.490  44.987  0.00  0.00    -0.037 A 
ATOM     10  H   UNL     1      83.334  57.620  47.380  0.00  0.00    +0.000 HD
ENDROOT
BRANCH   1  12
ATOM     11  C   UNL     1      87.021  52.341  46.329  0.00  0.00    -0.059 C 
ATOM     12  C   UNL     1      86.196  53.266  46.844  0.00  0.00    -0.054 C 
BRANCH  11  14
ATOM     13  C   UNL     1      87.540  49.798  46.042  0.00  0.00    -0.040 C 
ATOM     14  C   UNL     1      87.175  50.979  46.904  0.00  0.00    -0.058 C 
ATOM     15  C   UNL     1      86.992  50.805  48.218  0.00  0.00    -0.096 C 
ENDBRANCH  11  14
ENDBRANCH   1  12
TORSDOF 2
ENDMDL
MODEL 8
REMARK VINA RESULT:    -6.211      2.571      3.846
REMARK INTER + INTRA:          -7.177
REMARK INTER:                  -6.941
REMARK INTRA:                  -0.236
REMARK UNBOUND:                -0.240
REMARK  Name = 
REMARK  3 active torsions:
REMARK  status: ('A' for Active; 'I' for Inactive)
REMARK    1  A    between atoms: C_1  and  C_2
REMARK    2  A    between atoms: C_2  and  C_4
REMARK    3  A    between atoms: C_5  and  C_6
REMARK                            x       y       z     vdW  Elec       q    Type
REMARK                         _______ _______ _______ _____ _____    ______ ____
ROOT
ATOM      1  C   UNL     1      86.718  52.196  46.620  0.00  0.00    -0.023 A 
ATOM      2  C   UNL     1      86.530  51.620  47.908  0.00  0.00    -0.054 A 
ATOM      3  C   UNL     1      85.686  52.232  48.853  0.00  0.00    -0.052 A 
ATOM      4  C   UNL     1      85.039  53.406  48.485  0.00  0.00    -0.000 A 
ATOM      5  C   UNL     1      85.199  53.960  47.245  0.00  0.00    +0.047 A 
ATOM      6  C   UNL     1      86.026  53.383  46.284  0.00  0.00    -0.031 A 
ATOM      7  N   UNL     1      84.469  55.082  47.125  0.00  0.00    -0.361 N 
ATOM      8  C   UNL     1      83.835  55.237  48.310  0.00  0.00    +0.003 A 
ATOM      9  C   UNL     1      84.165  54.208  49.185  0.00  0.00    -0.037 A 
ATOM     10  H   UNL     1      84.407  55.668  46.337  0.00  0.00    +0.000 HD
ENDROOT
BRANCH   1  12
ATOM     11  C   UNL     1      87.348  51.652  44.273  0.00  0.00    -0.059 C 
ATOM     12  C   UNL     1      87.588  51.574  45.592  0.00  0.00    -0.054 C 
BRANCH  11  14
ATOM     13  C   UNL     1      88.744  49.616  43.423  0.00  0.00    -0.040 C 
ATOM     14  C   UNL     1      88.220  51.019  43.250  0.00  0.00    -0.058 C 
ATOM     15  C   UNL     1      88.536  51.710  42.149  0.00  0.00    -0.096 C 
ENDBRANCH  11  14
ENDBRANCH   1  12
TORSDOF 2
ENDMDL
MODEL 9
REMARK VINA RESULT:    -6.129      7.246      9.046
REMARK INTER + INTRA:          -7.086
REMARK INTER:                  -6.846
REMARK INTRA:                  -0.240
REMARK UNBOUND:                -0.240
REMARK  Name = 
REMARK  3 active torsions:
REMARK  status: ('A' for Active; 'I' for Inactive)
REMARK    1  A    between atoms: C_1  and  C_2
REMARK    2  A    between atoms: C_2  and  C_4
REMARK    3  A    between atoms: C_5  and  C_6
REMARK                            x       y       z     vdW  Elec       q    Type
REMARK                         _______ _______ _______ _____ _____    ______ ____
ROOT
ATOM      1  C   UNL     1      81.719  50.218  43.196  0.00  0.00    -0.023 A 
ATOM      2  C   UNL     1      80.311  50.429  43.171  0.00  0.00    -0.054 A 
ATOM      3  C   UNL     1      79.428  49.443  43.646  0.00  0.00    -0.052 A 
ATOM      4  C   UNL     1      79.973  48.267  44.148  0.00  0.00    -0.000 A 
ATOM      5  C   UNL     1      81.324  48.059  44.192  0.00  0.00    +0.047 A 
ATOM      6  C   UNL     1      82.229  49.012  43.731  0.00  0.00    -0.031 A 
ATOM      7  N   UNL     1      81.604  46.857  44.724  0.00  0.00    -0.361 N 
ATOM      8  C   UNL     1      80.409  46.297  45.022  0.00  0.00    +0.003 A 
ATOM      9  C   UNL     1      79.365  47.149  44.677  0.00  0.00    -0.037 A 
ATOM     10  H   UNL     1      82.495  46.466  44.868  0.00  0.00    +0.000 HD
ENDROOT
BRANCH   1  12
ATOM     11  C   UNL     1      82.317  52.439  42.245  0.00  0.00    -0.059 C 
ATOM     12  C   UNL     1      82.684  51.237  42.717  0.00  0.00    -0.054 C 
BRANCH  11  14
ATOM     13  C   UNL     1      83.098  54.922  42.033  0.00  0.00    -0.040 C 
ATOM     14  C   UNL     1      83.290  53.452  41.758  0.00  0.00    -0.058 C 
ATOM     15  C   UNL     1      84.362  53.044  41.070  0.00  0.00    -0.096 C 
ENDBRANCH  11  14
ENDBRANCH   1  12
TORSDOF 2
ENDMDL
