MODEL 1
REMARK VINA RESULT:    -6.725      0.000      0.000
REMARK INTER + INTRA:          -7.749
REMARK INTER:                  -7.515
REMARK INTRA:                  -0.234
REMARK UNBOUND:                -0.238
REMARK  Name = 
REMARK  3 active torsions:
REMARK  status: ('A' for Active; 'I' for Inactive)
REMARK    1  A    between atoms: C_1  and  C_2
REMARK    2  A    between atoms: C_2  and  C_4
REMARK    3  A    between atoms: C_5  and  C_6
REMARK                            x       y       z     vdW  Elec       q    Type
REMARK                         _______ _______ _______ _____ _____    ______ ____
ROOT
ATOM      1  C   UNL     1      85.975  54.401  47.152  0.00  0.00    -0.023 A 
ATOM      2  C   UNL     1      85.544  53.874  48.402  0.00  0.00    -0.054 A 
ATOM      3  C   UNL     1      85.718  52.512  48.706  0.00  0.00    -0.052 A 
ATOM      4  C   UNL     1      86.330  51.705  47.755  0.00  0.00    -0.000 A 
ATOM      5  C   UNL     1      86.762  52.202  46.557  0.00  0.00    +0.047 A 
ATOM      6  C   UNL     1      86.608  53.545  46.221  0.00  0.00    -0.031 A 
ATOM      7  N   UNL     1      87.325  51.234  45.813  0.00  0.00    -0.361 N 
ATOM      8  C   UNL     1      87.248  50.107  46.556  0.00  0.00    +0.003 A 
ATOM      9  C   UNL     1      86.632  50.361  47.777  0.00  0.00    -0.037 A 
ATOM     10  H   UNL     1      87.714  51.328  44.914  0.00  0.00    +0.000 HD
ENDROOT
BRANCH   1  12
ATOM     11  C   UNL     1      85.586  56.268  45.550  0.00  0.00    -0.059 C 
ATOM     12  C   UNL     1      85.822  55.834  46.799  0.00  0.00    -0.054 C 
BRANCH  11  14
ATOM     13  C   UNL     1      84.592  58.633  46.033  0.00  0.00    -0.040 C 
ATOM     14  C   UNL     1      85.442  57.706  45.203  0.00  0.00    -0.058 C 
ATOM     15  C   UNL     1      86.093  58.183  44.136  0.00  0.00    -0.096 C 
ENDBRANCH  11  14
ENDBRANCH   1  12
TORSDOF 2
ENDMDL
MODEL 2
REMARK VINA RESULT:    -6.621      7.188      7.799
REMARK INTER + INTRA:          -7.633
REMARK INTER:                  -7.387
REMARK INTRA:                  -0.246
REMARK UNBOUND:                -0.238
REMARK  Name = 
REMARK  3 active torsions:
REMARK  status: ('A' for Active; 'I' for Inactive)
REMARK    1  A    between atoms: C_1  and  C_2
REMARK    2  A    between atoms: C_2  and  C_4
REMARK    3  A    between atoms: C_5  and  C_6
REMARK                            x       y       z     vdW  Elec       q    Type
REMARK                         _______ _______ _______ _____ _____    ______ ____
ROOT
ATOM      1  C   UNL     1      81.230  49.940  42.919  0.00  0.00    -0.023 A 
ATOM      2  C   UNL     1      82.442  49.191  42.912  0.00  0.00    -0.054 A 
ATOM      3  C   UNL     1      82.474  47.871  43.397  0.00  0.00    -0.052 A 
ATOM      4  C   UNL     1      81.288  47.322  43.871  0.00  0.00    -0.000 A 
ATOM      5  C   UNL     1      80.115  48.025  43.868  0.00  0.00    +0.047 A 
ATOM      6  C   UNL     1      80.045  49.333  43.396  0.00  0.00    -0.031 A 
ATOM      7  N   UNL     1      79.113  47.282  44.366  0.00  0.00    -0.361 N 
ATOM      8  C   UNL     1      79.662  46.088  44.687  0.00  0.00    +0.003 A 
ATOM      9  C   UNL     1      81.021  46.075  44.391  0.00  0.00    -0.037 A 
ATOM     10  H   UNL     1      78.172  47.551  44.473  0.00  0.00    +0.000 HD
ENDROOT
BRANCH   1  12
ATOM     11  C   UNL     1      82.205  51.992  41.901  0.00  0.00    -0.059 C 
ATOM     12  C   UNL     1      81.152  51.328  42.404  0.00  0.00    -0.054 C 
BRANCH  11  14
ATOM     13  C   UNL     1      83.356  54.163  41.018  0.00  0.00    -0.040 C 
ATOM     14  C   UNL     1      82.120  53.387  41.395  0.00  0.00    -0.058 C 
ATOM     15  C   UNL     1      80.917  53.958  41.265  0.00  0.00    -0.096 C 
ENDBRANCH  11  14
ENDBRANCH   1  12
TORSDOF 2
ENDMDL
MODEL 3
REMARK VINA RESULT:    -6.616      7.121     10.060
REMARK INTER + INTRA:          -7.628
REMARK INTER:                  -7.391
REMARK INTRA:                  -0.237
REMARK UNBOUND:                -0.238
REMARK  Name = 
REMARK  3 active torsions:
REMARK  status: ('A' for Active; 'I' for Inactive)
REMARK    1  A    between atoms: C_1  and  C_2
REMARK    2  A    between atoms: C_2  and  C_4
REMARK    3  A    between atoms: C_5  and  C_6
REMARK                            x       y       z     vdW  Elec       q    Type
REMARK                         _______ _______ _______ _____ _____    ______ ____
ROOT
ATOM      1  C   UNL     1      89.164  47.561  41.917  0.00  0.00    -0.023 A 
ATOM      2  C   UNL     1      90.472  48.058  42.177  0.00  0.00    -0.054 A 
ATOM      3  C   UNL     1      90.772  49.422  42.000  0.00  0.00    -0.052 A 
ATOM      4  C   UNL     1      89.751  50.263  41.575  0.00  0.00    -0.000 A 
ATOM      5  C   UNL     1      88.486  49.801  41.337  0.00  0.00    +0.047 A 
ATOM      6  C   UNL     1      88.152  48.458  41.501  0.00  0.00    -0.031 A 
ATOM      7  N   UNL     1      87.678  50.801  40.945  0.00  0.00    -0.361 N 
ATOM      8  C   UNL     1      88.446  51.914  40.938  0.00  0.00    +0.003 A 
ATOM      9  C   UNL     1      89.748  51.618  41.326  0.00  0.00    -0.037 A 
ATOM     10  H   UNL     1      86.724  50.736  40.713  0.00  0.00    +0.000 HD
ENDROOT
BRANCH   1  12
ATOM     11  C   UNL     1      87.574  45.719  42.443  0.00  0.00    -0.059 C 
ATOM     12  C   UNL     1      88.805  46.135  42.104  0.00  0.00    -0.054 C 
BRANCH  11  14
ATOM     13  C   UNL     1      88.209  43.311  43.229  0.00  0.00    -0.040 C 
ATOM     14  C   UNL     1      87.225  44.287  42.637  0.00  0.00    -0.058 C 
ATOM     15  C   UNL     1      86.005  43.864  42.285  0.00  0.00    -0.096 C 
ENDBRANCH  11  14
ENDBRANCH   1  12
TORSDOF 2
ENDMDL
MODEL 4
REMARK VINA RESULT:    -6.564      3.296      5.907
REMARK INTER + INTRA:          -7.570
REMARK INTER:                  -7.327
REMARK INTRA:                  -0.243
REMARK UNBOUND:                -0.238
REMARK  Name = 
REMARK  3 active torsions:
REMARK  status: ('A' for Active; 'I' for Inactive)
REMARK    1  A    between atoms: C_1  and  C_2
REMARK    2  A    between atoms: C_2  and  C_4
REMARK    3  A    between atoms: C_5  and  C_6
REMARK                            x       y       z     vdW  Elec       q    Type
REMARK                         _______ _______ _______ _____ _____    ______ ____
ROOT
ATOM      1  C   UNL     1      87.579  51.141  45.292  0.00  0.00    -0.023 A 
ATOM      2  C   UNL     1      87.771  50.171  46.316  0.00  0.00    -0.054 A 
ATOM      3  C   UNL     1      87.201  50.347  47.590  0.00  0.00    -0.052 A 
ATOM      4  C   UNL     1      86.439  51.488  47.810  0.00  0.00    -0.000 A 
ATOM      5  C   UNL     1      86.234  52.420  46.830  0.00  0.00    +0.047 A 
ATOM      6  C   UNL     1      86.782  52.279  45.557  0.00  0.00    -0.031 A 
ATOM      7  N   UNL     1      85.462  53.424  47.280  0.00  0.00    -0.361 N 
ATOM      8  C   UNL     1      85.174  53.120  48.566  0.00  0.00    +0.003 A 
ATOM      9  C   UNL     1      85.766  51.917  48.934  0.00  0.00    -0.037 A 
ATOM     10  H   UNL     1      85.166  54.216  46.776  0.00  0.00    +0.000 HD
ENDROOT
BRANCH   1  12
ATOM     11  C   UNL     1      88.807  49.887  43.526  0.00  0.00    -0.059 C 
ATOM     12  C   UNL     1      88.152  50.986  43.933  0.00  0.00    -0.054 C 
BRANCH  11  14
ATOM     13  C   UNL     1      90.590  48.872  41.912  0.00  0.00    -0.040 C 
ATOM     14  C   UNL     1      89.386  49.743  42.165  0.00  0.00    -0.058 C 
ATOM     15  C   UNL     1      88.817  50.395  41.146  0.00  0.00    -0.096 C 
ENDBRANCH  11  14
ENDBRANCH   1  12
TORSDOF 2
ENDMDL
MODEL 5
REMARK VINA RESULT:    -6.540      6.431      8.222
REMARK INTER + INTRA:          -7.543
REMARK INTER:                  -7.309
REMARK INTRA:                  -0.234
REMARK UNBOUND:                -0.238
REMARK  Name = 
REMARK  3 active torsions:
REMARK  status: ('A' for Active; 'I' for Inactive)
REMARK    1  A    between atoms: C_1  and  C_2
REMARK    2  A    between atoms: C_2  and  C_4
REMARK    3  A    between atoms: C_5  and  C_6
REMARK                            x       y       z     vdW  Elec       q    Type
REMARK                         _______ _______ _______ _____ _____    ______ ____
ROOT
ATOM      1  C   UNL     1      88.893  48.499  41.771  0.00  0.00    -0.023 A 
ATOM      2  C   UNL     1      90.169  47.887  41.929  0.00  0.00    -0.054 A 
ATOM      3  C   UNL     1      90.275  46.519  42.241  0.00  0.00    -0.052 A 
ATOM      4  C   UNL     1      89.100  45.788  42.378  0.00  0.00    -0.000 A 
ATOM      5  C   UNL     1      87.870  46.362  42.213  0.00  0.00    +0.047 A 
ATOM      6  C   UNL     1      87.725  47.713  41.904  0.00  0.00    -0.031 A 
ATOM      7  N   UNL     1      86.894  45.456  42.387  0.00  0.00    -0.361 N 
ATOM      8  C   UNL     1      87.518  44.289  42.666  0.00  0.00    +0.003 A 
ATOM      9  C   UNL     1      88.899  44.457  42.669  0.00  0.00    -0.037 A 
ATOM     10  H   UNL     1      85.924  45.609  42.324  0.00  0.00    +0.000 HD
ENDROOT
BRANCH   1  12
ATOM     11  C   UNL     1      89.726  50.836  41.554  0.00  0.00    -0.059 C 
ATOM     12  C   UNL     1      88.739  49.934  41.429  0.00  0.00    -0.054 C 
BRANCH  11  14
ATOM     13  C   UNL     1      90.479  52.964  40.242  0.00  0.00    -0.040 C 
ATOM     14  C   UNL     1      89.560  52.274  41.218  0.00  0.00    -0.058 C 
ATOM     15  C   UNL     1      88.566  52.964  41.789  0.00  0.00    -0.096 C 
ENDBRANCH  11  14
ENDBRANCH   1  12
TORSDOF 2
ENDMDL
MODEL 6
REMARK VINA RESULT:    -6.442      6.767      7.270
REMARK INTER + INTRA:          -7.433
REMARK INTER:                  -7.193
REMARK INTRA:                  -0.240
REMARK UNBOUND:                -0.238
REMARK  Name = 
REMARK  3 active torsions:
REMARK  status: ('A' for Active; 'I' for Inactive)
REMARK    1  A    between atoms: C_1  and  C_2
REMARK    2  A    between atoms: C_2  and  C_4
REMARK    3  A    between atoms: C_5  and  C_6
REMARK                            x       y       z     vdW  Elec       q    Type
REMARK                         _______ _______ _______ _____ _____    ______ ____
ROOT
ATOM      1  C   UNL     1      81.120  50.098  42.799  0.00  0.00    -0.023 A 
ATOM      2  C   UNL     1      79.902  49.485  43.210  0.00  0.00    -0.054 A 
ATOM      3  C   UNL     1      79.893  48.174  43.720  0.00  0.00    -0.052 A 
ATOM      4  C   UNL     1      81.107  47.505  43.818  0.00  0.00    -0.000 A 
ATOM      5  C   UNL     1      82.285  48.088  43.442  0.00  0.00    +0.047 A 
ATOM      6  C   UNL     1      82.333  49.384  42.933  0.00  0.00    -0.031 A 
ATOM      7  N   UNL     1      83.317  47.249  43.637  0.00  0.00    -0.361 N 
ATOM      8  C   UNL     1      82.780  46.117  44.147  0.00  0.00    +0.003 A 
ATOM      9  C   UNL     1      81.401  46.239  44.276  0.00  0.00    -0.037 A 
ATOM     10  H   UNL     1      84.267  47.423  43.449  0.00  0.00    +0.000 HD
ENDROOT
BRANCH   1  12
ATOM     11  C   UNL     1      82.306  52.076  41.861  0.00  0.00    -0.059 C 
ATOM     12  C   UNL     1      81.173  51.482  42.270  0.00  0.00    -0.054 C 
BRANCH  11  14
ATOM     13  C   UNL     1      81.092  54.222  41.003  0.00  0.00    -0.040 C 
ATOM     14  C   UNL     1      82.352  53.467  41.340  0.00  0.00    -0.058 C 
ATOM     15  C   UNL     1      83.541  54.059  41.177  0.00  0.00    -0.096 C 
ENDBRANCH  11  14
ENDBRANCH   1  12
TORSDOF 2
ENDMDL
MODEL 7
REMARK VINA RESULT:    -6.209      7.771     10.104
REMARK INTER + INTRA:          -7.173
REMARK INTER:                  -6.937
REMARK INTRA:                  -0.236
REMARK UNBOUND:                -0.238
REMARK  Name = 
REMARK  3 active torsions:
REMARK  status: ('A' for Active; 'I' for Inactive)
REMARK    1  A    between atoms: C_1  and  C_2
REMARK    2  A    between atoms: C_2  and  C_4
REMARK    3  A    between atoms: C_5  and  C_6
REMARK                            x       y       z     vdW  Elec       q    Type
REMARK                         _______ _______ _______ _____ _____    ______ ____
ROOT
ATOM      1  C   UNL     1      83.834  47.028  43.504  0.00  0.00    -0.023 A 
ATOM      2  C   UNL     1      83.576  48.428  43.531  0.00  0.00    -0.054 A 
ATOM      3  C   UNL     1      82.260  48.914  43.642  0.00  0.00    -0.052 A 
ATOM      4  C   UNL     1      81.229  47.987  43.734  0.00  0.00    -0.000 A 
ATOM      5  C   UNL     1      81.466  46.640  43.725  0.00  0.00    +0.047 A 
ATOM      6  C   UNL     1      82.754  46.122  43.617  0.00  0.00    -0.031 A 
ATOM      7  N   UNL     1      80.316  45.953  43.834  0.00  0.00    -0.361 N 
ATOM      8  C   UNL     1      79.337  46.882  43.913  0.00  0.00    +0.003 A 
ATOM      9  C   UNL     1      79.868  48.166  43.855  0.00  0.00    -0.037 A 
ATOM     10  H   UNL     1      80.210  44.974  43.852  0.00  0.00    +0.000 HD
ENDROOT
BRANCH   1  12
ATOM     11  C   UNL     1      85.469  45.192  43.108  0.00  0.00    -0.059 C 
ATOM     12  C   UNL     1      85.207  46.476  43.402  0.00  0.00    -0.054 C 
BRANCH  11  14
ATOM     13  C   UNL     1      87.263  43.426  43.799  0.00  0.00    -0.040 C 
ATOM     14  C   UNL     1      86.848  44.645  43.016  0.00  0.00    -0.058 C 
ATOM     15  C   UNL     1      87.733  45.246  42.212  0.00  0.00    -0.096 C 
ENDBRANCH  11  14
ENDBRANCH   1  12
TORSDOF 2
ENDMDL
MODEL 8
REMARK VINA RESULT:    -6.169      3.361      5.507
REMARK INTER + INTRA:          -7.128
REMARK INTER:                  -6.890
REMARK INTRA:                  -0.238
REMARK UNBOUND:                -0.238
REMARK  Name = 
REMARK  3 active torsions:
REMARK  status: ('A' for Active; 'I' for Inactive)
REMARK    1  A    between atoms: C_1  and  C_2
REMARK    2  A    between atoms: C_2  and  C_4
REMARK    3  A    between atoms: C_5  and  C_6
REMARK                            x       y       z     vdW  Elec       q    Type
REMARK                         _______ _______ _______ _____ _____    ______ ____
ROOT
ATOM      1  C   UNL     1      87.586  51.278  44.796  0.00  0.00    -0.023 A 
ATOM      2  C   UNL     1      87.462  52.220  43.734  0.00  0.00    -0.054 A 
ATOM      3  C   UNL     1      88.083  51.988  42.493  0.00  0.00    -0.052 A 
ATOM      4  C   UNL     1      88.807  50.812  42.336  0.00  0.00    -0.000 A 
ATOM      5  C   UNL     1      88.920  49.894  43.343  0.00  0.00    +0.047 A 
ATOM      6  C   UNL     1      88.320  50.088  44.584  0.00  0.00    -0.031 A 
ATOM      7  N   UNL     1      89.659  48.843  42.949  0.00  0.00    -0.361 N 
ATOM      8  C   UNL     1      90.019  49.102  41.671  0.00  0.00    +0.003 A 
ATOM      9  C   UNL     1      89.504  50.324  41.252  0.00  0.00    -0.037 A 
ATOM     10  H   UNL     1      89.891  48.048  43.482  0.00  0.00    +0.000 HD
ENDROOT
BRANCH   1  12
ATOM     11  C   UNL     1      86.480  52.667  46.542  0.00  0.00    -0.059 C 
ATOM     12  C   UNL     1      86.936  51.479  46.114  0.00  0.00    -0.054 C 
BRANCH  11  14
ATOM     13  C   UNL     1      85.873  51.785  48.923  0.00  0.00    -0.040 C 
ATOM     14  C   UNL     1      85.838  52.861  47.868  0.00  0.00    -0.058 C 
ATOM     15  C   UNL     1      85.226  54.022  48.129  0.00  0.00    -0.096 C 
ENDBRANCH  11  14
ENDBRANCH   1  12
TORSDOF 2
ENDMDL
MODEL 9
REMARK VINA RESULT:    -5.972      6.341      8.597
REMARK INTER + INTRA:          -6.908
REMARK INTER:                  -6.670
REMARK INTRA:                  -0.238
REMARK UNBOUND:                -0.238
REMARK  Name = 
REMARK  3 active torsions:
REMARK  status: ('A' for Active; 'I' for Inactive)
REMARK    1  A    between atoms: C_1  and  C_2
REMARK    2  A    between atoms: C_2  and  C_4
REMARK    3  A    between atoms: C_5  and  C_6
REMARK                            x       y       z     vdW  Elec       q    Type
REMARK                         _______ _______ _______ _____ _____    ______ ____
ROOT
ATOM      1  C   UNL     1      82.173  50.600  42.858  0.00  0.00    -0.023 A 
ATOM      2  C   UNL     1      83.356  50.846  43.612  0.00  0.00    -0.054 A 
ATOM      3  C   UNL     1      84.115  52.011  43.399  0.00  0.00    -0.052 A 
ATOM      4  C   UNL     1      83.668  52.913  42.441  0.00  0.00    -0.000 A 
ATOM      5  C   UNL     1      82.525  52.696  41.722  0.00  0.00    +0.047 A 
ATOM      6  C   UNL     1      81.748  51.555  41.905  0.00  0.00    -0.031 A 
ATOM      7  N   UNL     1      82.300  53.709  40.867  0.00  0.00    -0.361 N 
ATOM      8  C   UNL     1      83.317  54.581  41.051  0.00  0.00    +0.003 A 
ATOM      9  C   UNL     1      84.193  54.118  42.028  0.00  0.00    -0.037 A 
ATOM     10  H   UNL     1      81.548  53.797  40.238  0.00  0.00    +0.000 HD
ENDROOT
BRANCH   1  12
ATOM     11  C   UNL     1      81.650  48.413  43.927  0.00  0.00    -0.059 C 
ATOM     12  C   UNL     1      81.338  49.391  43.062  0.00  0.00    -0.054 C 
BRANCH  11  14
ATOM     13  C   UNL     1      79.331  47.216  43.840  0.00  0.00    -0.040 C 
ATOM     14  C   UNL     1      80.812  47.201  44.119  0.00  0.00    -0.058 C 
ATOM     15  C   UNL     1      81.393  46.071  44.540  0.00  0.00    -0.096 C 
ENDBRANCH  11  14
ENDBRANCH   1  12
TORSDOF 2
ENDMDL
