MODEL 1
REMARK VINA RESULT:    -7.453      0.000      0.000
REMARK INTER + INTRA:          -8.572
REMARK INTER:                  -8.301
REMARK INTRA:                  -0.271
REMARK UNBOUND:                -0.247
REMARK  Name = 
REMARK  4 active torsions:
REMARK  status: ('A' for Active; 'I' for Inactive)
REMARK    1  A    between atoms: C_8  and  C_11
REMARK    2  A    between atoms: C_12  and  C_13
REMARK    3  A    between atoms: C_13  and  C_14
REMARK    4  A    between atoms: C_13  and  C_15
REMARK                            x       y       z     vdW  Elec       q    Type
REMARK                         _______ _______ _______ _____ _____    ______ ____
ROOT
ATOM      1  O   UNL     1      85.798  58.689  43.537  0.00  0.00    -0.275 OA
ATOM      2  C   UNL     1      85.783  57.766  44.393  0.00  0.00    +0.222 C 
ATOM      3  C   UNL     1      85.176  57.893  45.759  0.00  0.00    +0.051 C 
ATOM      4  C   UNL     1      85.456  56.524  46.290  0.00  0.00    -0.017 A 
ATOM      5  C   UNL     1      86.117  55.762  45.351  0.00  0.00    +0.038 A 
ATOM      6  N   UNL     1      86.347  56.481  44.154  0.00  0.00    -0.285 N 
ATOM      7  C   UNL     1      86.485  54.442  45.606  0.00  0.00    -0.033 A 
ATOM      8  C   UNL     1      86.179  53.882  46.865  0.00  0.00    -0.024 A 
ATOM      9  C   UNL     1      85.485  54.670  47.823  0.00  0.00    -0.054 A 
ATOM     10  C   UNL     1      85.125  55.997  47.535  0.00  0.00    -0.056 A 
ATOM     11  H   UNL     1      86.797  56.163  43.337  0.00  0.00    +0.000 HD
ENDROOT
BRANCH   8  12
ATOM     12  C   UNL     1      86.568  52.475  47.122  0.00  0.00    -0.058 C 
ATOM     13  C   UNL     1      87.263  51.721  46.260  0.00  0.00    -0.081 C 
BRANCH  13  14
ATOM     14  C   UNL     1      87.619  50.291  46.585  0.00  0.00    -0.028 C 
ATOM     15  C   UNL     1      87.707  50.089  48.102  0.00  0.00    -0.059 C 
ATOM     16  C   UNL     1      86.589  49.330  45.979  0.00  0.00    -0.059 C 
ENDBRANCH  13  14
ENDBRANCH   8  12
TORSDOF 2
ENDMDL
MODEL 2
REMARK VINA RESULT:    -7.057      6.619      8.098
REMARK INTER + INTRA:          -8.130
REMARK INTER:                  -7.864
REMARK INTRA:                  -0.266
REMARK UNBOUND:                -0.247
REMARK  Name = 
REMARK  4 active torsions:
REMARK  status: ('A' for Active; 'I' for Inactive)
REMARK    1  A    between atoms: C_8  and  C_11
REMARK    2  A    between atoms: C_12  and  C_13
REMARK    3  A    between atoms: C_13  and  C_14
REMARK    4  A    between atoms: C_13  and  C_15
REMARK                            x       y       z     vdW  Elec       q    Type
REMARK                         _______ _______ _______ _____ _____    ______ ____
ROOT
ATOM      1  O   UNL     1      88.122  53.047  40.879  0.00  0.00    -0.275 OA
ATOM      2  C   UNL     1      88.406  51.850  41.144  0.00  0.00    +0.222 C 
ATOM      3  C   UNL     1      89.803  51.337  41.331  0.00  0.00    +0.051 C 
ATOM      4  C   UNL     1      89.510  49.898  41.613  0.00  0.00    -0.017 A 
ATOM      5  C   UNL     1      88.154  49.662  41.584  0.00  0.00    +0.038 A 
ATOM      6  N   UNL     1      87.418  50.836  41.298  0.00  0.00    -0.285 N 
ATOM      7  C   UNL     1      87.627  48.394  41.822  0.00  0.00    -0.033 A 
ATOM      8  C   UNL     1      88.512  47.328  42.088  0.00  0.00    -0.024 A 
ATOM      9  C   UNL     1      89.910  47.583  42.131  0.00  0.00    -0.054 A 
ATOM     10  C   UNL     1      90.411  48.873  41.888  0.00  0.00    -0.056 A 
ATOM     11  H   UNL     1      86.440  50.931  41.221  0.00  0.00    +0.000 HD
ENDROOT
BRANCH   8  12
ATOM     12  C   UNL     1      87.939  45.985  42.349  0.00  0.00    -0.058 C 
ATOM     13  C   UNL     1      88.648  44.947  42.814  0.00  0.00    -0.081 C 
BRANCH  13  14
ATOM     14  C   UNL     1      88.001  43.604  43.050  0.00  0.00    -0.028 C 
ATOM     15  C   UNL     1      88.278  43.116  44.477  0.00  0.00    -0.059 C 
ATOM     16  C   UNL     1      86.490  43.684  42.799  0.00  0.00    -0.059 C 
ENDBRANCH  13  14
ENDBRANCH   8  12
TORSDOF 2
ENDMDL
MODEL 3
REMARK VINA RESULT:    -6.738      7.439      9.764
REMARK INTER + INTRA:          -7.773
REMARK INTER:                  -7.509
REMARK INTRA:                  -0.264
REMARK UNBOUND:                -0.247
REMARK  Name = 
REMARK  4 active torsions:
REMARK  status: ('A' for Active; 'I' for Inactive)
REMARK    1  A    between atoms: C_8  and  C_11
REMARK    2  A    between atoms: C_12  and  C_13
REMARK    3  A    between atoms: C_13  and  C_14
REMARK    4  A    between atoms: C_13  and  C_15
REMARK                            x       y       z     vdW  Elec       q    Type
REMARK                         _______ _______ _______ _____ _____    ______ ____
ROOT
ATOM      1  O   UNL     1      79.263  45.557  45.792  0.00  0.00    -0.275 OA
ATOM      2  C   UNL     1      79.883  46.481  45.203  0.00  0.00    +0.222 C 
ATOM      3  C   UNL     1      81.334  46.415  44.827  0.00  0.00    +0.051 C 
ATOM      4  C   UNL     1      81.489  47.754  44.180  0.00  0.00    -0.017 A 
ATOM      5  C   UNL     1      80.298  48.446  44.200  0.00  0.00    +0.038 A 
ATOM      6  N   UNL     1      79.266  47.706  44.822  0.00  0.00    -0.285 N 
ATOM      7  C   UNL     1      80.184  49.722  43.651  0.00  0.00    -0.033 A 
ATOM      8  C   UNL     1      81.324  50.318  43.071  0.00  0.00    -0.024 A 
ATOM      9  C   UNL     1      82.545  49.591  43.041  0.00  0.00    -0.054 A 
ATOM     10  C   UNL     1      82.629  48.306  43.602  0.00  0.00    -0.056 A 
ATOM     11  H   UNL     1      78.329  47.977  44.961  0.00  0.00    +0.000 HD
ENDROOT
BRANCH   8  12
ATOM     12  C   UNL     1      81.188  51.672  42.482  0.00  0.00    -0.058 C 
ATOM     13  C   UNL     1      82.217  52.387  42.006  0.00  0.00    -0.081 C 
BRANCH  13  14
ATOM     14  C   UNL     1      82.007  53.764  41.426  0.00  0.00    -0.028 C 
ATOM     15  C   UNL     1      80.598  54.276  41.748  0.00  0.00    -0.059 C 
ATOM     16  C   UNL     1      83.063  54.739  41.960  0.00  0.00    -0.059 C 
ENDBRANCH  13  14
ENDBRANCH   8  12
TORSDOF 2
ENDMDL
MODEL 4
REMARK VINA RESULT:    -6.700      3.931      6.171
REMARK INTER + INTRA:          -7.730
REMARK INTER:                  -7.470
REMARK INTRA:                  -0.260
REMARK UNBOUND:                -0.247
REMARK  Name = 
REMARK  4 active torsions:
REMARK  status: ('A' for Active; 'I' for Inactive)
REMARK    1  A    between atoms: C_8  and  C_11
REMARK    2  A    between atoms: C_12  and  C_13
REMARK    3  A    between atoms: C_13  and  C_14
REMARK    4  A    between atoms: C_13  and  C_15
REMARK                            x       y       z     vdW  Elec       q    Type
REMARK                         _______ _______ _______ _____ _____    ______ ____
ROOT
ATOM      1  O   UNL     1      89.074  51.282  39.431  0.00  0.00    -0.275 OA
ATOM      2  C   UNL     1      88.844  51.055  40.648  0.00  0.00    +0.222 C 
ATOM      3  C   UNL     1      89.193  49.774  41.346  0.00  0.00    +0.051 C 
ATOM      4  C   UNL     1      88.695  50.090  42.719  0.00  0.00    -0.017 A 
ATOM      5  C   UNL     1      88.155  51.356  42.763  0.00  0.00    +0.038 A 
ATOM      6  N   UNL     1      88.220  52.003  41.507  0.00  0.00    -0.285 N 
ATOM      7  C   UNL     1      87.627  51.886  43.939  0.00  0.00    -0.033 A 
ATOM      8  C   UNL     1      87.639  51.094  45.108  0.00  0.00    -0.024 A 
ATOM      9  C   UNL     1      88.211  49.794  45.058  0.00  0.00    -0.054 A 
ATOM     10  C   UNL     1      88.738  49.288  43.857  0.00  0.00    -0.056 A 
ATOM     11  H   UNL     1      87.904  52.907  41.278  0.00  0.00    +0.000 HD
ENDROOT
BRANCH   8  12
ATOM     12  C   UNL     1      87.081  51.672  46.355  0.00  0.00    -0.058 C 
ATOM     13  C   UNL     1      86.297  52.757  46.391  0.00  0.00    -0.081 C 
BRANCH  13  14
ATOM     14  C   UNL     1      85.770  53.295  47.699  0.00  0.00    -0.028 C 
ATOM     15  C   UNL     1      84.304  53.720  47.556  0.00  0.00    -0.059 C 
ATOM     16  C   UNL     1      85.914  52.247  48.809  0.00  0.00    -0.059 C 
ENDBRANCH  13  14
ENDBRANCH   8  12
TORSDOF 2
ENDMDL
MODEL 5
REMARK VINA RESULT:    -6.674      4.434      6.205
REMARK INTER + INTRA:          -7.701
REMARK INTER:                  -7.475
REMARK INTRA:                  -0.227
REMARK UNBOUND:                -0.247
REMARK  Name = 
REMARK  4 active torsions:
REMARK  status: ('A' for Active; 'I' for Inactive)
REMARK    1  A    between atoms: C_8  and  C_11
REMARK    2  A    between atoms: C_12  and  C_13
REMARK    3  A    between atoms: C_13  and  C_14
REMARK    4  A    between atoms: C_13  and  C_15
REMARK                            x       y       z     vdW  Elec       q    Type
REMARK                         _______ _______ _______ _____ _____    ______ ____
ROOT
ATOM      1  O   UNL     1      88.651  53.302  39.007  0.00  0.00    -0.275 OA
ATOM      2  C   UNL     1      88.698  52.472  39.952  0.00  0.00    +0.222 C 
ATOM      3  C   UNL     1      89.457  51.179  39.901  0.00  0.00    +0.051 C 
ATOM      4  C   UNL     1      89.146  50.648  41.263  0.00  0.00    -0.017 A 
ATOM      5  C   UNL     1      88.338  51.523  41.955  0.00  0.00    +0.038 A 
ATOM      6  N   UNL     1      88.027  52.672  41.191  0.00  0.00    -0.285 N 
ATOM      7  C   UNL     1      87.912  51.254  43.255  0.00  0.00    -0.033 A 
ATOM      8  C   UNL     1      88.316  50.048  43.867  0.00  0.00    -0.024 A 
ATOM      9  C   UNL     1      89.162  49.157  43.152  0.00  0.00    -0.054 A 
ATOM     10  C   UNL     1      89.576  49.457  41.843  0.00  0.00    -0.056 A 
ATOM     11  H   UNL     1      87.470  53.440  41.458  0.00  0.00    +0.000 HD
ENDROOT
BRANCH   8  12
ATOM     12  C   UNL     1      87.864  49.777  45.253  0.00  0.00    -0.058 C 
ATOM     13  C   UNL     1      87.589  50.733  46.151  0.00  0.00    -0.081 C 
BRANCH  13  14
ATOM     14  C   UNL     1      87.140  50.384  47.549  0.00  0.00    -0.028 C 
ATOM     15  C   UNL     1      88.339  49.975  48.413  0.00  0.00    -0.059 C 
ATOM     16  C   UNL     1      86.403  51.567  48.188  0.00  0.00    -0.059 C 
ENDBRANCH  13  14
ENDBRANCH   8  12
TORSDOF 2
ENDMDL
MODEL 6
REMARK VINA RESULT:    -6.630      3.522      5.106
REMARK INTER + INTRA:          -7.652
REMARK INTER:                  -7.431
REMARK INTRA:                  -0.221
REMARK UNBOUND:                -0.247
REMARK  Name = 
REMARK  4 active torsions:
REMARK  status: ('A' for Active; 'I' for Inactive)
REMARK    1  A    between atoms: C_8  and  C_11
REMARK    2  A    between atoms: C_12  and  C_13
REMARK    3  A    between atoms: C_13  and  C_14
REMARK    4  A    between atoms: C_13  and  C_15
REMARK                            x       y       z     vdW  Elec       q    Type
REMARK                         _______ _______ _______ _____ _____    ______ ____
ROOT
ATOM      1  O   UNL     1      84.430  54.206  49.173  0.00  0.00    -0.275 OA
ATOM      2  C   UNL     1      85.136  53.378  48.539  0.00  0.00    +0.222 C 
ATOM      3  C   UNL     1      85.765  52.162  49.153  0.00  0.00    +0.051 C 
ATOM      4  C   UNL     1      86.451  51.597  47.951  0.00  0.00    -0.017 A 
ATOM      5  C   UNL     1      86.228  52.388  46.845  0.00  0.00    +0.038 A 
ATOM      6  N   UNL     1      85.419  53.508  47.150  0.00  0.00    -0.285 N 
ATOM      7  C   UNL     1      86.760  52.068  45.597  0.00  0.00    -0.033 A 
ATOM      8  C   UNL     1      87.555  50.908  45.474  0.00  0.00    -0.024 A 
ATOM      9  C   UNL     1      87.769  50.090  46.616  0.00  0.00    -0.054 A 
ATOM     10  C   UNL     1      87.217  50.438  47.861  0.00  0.00    -0.056 A 
ATOM     11  H   UNL     1      85.118  54.218  46.538  0.00  0.00    +0.000 HD
ENDROOT
BRANCH   8  12
ATOM     12  C   UNL     1      88.109  50.573  44.140  0.00  0.00    -0.058 C 
ATOM     13  C   UNL     1      88.573  49.361  43.805  0.00  0.00    -0.081 C 
BRANCH  13  14
ATOM     14  C   UNL     1      89.130  49.092  42.429  0.00  0.00    -0.028 C 
ATOM     15  C   UNL     1      90.661  49.031  42.469  0.00  0.00    -0.059 C 
ATOM     16  C   UNL     1      88.560  47.785  41.864  0.00  0.00    -0.059 C 
ENDBRANCH  13  14
ENDBRANCH   8  12
TORSDOF 2
ENDMDL
MODEL 7
REMARK VINA RESULT:    -6.623      7.064      9.954
REMARK INTER + INTRA:          -7.645
REMARK INTER:                  -7.386
REMARK INTRA:                  -0.259
REMARK UNBOUND:                -0.247
REMARK  Name = 
REMARK  4 active torsions:
REMARK  status: ('A' for Active; 'I' for Inactive)
REMARK    1  A    between atoms: C_8  and  C_11
REMARK    2  A    between atoms: C_12  and  C_13
REMARK    3  A    between atoms: C_13  and  C_14
REMARK    4  A    between atoms: C_13  and  C_15
REMARK                            x       y       z     vdW  Elec       q    Type
REMARK                         _______ _______ _______ _____ _____    ______ ____
ROOT
ATOM      1  O   UNL     1      86.291  43.726  43.002  0.00  0.00    -0.275 OA
ATOM      2  C   UNL     1      87.034  44.728  42.828  0.00  0.00    +0.222 C 
ATOM      3  C   UNL     1      88.516  44.650  42.605  0.00  0.00    +0.051 C 
ATOM      4  C   UNL     1      88.829  46.105  42.470  0.00  0.00    -0.017 A 
ATOM      5  C   UNL     1      87.686  46.864  42.599  0.00  0.00    +0.038 A 
ATOM      6  N   UNL     1      86.542  46.064  42.823  0.00  0.00    -0.285 N 
ATOM      7  C   UNL     1      87.717  48.255  42.505  0.00  0.00    -0.033 A 
ATOM      8  C   UNL     1      88.955  48.895  42.283  0.00  0.00    -0.024 A 
ATOM      9  C   UNL     1      90.127  48.104  42.137  0.00  0.00    -0.054 A 
ATOM     10  C   UNL     1      90.064  46.703  42.235  0.00  0.00    -0.056 A 
ATOM     11  H   UNL     1      85.611  46.364  42.947  0.00  0.00    +0.000 HD
ENDROOT
BRANCH   8  12
ATOM     12  C   UNL     1      88.974  50.374  42.177  0.00  0.00    -0.058 C 
ATOM     13  C   UNL     1      89.777  51.053  41.347  0.00  0.00    -0.081 C 
BRANCH  13  14
ATOM     14  C   UNL     1      89.749  52.562  41.296  0.00  0.00    -0.028 C 
ATOM     15  C   UNL     1      89.826  53.053  39.846  0.00  0.00    -0.059 C 
ATOM     16  C   UNL     1      88.482  53.099  41.974  0.00  0.00    -0.059 C 
ENDBRANCH  13  14
ENDBRANCH   8  12
TORSDOF 2
ENDMDL
MODEL 8
REMARK VINA RESULT:    -6.570      8.165      9.903
REMARK INTER + INTRA:          -7.586
REMARK INTER:                  -7.363
REMARK INTRA:                  -0.223
REMARK UNBOUND:                -0.247
REMARK  Name = 
REMARK  4 active torsions:
REMARK  status: ('A' for Active; 'I' for Inactive)
REMARK    1  A    between atoms: C_8  and  C_11
REMARK    2  A    between atoms: C_12  and  C_13
REMARK    3  A    between atoms: C_13  and  C_14
REMARK    4  A    between atoms: C_13  and  C_15
REMARK                            x       y       z     vdW  Elec       q    Type
REMARK                         _______ _______ _______ _____ _____    ______ ____
ROOT
ATOM      1  O   UNL     1      82.280  45.843  44.580  0.00  0.00    -0.275 OA
ATOM      2  C   UNL     1      83.450  45.758  44.123  0.00  0.00    +0.222 C 
ATOM      3  C   UNL     1      84.137  44.462  43.804  0.00  0.00    +0.051 C 
ATOM      4  C   UNL     1      85.450  44.985  43.316  0.00  0.00    -0.017 A 
ATOM      5  C   UNL     1      85.474  46.362  43.362  0.00  0.00    +0.038 A 
ATOM      6  N   UNL     1      84.261  46.896  43.854  0.00  0.00    -0.285 N 
ATOM      7  C   UNL     1      86.591  47.088  42.951  0.00  0.00    -0.033 A 
ATOM      8  C   UNL     1      87.726  46.387  42.490  0.00  0.00    -0.024 A 
ATOM      9  C   UNL     1      87.688  44.968  42.432  0.00  0.00    -0.054 A 
ATOM     10  C   UNL     1      86.546  44.264  42.851  0.00  0.00    -0.056 A 
ATOM     11  H   UNL     1      84.028  47.845  43.982  0.00  0.00    +0.000 HD
ENDROOT
BRANCH   8  12
ATOM     12  C   UNL     1      88.906  47.170  42.048  0.00  0.00    -0.058 C 
ATOM     13  C   UNL     1      89.349  48.270  42.672  0.00  0.00    -0.081 C 
BRANCH  13  14
ATOM     14  C   UNL     1      90.554  49.024  42.162  0.00  0.00    -0.028 C 
ATOM     15  C   UNL     1      90.161  50.444  41.738  0.00  0.00    -0.059 C 
ATOM     16  C   UNL     1      91.650  49.072  43.233  0.00  0.00    -0.059 C 
ENDBRANCH  13  14
ENDBRANCH   8  12
TORSDOF 2
ENDMDL
MODEL 9
REMARK VINA RESULT:    -6.507      3.547      6.272
REMARK INTER + INTRA:          -7.515
REMARK INTER:                  -7.268
REMARK INTRA:                  -0.247
REMARK UNBOUND:                -0.247
REMARK  Name = 
REMARK  4 active torsions:
REMARK  status: ('A' for Active; 'I' for Inactive)
REMARK    1  A    between atoms: C_8  and  C_11
REMARK    2  A    between atoms: C_12  and  C_13
REMARK    3  A    between atoms: C_13  and  C_14
REMARK    4  A    between atoms: C_13  and  C_15
REMARK                            x       y       z     vdW  Elec       q    Type
REMARK                         _______ _______ _______ _____ _____    ______ ____
ROOT
ATOM      1  O   UNL     1      87.703  48.988  40.953  0.00  0.00    -0.275 OA
ATOM      2  C   UNL     1      87.622  49.552  42.075  0.00  0.00    +0.222 C 
ATOM      3  C   UNL     1      88.035  48.916  43.370  0.00  0.00    +0.051 C 
ATOM      4  C   UNL     1      87.716  50.031  44.313  0.00  0.00    -0.017 A 
ATOM      5  C   UNL     1      87.205  51.114  43.633  0.00  0.00    +0.038 A 
ATOM      6  N   UNL     1      87.123  50.875  42.242  0.00  0.00    -0.285 N 
ATOM      7  C   UNL     1      86.834  52.284  44.294  0.00  0.00    -0.033 A 
ATOM      8  C   UNL     1      86.979  52.349  45.696  0.00  0.00    -0.024 A 
ATOM      9  C   UNL     1      87.520  51.232  46.389  0.00  0.00    -0.054 A 
ATOM     10  C   UNL     1      87.887  50.067  45.695  0.00  0.00    -0.056 A 
ATOM     11  H   UNL     1      86.795  51.487  41.543  0.00  0.00    +0.000 HD
ENDROOT
BRANCH   8  12
ATOM     12  C   UNL     1      86.589  53.602  46.387  0.00  0.00    -0.058 C 
ATOM     13  C   UNL     1      85.613  53.679  47.303  0.00  0.00    -0.081 C 
BRANCH  13  14
ATOM     14  C   UNL     1      85.264  54.991  47.962  0.00  0.00    -0.028 C 
ATOM     15  C   UNL     1      85.615  56.166  47.042  0.00  0.00    -0.059 C 
ATOM     16  C   UNL     1      83.776  55.028  48.330  0.00  0.00    -0.059 C 
ENDBRANCH  13  14
ENDBRANCH   8  12
TORSDOF 2
ENDMDL
