MODEL 1
REMARK VINA RESULT:    -6.798      0.000      0.000
REMARK INTER + INTRA:          -7.901
REMARK INTER:                  -7.618
REMARK INTRA:                  -0.283
REMARK UNBOUND:                -0.308
REMARK  Name = 
REMARK  4 active torsions:
REMARK  status: ('A' for Active; 'I' for Inactive)
REMARK    1  A    between atoms: C_1  and  C_2
REMARK    2  A    between atoms: C_2  and  C_14
REMARK    3  A    between atoms: C_3  and  C_4
REMARK    4  A    between atoms: C_4  and  C_5
REMARK                            x       y       z     vdW  Elec       q    Type
REMARK                         _______ _______ _______ _____ _____    ______ ____
ROOT
ATOM      1  C   UNL     1      85.437  53.652  47.995  0.00  0.00    -0.042 A 
ATOM      2  C   UNL     1      84.239  54.017  48.664  0.00  0.00    -0.058 A 
ATOM      3  C   UNL     1      83.617  55.251  48.401  0.00  0.00    -0.052 A 
ATOM      4  C   UNL     1      84.210  56.091  47.462  0.00  0.00    -0.000 A 
ATOM      5  C   UNL     1      85.359  55.743  46.806  0.00  0.00    +0.047 A 
ATOM      6  C   UNL     1      86.001  54.529  47.041  0.00  0.00    -0.034 A 
ATOM      7  N   UNL     1      85.732  56.712  45.954  0.00  0.00    -0.361 N 
ATOM      8  C   UNL     1      84.803  57.689  46.074  0.00  0.00    +0.003 A 
ATOM      9  C   UNL     1      83.835  57.337  47.008  0.00  0.00    -0.037 A 
ATOM     10  H   UNL     1      86.520  56.712  45.363  0.00  0.00    +0.000 HD
ENDROOT
BRANCH   1  11
ATOM     11  C   UNL     1      86.087  52.324  48.282  0.00  0.00    -0.009 C 
BRANCH  11  14
ATOM     12  C   UNL     1      88.129  50.122  48.197  0.00  0.00    -0.044 C 
ATOM     13  C   UNL     1      87.444  50.646  46.958  0.00  0.00    -0.079 C 
ATOM     14  C   UNL     1      86.527  51.637  47.013  0.00  0.00    -0.081 C 
ATOM     15  C   UNL     1      87.789  50.060  45.614  0.00  0.00    -0.044 C 
ENDBRANCH  11  14
ENDBRANCH   1  11
TORSDOF 2
ENDMDL
MODEL 2
REMARK VINA RESULT:    -6.760      8.529     10.193
REMARK INTER + INTRA:          -7.859
REMARK INTER:                  -7.461
REMARK INTRA:                  -0.398
REMARK UNBOUND:                -0.308
REMARK  Name = 
REMARK  4 active torsions:
REMARK  status: ('A' for Active; 'I' for Inactive)
REMARK    1  A    between atoms: C_1  and  C_2
REMARK    2  A    between atoms: C_2  and  C_14
REMARK    3  A    between atoms: C_3  and  C_4
REMARK    4  A    between atoms: C_4  and  C_5
REMARK                            x       y       z     vdW  Elec       q    Type
REMARK                         _______ _______ _______ _____ _____    ______ ____
ROOT
ATOM      1  C   UNL     1      88.555  45.639  42.655  0.00  0.00    -0.042 A 
ATOM      2  C   UNL     1      88.572  44.333  43.212  0.00  0.00    -0.058 A 
ATOM      3  C   UNL     1      87.393  43.750  43.711  0.00  0.00    -0.052 A 
ATOM      4  C   UNL     1      86.218  44.492  43.632  0.00  0.00    -0.000 A 
ATOM      5  C   UNL     1      86.190  45.746  43.088  0.00  0.00    +0.047 A 
ATOM      6  C   UNL     1      87.338  46.354  42.584  0.00  0.00    -0.034 A 
ATOM      7  N   UNL     1      84.947  46.254  43.124  0.00  0.00    -0.361 N 
ATOM      8  C   UNL     1      84.176  45.303  43.701  0.00  0.00    +0.003 A 
ATOM      9  C   UNL     1      84.935  44.186  44.033  0.00  0.00    -0.037 A 
ATOM     10  H   UNL     1      84.657  47.137  42.798  0.00  0.00    +0.000 HD
ENDROOT
BRANCH   1  11
ATOM     11  C   UNL     1      89.824  46.246  42.118  0.00  0.00    -0.009 C 
BRANCH  11  14
ATOM     12  C   UNL     1      91.082  48.549  43.583  0.00  0.00    -0.044 C 
ATOM     13  C   UNL     1      90.185  48.739  42.384  0.00  0.00    -0.079 C 
ATOM     14  C   UNL     1      89.627  47.693  41.735  0.00  0.00    -0.081 C 
ATOM     15  C   UNL     1      89.890  50.131  41.890  0.00  0.00    -0.044 C 
ENDBRANCH  11  14
ENDBRANCH   1  11
TORSDOF 2
ENDMDL
MODEL 3
REMARK VINA RESULT:    -6.729      1.861      5.696
REMARK INTER + INTRA:          -7.824
REMARK INTER:                  -7.538
REMARK INTRA:                  -0.286
REMARK UNBOUND:                -0.308
REMARK  Name = 
REMARK  4 active torsions:
REMARK  status: ('A' for Active; 'I' for Inactive)
REMARK    1  A    between atoms: C_1  and  C_2
REMARK    2  A    between atoms: C_2  and  C_14
REMARK    3  A    between atoms: C_3  and  C_4
REMARK    4  A    between atoms: C_4  and  C_5
REMARK                            x       y       z     vdW  Elec       q    Type
REMARK                         _______ _______ _______ _____ _____    ______ ____
ROOT
ATOM      1  C   UNL     1      85.899  54.080  47.518  0.00  0.00    -0.042 A 
ATOM      2  C   UNL     1      85.648  53.363  48.717  0.00  0.00    -0.058 A 
ATOM      3  C   UNL     1      86.017  52.011  48.835  0.00  0.00    -0.052 A 
ATOM      4  C   UNL     1      86.641  51.409  47.745  0.00  0.00    -0.000 A 
ATOM      5  C   UNL     1      86.896  52.096  46.590  0.00  0.00    +0.047 A 
ATOM      6  C   UNL     1      86.544  53.435  46.438  0.00  0.00    -0.034 A 
ATOM      7  N   UNL     1      87.503  51.304  45.690  0.00  0.00    -0.361 N 
ATOM      8  C   UNL     1      87.633  50.097  46.288  0.00  0.00    +0.003 A 
ATOM      9  C   UNL     1      87.106  50.123  47.574  0.00  0.00    -0.037 A 
ATOM     10  H   UNL     1      87.793  51.552  44.782  0.00  0.00    +0.000 HD
ENDROOT
BRANCH   1  11
ATOM     11  C   UNL     1      85.503  55.529  47.408  0.00  0.00    -0.009 C 
BRANCH  11  14
ATOM     12  C   UNL     1      84.474  58.135  46.322  0.00  0.00    -0.044 C 
ATOM     13  C   UNL     1      85.502  57.300  45.598  0.00  0.00    -0.079 C 
ATOM     14  C   UNL     1      85.956  56.130  46.100  0.00  0.00    -0.081 C 
ATOM     15  C   UNL     1      86.043  57.770  44.272  0.00  0.00    -0.044 C 
ENDBRANCH  11  14
ENDBRANCH   1  11
TORSDOF 2
ENDMDL
MODEL 4
REMARK VINA RESULT:    -6.650      7.690      9.115
REMARK INTER + INTRA:          -7.736
REMARK INTER:                  -7.443
REMARK INTRA:                  -0.293
REMARK UNBOUND:                -0.308
REMARK  Name = 
REMARK  4 active torsions:
REMARK  status: ('A' for Active; 'I' for Inactive)
REMARK    1  A    between atoms: C_1  and  C_2
REMARK    2  A    between atoms: C_2  and  C_14
REMARK    3  A    between atoms: C_3  and  C_4
REMARK    4  A    between atoms: C_4  and  C_5
REMARK                            x       y       z     vdW  Elec       q    Type
REMARK                         _______ _______ _______ _____ _____    ______ ____
ROOT
ATOM      1  C   UNL     1      88.882  46.812  42.174  0.00  0.00    -0.042 A 
ATOM      2  C   UNL     1      90.236  47.238  42.149  0.00  0.00    -0.058 A 
ATOM      3  C   UNL     1      90.562  48.581  41.888  0.00  0.00    -0.052 A 
ATOM      4  C   UNL     1      89.515  49.472  41.665  0.00  0.00    -0.000 A 
ATOM      5  C   UNL     1      88.207  49.073  41.697  0.00  0.00    +0.047 A 
ATOM      6  C   UNL     1      87.848  47.751  41.953  0.00  0.00    -0.034 A 
ATOM      7  N   UNL     1      87.387  50.108  41.455  0.00  0.00    -0.361 N 
ATOM      8  C   UNL     1      88.191  51.180  41.266  0.00  0.00    +0.003 A 
ATOM      9  C   UNL     1      89.529  50.822  41.390  0.00  0.00    -0.037 A 
ATOM     10  H   UNL     1      86.403  50.091  41.421  0.00  0.00    +0.000 HD
ENDROOT
BRANCH   1  11
ATOM     11  C   UNL     1      88.549  45.371  42.462  0.00  0.00    -0.009 C 
BRANCH  11  14
ATOM     12  C   UNL     1      87.701  43.210  44.370  0.00  0.00    -0.044 C 
ATOM     13  C   UNL     1      86.746  44.256  43.847  0.00  0.00    -0.079 C 
ATOM     14  C   UNL     1      87.142  45.223  42.990  0.00  0.00    -0.081 C 
ATOM     15  C   UNL     1      85.303  44.230  44.282  0.00  0.00    -0.044 C 
ENDBRANCH  11  14
ENDBRANCH   1  11
TORSDOF 2
ENDMDL
MODEL 5
REMARK VINA RESULT:    -6.489      7.205      9.629
REMARK INTER + INTRA:          -7.556
REMARK INTER:                  -7.102
REMARK INTRA:                  -0.454
REMARK UNBOUND:                -0.308
REMARK  Name = 
REMARK  4 active torsions:
REMARK  status: ('A' for Active; 'I' for Inactive)
REMARK    1  A    between atoms: C_1  and  C_2
REMARK    2  A    between atoms: C_2  and  C_14
REMARK    3  A    between atoms: C_3  and  C_4
REMARK    4  A    between atoms: C_4  and  C_5
REMARK                            x       y       z     vdW  Elec       q    Type
REMARK                         _______ _______ _______ _____ _____    ______ ____
ROOT
ATOM      1  C   UNL     1      88.761  50.002  42.347  0.00  0.00    -0.042 A 
ATOM      2  C   UNL     1      90.112  49.585  42.216  0.00  0.00    -0.058 A 
ATOM      3  C   UNL     1      90.444  48.218  42.201  0.00  0.00    -0.052 A 
ATOM      4  C   UNL     1      89.406  47.297  42.310  0.00  0.00    -0.000 A 
ATOM      5  C   UNL     1      88.100  47.689  42.427  0.00  0.00    +0.047 A 
ATOM      6  C   UNL     1      87.736  49.033  42.445  0.00  0.00    -0.034 A 
ATOM      7  N   UNL     1      87.289  46.622  42.516  0.00  0.00    -0.361 N 
ATOM      8  C   UNL     1      88.096  45.537  42.454  0.00  0.00    +0.003 A 
ATOM      9  C   UNL     1      89.427  45.919  42.325  0.00  0.00    -0.037 A 
ATOM     10  H   UNL     1      86.308  46.629  42.608  0.00  0.00    +0.000 HD
ENDROOT
BRANCH   1  11
ATOM     11  C   UNL     1      88.421  51.469  42.354  0.00  0.00    -0.009 C 
BRANCH  11  14
ATOM     12  C   UNL     1      88.260  52.493  39.534  0.00  0.00    -0.044 C 
ATOM     13  C   UNL     1      89.446  52.758  40.430  0.00  0.00    -0.079 C 
ATOM     14  C   UNL     1      89.503  52.291  41.697  0.00  0.00    -0.081 C 
ATOM     15  C   UNL     1      90.609  53.561  39.907  0.00  0.00    -0.044 C 
ENDBRANCH  11  14
ENDBRANCH   1  11
TORSDOF 2
ENDMDL
MODEL 6
REMARK VINA RESULT:    -6.470      2.650      4.964
REMARK INTER + INTRA:          -7.534
REMARK INTER:                  -7.237
REMARK INTRA:                  -0.297
REMARK UNBOUND:                -0.308
REMARK  Name = 
REMARK  4 active torsions:
REMARK  status: ('A' for Active; 'I' for Inactive)
REMARK    1  A    between atoms: C_1  and  C_2
REMARK    2  A    between atoms: C_2  and  C_14
REMARK    3  A    between atoms: C_3  and  C_4
REMARK    4  A    between atoms: C_4  and  C_5
REMARK                            x       y       z     vdW  Elec       q    Type
REMARK                         _______ _______ _______ _____ _____    ______ ____
ROOT
ATOM      1  C   UNL     1      87.459  50.903  45.340  0.00  0.00    -0.042 A 
ATOM      2  C   UNL     1      87.675  50.002  46.416  0.00  0.00    -0.058 A 
ATOM      3  C   UNL     1      87.216  50.306  47.710  0.00  0.00    -0.052 A 
ATOM      4  C   UNL     1      86.542  51.510  47.894  0.00  0.00    -0.000 A 
ATOM      5  C   UNL     1      86.320  52.380  46.862  0.00  0.00    +0.047 A 
ATOM      6  C   UNL     1      86.760  52.110  45.567  0.00  0.00    -0.034 A 
ATOM      7  N   UNL     1      85.652  53.464  47.287  0.00  0.00    -0.361 N 
ATOM      8  C   UNL     1      85.447  53.276  48.611  0.00  0.00    +0.003 A 
ATOM      9  C   UNL     1      85.989  52.066  49.028  0.00  0.00    -0.037 A 
ATOM     10  H   UNL     1      85.369  54.237  46.746  0.00  0.00    +0.000 HD
ENDROOT
BRANCH   1  11
ATOM     11  C   UNL     1      87.950  50.559  43.958  0.00  0.00    -0.009 C 
BRANCH  11  14
ATOM     12  C   UNL     1      89.865  49.946  41.725  0.00  0.00    -0.044 C 
ATOM     13  C   UNL     1      89.803  49.129  42.993  0.00  0.00    -0.079 C 
ATOM     14  C   UNL     1      88.937  49.417  43.989  0.00  0.00    -0.081 C 
ATOM     15  C   UNL     1      90.725  47.949  43.163  0.00  0.00    -0.044 C 
ENDBRANCH  11  14
ENDBRANCH   1  11
TORSDOF 2
ENDMDL
MODEL 7
REMARK VINA RESULT:    -6.456     11.174     12.569
REMARK INTER + INTRA:          -7.519
REMARK INTER:                  -7.211
REMARK INTRA:                  -0.308
REMARK UNBOUND:                -0.308
REMARK  Name = 
REMARK  4 active torsions:
REMARK  status: ('A' for Active; 'I' for Inactive)
REMARK    1  A    between atoms: C_1  and  C_2
REMARK    2  A    between atoms: C_2  and  C_14
REMARK    3  A    between atoms: C_3  and  C_4
REMARK    4  A    between atoms: C_4  and  C_5
REMARK                            x       y       z     vdW  Elec       q    Type
REMARK                         _______ _______ _______ _____ _____    ______ ____
ROOT
ATOM      1  C   UNL     1      83.293  50.552  58.844  0.00  0.00    -0.042 A 
ATOM      2  C   UNL     1      83.583  49.920  60.082  0.00  0.00    -0.058 A 
ATOM      3  C   UNL     1      83.441  50.619  61.294  0.00  0.00    -0.052 A 
ATOM      4  C   UNL     1      83.002  51.939  61.237  0.00  0.00    -0.000 A 
ATOM      5  C   UNL     1      82.711  52.552  60.049  0.00  0.00    +0.047 A 
ATOM      6  C   UNL     1      82.839  51.890  58.830  0.00  0.00    -0.034 A 
ATOM      7  N   UNL     1      82.308  53.817  60.253  0.00  0.00    -0.361 N 
ATOM      8  C   UNL     1      82.345  54.006  61.592  0.00  0.00    +0.003 A 
ATOM      9  C   UNL     1      82.774  52.854  62.242  0.00  0.00    -0.037 A 
ATOM     10  H   UNL     1      82.040  54.472  59.568  0.00  0.00    +0.000 HD
ENDROOT
BRANCH   1  11
ATOM     11  C   UNL     1      83.443  49.788  57.554  0.00  0.00    -0.009 C 
BRANCH  11  14
ATOM     12  C   UNL     1      84.346  49.670  54.690  0.00  0.00    -0.044 C 
ATOM     13  C   UNL     1      83.116  50.430  55.126  0.00  0.00    -0.079 C 
ATOM     14  C   UNL     1      82.722  50.473  56.418  0.00  0.00    -0.081 C 
ATOM     15  C   UNL     1      82.298  51.171  54.101  0.00  0.00    -0.044 C 
ENDBRANCH  11  14
ENDBRANCH   1  11
TORSDOF 2
ENDMDL
MODEL 8
REMARK VINA RESULT:    -6.440      1.847      5.799
REMARK INTER + INTRA:          -7.501
REMARK INTER:                  -7.172
REMARK INTRA:                  -0.329
REMARK UNBOUND:                -0.308
REMARK  Name = 
REMARK  4 active torsions:
REMARK  status: ('A' for Active; 'I' for Inactive)
REMARK    1  A    between atoms: C_1  and  C_2
REMARK    2  A    between atoms: C_2  and  C_14
REMARK    3  A    between atoms: C_3  and  C_4
REMARK    4  A    between atoms: C_4  and  C_5
REMARK                            x       y       z     vdW  Elec       q    Type
REMARK                         _______ _______ _______ _____ _____    ______ ____
ROOT
ATOM      1  C   UNL     1      86.402  52.334  47.349  0.00  0.00    -0.042 A 
ATOM      2  C   UNL     1      86.787  51.079  47.890  0.00  0.00    -0.058 A 
ATOM      3  C   UNL     1      87.380  50.098  47.075  0.00  0.00    -0.052 A 
ATOM      4  C   UNL     1      87.580  50.403  45.731  0.00  0.00    -0.000 A 
ATOM      5  C   UNL     1      87.221  51.614  45.204  0.00  0.00    +0.047 A 
ATOM      6  C   UNL     1      86.632  52.609  45.982  0.00  0.00    -0.034 A 
ATOM      7  N   UNL     1      87.515  51.669  43.895  0.00  0.00    -0.361 N 
ATOM      8  C   UNL     1      88.070  50.473  43.590  0.00  0.00    +0.003 A 
ATOM      9  C   UNL     1      88.128  49.654  44.712  0.00  0.00    -0.037 A 
ATOM     10  H   UNL     1      87.359  52.425  43.283  0.00  0.00    +0.000 HD
ENDROOT
BRANCH   1  11
ATOM     11  C   UNL     1      85.774  53.378  48.236  0.00  0.00    -0.009 C 
BRANCH  11  14
ATOM     12  C   UNL     1      83.447  55.270  48.415  0.00  0.00    -0.044 C 
ATOM     13  C   UNL     1      84.698  55.589  47.633  0.00  0.00    -0.079 C 
ATOM     14  C   UNL     1      85.738  54.728  47.563  0.00  0.00    -0.081 C 
ATOM     15  C   UNL     1      84.802  56.901  46.900  0.00  0.00    -0.044 C 
ENDBRANCH  11  14
ENDBRANCH   1  11
TORSDOF 2
ENDMDL
MODEL 9
REMARK VINA RESULT:    -6.371      3.127      4.780
REMARK INTER + INTRA:          -7.424
REMARK INTER:                  -6.973
REMARK INTRA:                  -0.451
REMARK UNBOUND:                -0.308
REMARK  Name = 
REMARK  4 active torsions:
REMARK  status: ('A' for Active; 'I' for Inactive)
REMARK    1  A    between atoms: C_1  and  C_2
REMARK    2  A    between atoms: C_2  and  C_14
REMARK    3  A    between atoms: C_3  and  C_4
REMARK    4  A    between atoms: C_4  and  C_5
REMARK                            x       y       z     vdW  Elec       q    Type
REMARK                         _______ _______ _______ _____ _____    ______ ____
ROOT
ATOM      1  C   UNL     1      85.510  55.978  45.233  0.00  0.00    -0.042 A 
ATOM      2  C   UNL     1      84.632  56.972  44.729  0.00  0.00    -0.058 A 
ATOM      3  C   UNL     1      84.124  56.885  43.421  0.00  0.00    -0.052 A 
ATOM      4  C   UNL     1      84.506  55.792  42.647  0.00  0.00    -0.000 A 
ATOM      5  C   UNL     1      85.344  54.824  43.128  0.00  0.00    +0.047 A 
ATOM      6  C   UNL     1      85.865  54.878  44.419  0.00  0.00    -0.034 A 
ATOM      7  N   UNL     1      85.561  53.878  42.199  0.00  0.00    -0.361 N 
ATOM      8  C   UNL     1      84.848  54.256  41.113  0.00  0.00    +0.003 A 
ATOM      9  C   UNL     1      84.174  55.448  41.354  0.00  0.00    -0.037 A 
ATOM     10  H   UNL     1      86.124  53.076  42.291  0.00  0.00    +0.000 HD
ENDROOT
BRANCH   1  11
ATOM     11  C   UNL     1      86.040  56.082  46.640  0.00  0.00    -0.009 C 
BRANCH  11  14
ATOM     12  C   UNL     1      83.848  55.136  48.465  0.00  0.00    -0.044 C 
ATOM     13  C   UNL     1      85.066  54.301  48.154  0.00  0.00    -0.079 C 
ATOM     14  C   UNL     1      86.044  54.739  47.330  0.00  0.00    -0.081 C 
ATOM     15  C   UNL     1      85.212  52.938  48.780  0.00  0.00    -0.044 C 
ENDBRANCH  11  14
ENDBRANCH   1  11
TORSDOF 2
ENDMDL
