MODEL 1
REMARK VINA RESULT:    -6.794      0.000      0.000
REMARK INTER + INTRA:          -8.045
REMARK INTER:                  -7.654
REMARK INTRA:                  -0.391
REMARK UNBOUND:                -0.456
REMARK  Name = 
REMARK  4 active torsions:
REMARK  status: ('A' for Active; 'I' for Inactive)
REMARK    1  A    between atoms: C_1  and  C_2
REMARK    2  A    between atoms: C_2  and  C_14
REMARK    3  A    between atoms: C_3  and  C_4
REMARK    4  A    between atoms: C_4  and  C_5
REMARK                            x       y       z     vdW  Elec       q    Type
REMARK                         _______ _______ _______ _____ _____    ______ ____
ROOT
ATOM      1  C   UNL     1      88.761  45.589  42.460  0.00  0.00    -0.042 A 
ATOM      2  C   UNL     1      88.688  44.276  42.995  0.00  0.00    -0.058 A 
ATOM      3  C   UNL     1      87.449  43.711  43.347  0.00  0.00    -0.052 A 
ATOM      4  C   UNL     1      86.304  44.478  43.144  0.00  0.00    -0.000 A 
ATOM      5  C   UNL     1      86.364  45.740  42.618  0.00  0.00    +0.047 A 
ATOM      6  C   UNL     1      87.574  46.330  42.259  0.00  0.00    -0.034 A 
ATOM      7  N   UNL     1      85.135  46.273  42.518  0.00  0.00    -0.361 N 
ATOM      8  C   UNL     1      84.284  45.331  42.988  0.00  0.00    +0.003 A 
ATOM      9  C   UNL     1      84.978  44.194  43.389  0.00  0.00    -0.037 A 
ATOM     10  H   UNL     1      84.902  47.165  42.174  0.00  0.00    +0.000 HD
ENDROOT
BRANCH   1  11
ATOM     11  C   UNL     1      90.095  46.177  42.082  0.00  0.00    -0.009 C 
BRANCH  11  14
ATOM     12  C   UNL     1      91.267  48.506  43.576  0.00  0.00    -0.044 C 
ATOM     13  C   UNL     1      90.482  48.670  42.298  0.00  0.00    -0.079 C 
ATOM     14  C   UNL     1      89.961  47.613  41.636  0.00  0.00    -0.081 C 
ATOM     15  C   UNL     1      90.259  50.050  41.734  0.00  0.00    -0.044 C 
ENDBRANCH  11  14
ENDBRANCH   1  11
TORSDOF 2
ENDMDL
MODEL 2
REMARK VINA RESULT:    -6.640      8.175      9.589
REMARK INTER + INTRA:          -7.873
REMARK INTER:                  -7.590
REMARK INTRA:                  -0.283
REMARK UNBOUND:                -0.456
REMARK  Name = 
REMARK  4 active torsions:
REMARK  status: ('A' for Active; 'I' for Inactive)
REMARK    1  A    between atoms: C_1  and  C_2
REMARK    2  A    between atoms: C_2  and  C_14
REMARK    3  A    between atoms: C_3  and  C_4
REMARK    4  A    between atoms: C_4  and  C_5
REMARK                            x       y       z     vdW  Elec       q    Type
REMARK                         _______ _______ _______ _____ _____    ______ ____
ROOT
ATOM      1  C   UNL     1      85.704  54.253  47.436  0.00  0.00    -0.042 A 
ATOM      2  C   UNL     1      85.373  53.557  48.628  0.00  0.00    -0.058 A 
ATOM      3  C   UNL     1      85.709  52.200  48.783  0.00  0.00    -0.052 A 
ATOM      4  C   UNL     1      86.380  51.572  47.738  0.00  0.00    -0.000 A 
ATOM      5  C   UNL     1      86.712  52.238  46.590  0.00  0.00    +0.047 A 
ATOM      6  C   UNL     1      86.396  53.582  46.402  0.00  0.00    -0.034 A 
ATOM      7  N   UNL     1      87.353  51.424  45.735  0.00  0.00    -0.361 N 
ATOM      8  C   UNL     1      87.426  50.222  46.354  0.00  0.00    +0.003 A 
ATOM      9  C   UNL     1      86.829  50.276  47.608  0.00  0.00    -0.037 A 
ATOM     10  H   UNL     1      87.698  51.654  44.842  0.00  0.00    +0.000 HD
ENDROOT
BRANCH   1  11
ATOM     11  C   UNL     1      85.344  55.708  47.287  0.00  0.00    -0.009 C 
BRANCH  11  14
ATOM     12  C   UNL     1      84.521  58.382  46.189  0.00  0.00    -0.044 C 
ATOM     13  C   UNL     1      85.500  57.476  45.480  0.00  0.00    -0.079 C 
ATOM     14  C   UNL     1      85.861  56.276  45.987  0.00  0.00    -0.081 C 
ATOM     15  C   UNL     1      86.095  57.908  44.165  0.00  0.00    -0.044 C 
ENDBRANCH  11  14
ENDBRANCH   1  11
TORSDOF 2
ENDMDL
MODEL 3
REMARK VINA RESULT:    -6.596      8.889     10.888
REMARK INTER + INTRA:          -7.823
REMARK INTER:                  -7.405
REMARK INTRA:                  -0.419
REMARK UNBOUND:                -0.456
REMARK  Name = 
REMARK  4 active torsions:
REMARK  status: ('A' for Active; 'I' for Inactive)
REMARK    1  A    between atoms: C_1  and  C_2
REMARK    2  A    between atoms: C_2  and  C_14
REMARK    3  A    between atoms: C_3  and  C_4
REMARK    4  A    between atoms: C_4  and  C_5
REMARK                            x       y       z     vdW  Elec       q    Type
REMARK                         _______ _______ _______ _____ _____    ______ ____
ROOT
ATOM      1  C   UNL     1      84.892  54.353  46.373  0.00  0.00    -0.042 A 
ATOM      2  C   UNL     1      86.047  54.619  45.592  0.00  0.00    -0.058 A 
ATOM      3  C   UNL     1      86.348  55.928  45.177  0.00  0.00    -0.052 A 
ATOM      4  C   UNL     1      85.482  56.948  45.564  0.00  0.00    -0.000 A 
ATOM      5  C   UNL     1      84.371  56.703  46.324  0.00  0.00    +0.047 A 
ATOM      6  C   UNL     1      84.044  55.419  46.754  0.00  0.00    -0.034 A 
ATOM      7  N   UNL     1      83.700  57.841  46.567  0.00  0.00    -0.361 N 
ATOM      8  C   UNL     1      84.398  58.821  45.948  0.00  0.00    +0.003 A 
ATOM      9  C   UNL     1      85.519  58.302  45.310  0.00  0.00    -0.037 A 
ATOM     10  H   UNL     1      82.870  57.940  47.087  0.00  0.00    +0.000 HD
ENDROOT
BRANCH   1  11
ATOM     11  C   UNL     1      84.587  52.946  46.816  0.00  0.00    -0.009 C 
BRANCH  11  14
ATOM     12  C   UNL     1      86.125  51.680  49.066  0.00  0.00    -0.044 C 
ATOM     13  C   UNL     1      86.473  51.457  47.614  0.00  0.00    -0.079 C 
ATOM     14  C   UNL     1      85.771  52.033  46.613  0.00  0.00    -0.081 C 
ATOM     15  C   UNL     1      87.640  50.573  47.256  0.00  0.00    -0.044 C 
ENDBRANCH  11  14
ENDBRANCH   1  11
TORSDOF 2
ENDMDL
MODEL 4
REMARK VINA RESULT:    -6.575      2.309      4.830
REMARK INTER + INTRA:          -7.801
REMARK INTER:                  -7.361
REMARK INTRA:                  -0.439
REMARK UNBOUND:                -0.456
REMARK  Name = 
REMARK  4 active torsions:
REMARK  status: ('A' for Active; 'I' for Inactive)
REMARK    1  A    between atoms: C_1  and  C_2
REMARK    2  A    between atoms: C_2  and  C_14
REMARK    3  A    between atoms: C_3  and  C_4
REMARK    4  A    between atoms: C_4  and  C_5
REMARK                            x       y       z     vdW  Elec       q    Type
REMARK                         _______ _______ _______ _____ _____    ______ ____
ROOT
ATOM      1  C   UNL     1      89.064  50.105  42.038  0.00  0.00    -0.042 A 
ATOM      2  C   UNL     1      90.441  49.787  42.164  0.00  0.00    -0.058 A 
ATOM      3  C   UNL     1      90.861  48.450  42.281  0.00  0.00    -0.052 A 
ATOM      4  C   UNL     1      89.885  47.457  42.260  0.00  0.00    -0.000 A 
ATOM      5  C   UNL     1      88.556  47.754  42.129  0.00  0.00    +0.047 A 
ATOM      6  C   UNL     1      88.104  49.067  42.011  0.00  0.00    -0.034 A 
ATOM      7  N   UNL     1      87.814  46.634  42.134  0.00  0.00    -0.361 N 
ATOM      8  C   UNL     1      88.691  45.612  42.272  0.00  0.00    +0.003 A 
ATOM      9  C   UNL     1      89.995  46.087  42.353  0.00  0.00    -0.037 A 
ATOM     10  H   UNL     1      86.835  46.571  42.055  0.00  0.00    +0.000 HD
ENDROOT
BRANCH   1  11
ATOM     11  C   UNL     1      88.630  51.542  41.907  0.00  0.00    -0.009 C 
BRANCH  11  14
ATOM     12  C   UNL     1      88.546  52.560  39.081  0.00  0.00    -0.044 C 
ATOM     13  C   UNL     1      89.690  52.857  40.021  0.00  0.00    -0.079 C 
ATOM     14  C   UNL     1      89.713  52.393  41.289  0.00  0.00    -0.081 C 
ATOM     15  C   UNL     1      90.850  53.691  39.540  0.00  0.00    -0.044 C 
ENDBRANCH  11  14
ENDBRANCH   1  11
TORSDOF 2
ENDMDL
MODEL 5
REMARK VINA RESULT:    -6.544      1.876      5.623
REMARK INTER + INTRA:          -7.765
REMARK INTER:                  -7.481
REMARK INTRA:                  -0.285
REMARK UNBOUND:                -0.456
REMARK  Name = 
REMARK  4 active torsions:
REMARK  status: ('A' for Active; 'I' for Inactive)
REMARK    1  A    between atoms: C_1  and  C_2
REMARK    2  A    between atoms: C_2  and  C_14
REMARK    3  A    between atoms: C_3  and  C_4
REMARK    4  A    between atoms: C_4  and  C_5
REMARK                            x       y       z     vdW  Elec       q    Type
REMARK                         _______ _______ _______ _____ _____    ______ ____
ROOT
ATOM      1  C   UNL     1      89.462  47.492  41.968  0.00  0.00    -0.042 A 
ATOM      2  C   UNL     1      90.709  48.101  42.268  0.00  0.00    -0.058 A 
ATOM      3  C   UNL     1      90.891  49.486  42.099  0.00  0.00    -0.052 A 
ATOM      4  C   UNL     1      89.809  50.232  41.639  0.00  0.00    -0.000 A 
ATOM      5  C   UNL     1      88.601  49.655  41.357  0.00  0.00    +0.047 A 
ATOM      6  C   UNL     1      88.386  48.287  41.513  0.00  0.00    -0.034 A 
ATOM      7  N   UNL     1      87.720  50.576  40.933  0.00  0.00    -0.361 N 
ATOM      8  C   UNL     1      88.384  51.756  40.947  0.00  0.00    +0.003 A 
ATOM      9  C   UNL     1      89.693  51.581  41.383  0.00  0.00    -0.037 A 
ATOM     10  H   UNL     1      86.785  50.424  40.667  0.00  0.00    +0.000 HD
ENDROOT
BRANCH   1  11
ATOM     11  C   UNL     1      89.282  46.009  42.160  0.00  0.00    -0.009 C 
BRANCH  11  14
ATOM     12  C   UNL     1      88.193  43.416  43.220  0.00  0.00    -0.044 C 
ATOM     13  C   UNL     1      87.323  44.451  42.548  0.00  0.00    -0.079 C 
ATOM     14  C   UNL     1      87.827  45.613  42.076  0.00  0.00    -0.081 C 
ATOM     15  C   UNL     1      85.848  44.190  42.385  0.00  0.00    -0.044 C 
ENDBRANCH  11  14
ENDBRANCH   1  11
TORSDOF 2
ENDMDL
MODEL 6
REMARK VINA RESULT:    -6.483      5.554      6.697
REMARK INTER + INTRA:          -7.697
REMARK INTER:                  -7.397
REMARK INTRA:                  -0.300
REMARK UNBOUND:                -0.456
REMARK  Name = 
REMARK  4 active torsions:
REMARK  status: ('A' for Active; 'I' for Inactive)
REMARK    1  A    between atoms: C_1  and  C_2
REMARK    2  A    between atoms: C_2  and  C_14
REMARK    3  A    between atoms: C_3  and  C_4
REMARK    4  A    between atoms: C_4  and  C_5
REMARK                            x       y       z     vdW  Elec       q    Type
REMARK                         _______ _______ _______ _____ _____    ______ ____
ROOT
ATOM      1  C   UNL     1      87.560  51.152  45.082  0.00  0.00    -0.042 A 
ATOM      2  C   UNL     1      87.843  50.158  46.056  0.00  0.00    -0.058 A 
ATOM      3  C   UNL     1      87.369  50.289  47.374  0.00  0.00    -0.052 A 
ATOM      4  C   UNL     1      86.611  51.415  47.684  0.00  0.00    -0.000 A 
ATOM      5  C   UNL     1      86.325  52.372  46.749  0.00  0.00    +0.047 A 
ATOM      6  C   UNL     1      86.778  52.275  45.435  0.00  0.00    -0.034 A 
ATOM      7  N   UNL     1      85.582  53.354  47.286  0.00  0.00    -0.361 N 
ATOM      8  C   UNL     1      85.396  53.011  48.582  0.00  0.00    +0.003 A 
ATOM      9  C   UNL     1      86.025  51.804  48.868  0.00  0.00    -0.037 A 
ATOM     10  H   UNL     1      85.243  54.158  46.830  0.00  0.00    +0.000 HD
ENDROOT
BRANCH   1  11
ATOM     11  C   UNL     1      88.069  50.995  43.673  0.00  0.00    -0.009 C 
BRANCH  11  14
ATOM     12  C   UNL     1      89.955  50.540  41.379  0.00  0.00    -0.044 C 
ATOM     13  C   UNL     1      89.790  49.550  42.506  0.00  0.00    -0.079 C 
ATOM     14  C   UNL     1      88.938  49.769  43.532  0.00  0.00    -0.081 C 
ATOM     15  C   UNL     1      90.589  48.272  42.496  0.00  0.00    -0.044 C 
ENDBRANCH  11  14
ENDBRANCH   1  11
TORSDOF 2
ENDMDL
MODEL 7
REMARK VINA RESULT:    -6.406      8.256     10.390
REMARK INTER + INTRA:          -7.612
REMARK INTER:                  -7.324
REMARK INTRA:                  -0.287
REMARK UNBOUND:                -0.456
REMARK  Name = 
REMARK  4 active torsions:
REMARK  status: ('A' for Active; 'I' for Inactive)
REMARK    1  A    between atoms: C_1  and  C_2
REMARK    2  A    between atoms: C_2  and  C_14
REMARK    3  A    between atoms: C_3  and  C_4
REMARK    4  A    between atoms: C_4  and  C_5
REMARK                            x       y       z     vdW  Elec       q    Type
REMARK                         _______ _______ _______ _____ _____    ______ ____
ROOT
ATOM      1  C   UNL     1      85.683  54.327  46.774  0.00  0.00    -0.042 A 
ATOM      2  C   UNL     1      84.642  55.078  47.382  0.00  0.00    -0.058 A 
ATOM      3  C   UNL     1      84.332  56.372  46.927  0.00  0.00    -0.052 A 
ATOM      4  C   UNL     1      85.071  56.882  45.863  0.00  0.00    -0.000 A 
ATOM      5  C   UNL     1      86.068  56.162  45.265  0.00  0.00    +0.047 A 
ATOM      6  C   UNL     1      86.402  54.878  45.689  0.00  0.00    -0.034 A 
ATOM      7  N   UNL     1      86.630  56.864  44.267  0.00  0.00    -0.361 N 
ATOM      8  C   UNL     1      85.975  58.048  44.234  0.00  0.00    +0.003 A 
ATOM      9  C   UNL     1      84.993  58.097  45.217  0.00  0.00    -0.037 A 
ATOM     10  H   UNL     1      87.366  56.575  43.680  0.00  0.00    +0.000 HD
ENDROOT
BRANCH   1  11
ATOM     11  C   UNL     1      85.999  52.939  47.267  0.00  0.00    -0.009 C 
BRANCH  11  14
ATOM     12  C   UNL     1      87.510  50.398  47.807  0.00  0.00    -0.044 C 
ATOM     13  C   UNL     1      87.328  50.958  46.417  0.00  0.00    -0.079 C 
ATOM     14  C   UNL     1      86.645  52.102  46.190  0.00  0.00    -0.081 C 
ATOM     15  C   UNL     1      87.925  50.233  45.239  0.00  0.00    -0.044 C 
ENDBRANCH  11  14
ENDBRANCH   1  11
TORSDOF 2
ENDMDL
MODEL 8
REMARK VINA RESULT:    -6.321      6.775      7.875
REMARK INTER + INTRA:          -7.517
REMARK INTER:                  -7.237
REMARK INTRA:                  -0.280
REMARK UNBOUND:                -0.456
REMARK  Name = 
REMARK  4 active torsions:
REMARK  status: ('A' for Active; 'I' for Inactive)
REMARK    1  A    between atoms: C_1  and  C_2
REMARK    2  A    between atoms: C_2  and  C_14
REMARK    3  A    between atoms: C_3  and  C_4
REMARK    4  A    between atoms: C_4  and  C_5
REMARK                            x       y       z     vdW  Elec       q    Type
REMARK                         _______ _______ _______ _____ _____    ______ ____
ROOT
ATOM      1  C   UNL     1      87.053  51.394  46.597  0.00  0.00    -0.042 A 
ATOM      2  C   UNL     1      86.743  50.969  47.916  0.00  0.00    -0.058 A 
ATOM      3  C   UNL     1      85.998  51.792  48.779  0.00  0.00    -0.052 A 
ATOM      4  C   UNL     1      85.573  53.026  48.294  0.00  0.00    -0.000 A 
ATOM      5  C   UNL     1      85.858  53.440  47.022  0.00  0.00    +0.047 A 
ATOM      6  C   UNL     1      86.593  52.650  46.140  0.00  0.00    -0.034 A 
ATOM      7  N   UNL     1      85.341  54.657  46.789  0.00  0.00    -0.361 N 
ATOM      8  C   UNL     1      84.718  55.019  47.935  0.00  0.00    +0.003 A 
ATOM      9  C   UNL     1      84.841  54.025  48.899  0.00  0.00    -0.037 A 
ATOM     10  H   UNL     1      85.404  55.179  45.957  0.00  0.00    +0.000 HD
ENDROOT
BRANCH   1  11
ATOM     11  C   UNL     1      87.846  50.498  45.682  0.00  0.00    -0.009 C 
BRANCH  11  14
ATOM     12  C   UNL     1      89.423  49.239  43.455  0.00  0.00    -0.044 C 
ATOM     13  C   UNL     1      88.613  50.500  43.269  0.00  0.00    -0.079 C 
ATOM     14  C   UNL     1      87.909  51.054  44.280  0.00  0.00    -0.081 C 
ATOM     15  C   UNL     1      88.587  51.174  41.921  0.00  0.00    -0.044 C 
ENDBRANCH  11  14
ENDBRANCH   1  11
TORSDOF 2
ENDMDL
MODEL 9
REMARK VINA RESULT:    -6.156      8.858     10.351
REMARK INTER + INTRA:          -7.333
REMARK INTER:                  -6.876
REMARK INTRA:                  -0.456
REMARK UNBOUND:                -0.456
REMARK  Name = 
REMARK  4 active torsions:
REMARK  status: ('A' for Active; 'I' for Inactive)
REMARK    1  A    between atoms: C_1  and  C_2
REMARK    2  A    between atoms: C_2  and  C_14
REMARK    3  A    between atoms: C_3  and  C_4
REMARK    4  A    between atoms: C_4  and  C_5
REMARK                            x       y       z     vdW  Elec       q    Type
REMARK                         _______ _______ _______ _____ _____    ______ ____
ROOT
ATOM      1  C   UNL     1      85.796  55.645  44.569  0.00  0.00    -0.042 A 
ATOM      2  C   UNL     1      84.860  56.635  44.171  0.00  0.00    -0.058 A 
ATOM      3  C   UNL     1      84.226  56.562  42.918  0.00  0.00    -0.052 A 
ATOM      4  C   UNL     1      84.542  55.486  42.092  0.00  0.00    -0.000 A 
ATOM      5  C   UNL     1      85.435  54.522  42.471  0.00  0.00    +0.047 A 
ATOM      6  C   UNL     1      86.081  54.563  43.705  0.00  0.00    -0.034 A 
ATOM      7  N   UNL     1      85.570  53.594  41.510  0.00  0.00    -0.361 N 
ATOM      8  C   UNL     1      84.748  53.978  40.506  0.00  0.00    +0.003 A 
ATOM      9  C   UNL     1      84.088  55.158  40.833  0.00  0.00    -0.037 A 
ATOM     10  H   UNL     1      86.149  52.797  41.532  0.00  0.00    +0.000 HD
ENDROOT
BRANCH   1  11
ATOM     11  C   UNL     1      86.462  55.734  45.918  0.00  0.00    -0.009 C 
BRANCH  11  14
ATOM     12  C   UNL     1      85.792  53.217  47.417  0.00  0.00    -0.044 C 
ATOM     13  C   UNL     1      85.140  54.545  47.721  0.00  0.00    -0.079 C 
ATOM     14  C   UNL     1      85.452  55.668  47.039  0.00  0.00    -0.081 C 
ATOM     15  C   UNL     1      84.104  54.632  48.812  0.00  0.00    -0.044 C 
ENDBRANCH  11  14
ENDBRANCH   1  11
TORSDOF 2
ENDMDL
