MODEL 1
REMARK VINA RESULT:    -7.299      0.000      0.000
REMARK INTER + INTRA:          -8.406
REMARK INTER:                  -8.144
REMARK INTRA:                  -0.263
REMARK UNBOUND:                -0.254
REMARK  Name = 
REMARK  4 active torsions:
REMARK  status: ('A' for Active; 'I' for Inactive)
REMARK    1  A    between atoms: C_8  and  C_11
REMARK    2  A    between atoms: C_12  and  C_13
REMARK    3  A    between atoms: C_13  and  C_14
REMARK    4  A    between atoms: C_13  and  C_15
REMARK                            x       y       z     vdW  Elec       q    Type
REMARK                         _______ _______ _______ _____ _____    ______ ____
ROOT
ATOM      1  O   UNL     1      86.015  58.831  43.532  0.00  0.00    -0.275 OA
ATOM      2  C   UNL     1      85.947  57.856  44.326  0.00  0.00    +0.222 C 
ATOM      3  C   UNL     1      85.312  57.918  45.684  0.00  0.00    +0.051 C 
ATOM      4  C   UNL     1      85.532  56.509  46.131  0.00  0.00    -0.017 A 
ATOM      5  C   UNL     1      86.191  55.786  45.161  0.00  0.00    +0.038 A 
ATOM      6  N   UNL     1      86.474  56.570  44.018  0.00  0.00    -0.285 N 
ATOM      7  C   UNL     1      86.508  54.441  45.339  0.00  0.00    -0.033 A 
ATOM      8  C   UNL     1      86.153  53.813  46.552  0.00  0.00    -0.024 A 
ATOM      9  C   UNL     1      85.461  54.561  47.543  0.00  0.00    -0.054 A 
ATOM     10  C   UNL     1      85.153  55.916  47.333  0.00  0.00    -0.056 A 
ATOM     11  H   UNL     1      86.934  56.289  43.193  0.00  0.00    +0.000 HD
ENDROOT
BRANCH   8  12
ATOM     12  C   UNL     1      86.488  52.379  46.727  0.00  0.00    -0.058 C 
ATOM     13  C   UNL     1      87.481  51.758  46.076  0.00  0.00    -0.081 C 
BRANCH  13  14
ATOM     14  C   UNL     1      87.762  50.292  46.298  0.00  0.00    -0.028 C 
ATOM     15  C   UNL     1      88.169  50.036  47.754  0.00  0.00    -0.059 C 
ATOM     16  C   UNL     1      86.535  49.448  45.932  0.00  0.00    -0.059 C 
ENDBRANCH  13  14
ENDBRANCH   8  12
TORSDOF 2
ENDMDL
MODEL 2
REMARK VINA RESULT:    -7.221      6.445      8.010
REMARK INTER + INTRA:          -8.320
REMARK INTER:                  -8.056
REMARK INTRA:                  -0.264
REMARK UNBOUND:                -0.254
REMARK  Name = 
REMARK  4 active torsions:
REMARK  status: ('A' for Active; 'I' for Inactive)
REMARK    1  A    between atoms: C_8  and  C_11
REMARK    2  A    between atoms: C_12  and  C_13
REMARK    3  A    between atoms: C_13  and  C_14
REMARK    4  A    between atoms: C_13  and  C_15
REMARK                            x       y       z     vdW  Elec       q    Type
REMARK                         _______ _______ _______ _____ _____    ______ ____
ROOT
ATOM      1  O   UNL     1      88.299  53.211  40.962  0.00  0.00    -0.275 OA
ATOM      2  C   UNL     1      88.596  52.006  41.172  0.00  0.00    +0.222 C 
ATOM      3  C   UNL     1      89.999  51.500  41.339  0.00  0.00    +0.051 C 
ATOM      4  C   UNL     1      89.721  50.047  41.551  0.00  0.00    -0.017 A 
ATOM      5  C   UNL     1      88.367  49.798  41.507  0.00  0.00    +0.038 A 
ATOM      6  N   UNL     1      87.619  50.976  41.274  0.00  0.00    -0.285 N 
ATOM      7  C   UNL     1      87.853  48.514  41.684  0.00  0.00    -0.033 A 
ATOM      8  C   UNL     1      88.750  47.446  41.902  0.00  0.00    -0.024 A 
ATOM      9  C   UNL     1      90.145  47.714  41.961  0.00  0.00    -0.054 A 
ATOM     10  C   UNL     1      90.632  49.020  41.781  0.00  0.00    -0.056 A 
ATOM     11  H   UNL     1      86.641  51.063  41.200  0.00  0.00    +0.000 HD
ENDROOT
BRANCH   8  12
ATOM     12  C   UNL     1      88.192  46.087  42.097  0.00  0.00    -0.058 C 
ATOM     13  C   UNL     1      88.889  45.056  42.595  0.00  0.00    -0.081 C 
BRANCH  13  14
ATOM     14  C   UNL     1      88.258  43.695  42.760  0.00  0.00    -0.028 C 
ATOM     15  C   UNL     1      88.575  43.118  44.145  0.00  0.00    -0.059 C 
ATOM     16  C   UNL     1      86.741  43.777  42.552  0.00  0.00    -0.059 C 
ENDBRANCH  13  14
ENDBRANCH   8  12
TORSDOF 2
ENDMDL
MODEL 3
REMARK VINA RESULT:    -6.981      3.435      5.025
REMARK INTER + INTRA:          -8.051
REMARK INTER:                  -7.786
REMARK INTRA:                  -0.264
REMARK UNBOUND:                -0.254
REMARK  Name = 
REMARK  4 active torsions:
REMARK  status: ('A' for Active; 'I' for Inactive)
REMARK    1  A    between atoms: C_8  and  C_11
REMARK    2  A    between atoms: C_12  and  C_13
REMARK    3  A    between atoms: C_13  and  C_14
REMARK    4  A    between atoms: C_13  and  C_15
REMARK                            x       y       z     vdW  Elec       q    Type
REMARK                         _______ _______ _______ _____ _____    ______ ____
ROOT
ATOM      1  O   UNL     1      84.396  54.332  49.036  0.00  0.00    -0.275 OA
ATOM      2  C   UNL     1      85.090  53.510  48.382  0.00  0.00    +0.222 C 
ATOM      3  C   UNL     1      85.586  52.204  48.928  0.00  0.00    +0.051 C 
ATOM      4  C   UNL     1      86.321  51.691  47.732  0.00  0.00    -0.017 A 
ATOM      5  C   UNL     1      86.236  52.585  46.687  0.00  0.00    +0.038 A 
ATOM      6  N   UNL     1      85.485  53.733  47.033  0.00  0.00    -0.285 N 
ATOM      7  C   UNL     1      86.838  52.331  45.456  0.00  0.00    -0.033 A 
ATOM      8  C   UNL     1      87.558  51.130  45.286  0.00  0.00    -0.024 A 
ATOM      9  C   UNL     1      87.629  50.206  46.363  0.00  0.00    -0.054 A 
ATOM     10  C   UNL     1      87.010  50.490  47.593  0.00  0.00    -0.056 A 
ATOM     11  H   UNL     1      85.280  54.513  46.466  0.00  0.00    +0.000 HD
ENDROOT
BRANCH   8  12
ATOM     12  C   UNL     1      88.187  50.866  43.969  0.00  0.00    -0.058 C 
ATOM     13  C   UNL     1      88.818  49.727  43.656  0.00  0.00    -0.081 C 
BRANCH  13  14
ATOM     14  C   UNL     1      89.442  49.529  42.296  0.00  0.00    -0.028 C 
ATOM     15  C   UNL     1      89.590  50.871  41.570  0.00  0.00    -0.059 C 
ATOM     16  C   UNL     1      90.807  48.841  42.426  0.00  0.00    -0.059 C 
ENDBRANCH  13  14
ENDBRANCH   8  12
TORSDOF 2
ENDMDL
MODEL 4
REMARK VINA RESULT:    -6.907      8.448      9.674
REMARK INTER + INTRA:          -7.968
REMARK INTER:                  -7.697
REMARK INTRA:                  -0.271
REMARK UNBOUND:                -0.254
REMARK  Name = 
REMARK  4 active torsions:
REMARK  status: ('A' for Active; 'I' for Inactive)
REMARK    1  A    between atoms: C_8  and  C_11
REMARK    2  A    between atoms: C_12  and  C_13
REMARK    3  A    between atoms: C_13  and  C_14
REMARK    4  A    between atoms: C_13  and  C_15
REMARK                            x       y       z     vdW  Elec       q    Type
REMARK                         _______ _______ _______ _____ _____    ______ ____
ROOT
ATOM      1  O   UNL     1      78.191  46.814  44.350  0.00  0.00    -0.275 OA
ATOM      2  C   UNL     1      79.422  46.986  44.153  0.00  0.00    +0.222 C 
ATOM      3  C   UNL     1      80.080  48.330  44.048  0.00  0.00    +0.051 C 
ATOM      4  C   UNL     1      81.494  47.904  43.821  0.00  0.00    -0.017 A 
ATOM      5  C   UNL     1      81.593  46.530  43.805  0.00  0.00    +0.038 A 
ATOM      6  N   UNL     1      80.339  45.907  44.006  0.00  0.00    -0.285 N 
ATOM      7  C   UNL     1      82.815  45.887  43.615  0.00  0.00    -0.033 A 
ATOM      8  C   UNL     1      83.974  46.669  43.423  0.00  0.00    -0.024 A 
ATOM      9  C   UNL     1      83.866  48.086  43.455  0.00  0.00    -0.054 A 
ATOM     10  C   UNL     1      82.620  48.706  43.651  0.00  0.00    -0.056 A 
ATOM     11  H   UNL     1      80.144  44.942  44.038  0.00  0.00    +0.000 HD
ENDROOT
BRANCH   8  12
ATOM     12  C   UNL     1      85.269  45.974  43.231  0.00  0.00    -0.058 C 
ATOM     13  C   UNL     1      85.395  44.775  42.645  0.00  0.00    -0.081 C 
BRANCH  13  14
ATOM     14  C   UNL     1      86.746  44.122  42.488  0.00  0.00    -0.028 C 
ATOM     15  C   UNL     1      87.817  45.170  42.164  0.00  0.00    -0.059 C 
ATOM     16  C   UNL     1      87.122  43.352  43.760  0.00  0.00    -0.059 C 
ENDBRANCH  13  14
ENDBRANCH   8  12
TORSDOF 2
ENDMDL
MODEL 5
REMARK VINA RESULT:    -6.892      7.387      9.702
REMARK INTER + INTRA:          -7.952
REMARK INTER:                  -7.683
REMARK INTRA:                  -0.268
REMARK UNBOUND:                -0.254
REMARK  Name = 
REMARK  4 active torsions:
REMARK  status: ('A' for Active; 'I' for Inactive)
REMARK    1  A    between atoms: C_8  and  C_11
REMARK    2  A    between atoms: C_12  and  C_13
REMARK    3  A    between atoms: C_13  and  C_14
REMARK    4  A    between atoms: C_13  and  C_15
REMARK                            x       y       z     vdW  Elec       q    Type
REMARK                         _______ _______ _______ _____ _____    ______ ____
ROOT
ATOM      1  O   UNL     1      79.268  45.636  45.091  0.00  0.00    -0.275 OA
ATOM      2  C   UNL     1      79.944  46.580  44.603  0.00  0.00    +0.222 C 
ATOM      3  C   UNL     1      81.439  46.571  44.484  0.00  0.00    +0.051 C 
ATOM      4  C   UNL     1      81.651  47.910  43.854  0.00  0.00    -0.017 A 
ATOM      5  C   UNL     1      80.449  48.553  43.659  0.00  0.00    +0.038 A 
ATOM      6  N   UNL     1      79.354  47.776  44.105  0.00  0.00    -0.285 N 
ATOM      7  C   UNL     1      80.382  49.819  43.080  0.00  0.00    -0.033 A 
ATOM      8  C   UNL     1      81.581  50.457  42.697  0.00  0.00    -0.024 A 
ATOM      9  C   UNL     1      82.817  49.780  42.888  0.00  0.00    -0.054 A 
ATOM     10  C   UNL     1      82.852  48.503  43.473  0.00  0.00    -0.056 A 
ATOM     11  H   UNL     1      78.398  48.010  44.077  0.00  0.00    +0.000 HD
ENDROOT
BRANCH   8  12
ATOM     12  C   UNL     1      81.497  51.800  42.074  0.00  0.00    -0.058 C 
ATOM     13  C   UNL     1      82.557  52.480  41.618  0.00  0.00    -0.081 C 
BRANCH  13  14
ATOM     14  C   UNL     1      82.399  53.849  41.001  0.00  0.00    -0.028 C 
ATOM     15  C   UNL     1      80.936  54.302  41.064  0.00  0.00    -0.059 C 
ATOM     16  C   UNL     1      83.303  54.865  41.708  0.00  0.00    -0.059 C 
ENDBRANCH  13  14
ENDBRANCH   8  12
TORSDOF 2
ENDMDL
MODEL 6
REMARK VINA RESULT:    -6.845      7.295     10.171
REMARK INTER + INTRA:          -7.899
REMARK INTER:                  -7.634
REMARK INTRA:                  -0.265
REMARK UNBOUND:                -0.254
REMARK  Name = 
REMARK  4 active torsions:
REMARK  status: ('A' for Active; 'I' for Inactive)
REMARK    1  A    between atoms: C_8  and  C_11
REMARK    2  A    between atoms: C_12  and  C_13
REMARK    3  A    between atoms: C_13  and  C_14
REMARK    4  A    between atoms: C_13  and  C_15
REMARK                            x       y       z     vdW  Elec       q    Type
REMARK                         _______ _______ _______ _____ _____    ______ ____
ROOT
ATOM      1  O   UNL     1      86.724  43.438  42.985  0.00  0.00    -0.275 OA
ATOM      2  C   UNL     1      87.414  44.462  42.738  0.00  0.00    +0.222 C 
ATOM      3  C   UNL     1      88.911  44.514  42.837  0.00  0.00    +0.051 C 
ATOM      4  C   UNL     1      89.142  45.936  42.438  0.00  0.00    -0.017 A 
ATOM      5  C   UNL     1      87.949  46.566  42.162  0.00  0.00    +0.038 A 
ATOM      6  N   UNL     1      86.842  45.701  42.331  0.00  0.00    -0.285 N 
ATOM      7  C   UNL     1      87.901  47.900  41.762  0.00  0.00    -0.033 A 
ATOM      8  C   UNL     1      89.109  48.620  41.650  0.00  0.00    -0.024 A 
ATOM      9  C   UNL     1      90.338  47.959  41.923  0.00  0.00    -0.054 A 
ATOM     10  C   UNL     1      90.354  46.612  42.322  0.00  0.00    -0.056 A 
ATOM     11  H   UNL     1      85.889  45.909  42.197  0.00  0.00    +0.000 HD
ENDROOT
BRANCH   8  12
ATOM     12  C   UNL     1      89.047  50.037  41.216  0.00  0.00    -0.058 C 
ATOM     13  C   UNL     1      89.984  50.950  41.505  0.00  0.00    -0.081 C 
BRANCH  13  14
ATOM     14  C   UNL     1      89.852  52.378  41.036  0.00  0.00    -0.028 C 
ATOM     15  C   UNL     1      89.615  52.428  39.522  0.00  0.00    -0.059 C 
ATOM     16  C   UNL     1      88.711  53.085  41.777  0.00  0.00    -0.059 C 
ENDBRANCH  13  14
ENDBRANCH   8  12
TORSDOF 2
ENDMDL
MODEL 7
REMARK VINA RESULT:    -6.735      8.078      9.936
REMARK INTER + INTRA:          -7.776
REMARK INTER:                  -7.552
REMARK INTRA:                  -0.224
REMARK UNBOUND:                -0.254
REMARK  Name = 
REMARK  4 active torsions:
REMARK  status: ('A' for Active; 'I' for Inactive)
REMARK    1  A    between atoms: C_8  and  C_11
REMARK    2  A    between atoms: C_12  and  C_13
REMARK    3  A    between atoms: C_13  and  C_14
REMARK    4  A    between atoms: C_13  and  C_15
REMARK                            x       y       z     vdW  Elec       q    Type
REMARK                         _______ _______ _______ _____ _____    ______ ____
ROOT
ATOM      1  O   UNL     1      82.309  45.786  43.953  0.00  0.00    -0.275 OA
ATOM      2  C   UNL     1      83.503  45.728  43.557  0.00  0.00    +0.222 C 
ATOM      3  C   UNL     1      84.241  44.448  43.295  0.00  0.00    +0.051 C 
ATOM      4  C   UNL     1      85.562  45.002  42.866  0.00  0.00    -0.017 A 
ATOM      5  C   UNL     1      85.545  46.379  42.890  0.00  0.00    +0.038 A 
ATOM      6  N   UNL     1      84.294  46.885  43.312  0.00  0.00    -0.285 N 
ATOM      7  C   UNL     1      86.661  47.131  42.526  0.00  0.00    -0.033 A 
ATOM      8  C   UNL     1      87.838  46.457  42.134  0.00  0.00    -0.024 A 
ATOM      9  C   UNL     1      87.842  45.036  42.098  0.00  0.00    -0.054 A 
ATOM     10  C   UNL     1      86.701  44.305  42.469  0.00  0.00    -0.056 A 
ATOM     11  H   UNL     1      84.028  47.829  43.412  0.00  0.00    +0.000 HD
ENDROOT
BRANCH   8  12
ATOM     12  C   UNL     1      89.015  47.267  41.741  0.00  0.00    -0.058 C 
ATOM     13  C   UNL     1      89.286  48.483  42.236  0.00  0.00    -0.081 C 
BRANCH  13  14
ATOM     14  C   UNL     1      90.501  49.256  41.784  0.00  0.00    -0.028 C 
ATOM     15  C   UNL     1      90.138  50.721  41.513  0.00  0.00    -0.059 C 
ATOM     16  C   UNL     1      91.615  49.169  42.835  0.00  0.00    -0.059 C 
ENDBRANCH  13  14
ENDBRANCH   8  12
TORSDOF 2
ENDMDL
MODEL 8
REMARK VINA RESULT:    -6.665      3.953      6.101
REMARK INTER + INTRA:          -7.699
REMARK INTER:                  -7.462
REMARK INTRA:                  -0.237
REMARK UNBOUND:                -0.254
REMARK  Name = 
REMARK  4 active torsions:
REMARK  status: ('A' for Active; 'I' for Inactive)
REMARK    1  A    between atoms: C_8  and  C_11
REMARK    2  A    between atoms: C_12  and  C_13
REMARK    3  A    between atoms: C_13  and  C_14
REMARK    4  A    between atoms: C_13  and  C_15
REMARK                            x       y       z     vdW  Elec       q    Type
REMARK                         _______ _______ _______ _____ _____    ______ ____
ROOT
ATOM      1  O   UNL     1      89.152  51.702  39.030  0.00  0.00    -0.275 OA
ATOM      2  C   UNL     1      88.896  51.483  40.243  0.00  0.00    +0.222 C 
ATOM      3  C   UNL     1      89.319  50.250  40.984  0.00  0.00    +0.051 C 
ATOM      4  C   UNL     1      88.746  50.554  42.331  0.00  0.00    -0.017 A 
ATOM      5  C   UNL     1      88.106  51.774  42.325  0.00  0.00    +0.038 A 
ATOM      6  N   UNL     1      88.167  52.396  41.056  0.00  0.00    -0.285 N 
ATOM      7  C   UNL     1      87.494  52.285  43.468  0.00  0.00    -0.033 A 
ATOM      8  C   UNL     1      87.525  51.523  44.655  0.00  0.00    -0.024 A 
ATOM      9  C   UNL     1      88.200  50.272  44.657  0.00  0.00    -0.054 A 
ATOM     10  C   UNL     1      88.810  49.784  43.489  0.00  0.00    -0.056 A 
ATOM     11  H   UNL     1      87.788  53.267  40.793  0.00  0.00    +0.000 HD
ENDROOT
BRANCH   8  12
ATOM     12  C   UNL     1      86.878  52.081  45.867  0.00  0.00    -0.058 C 
ATOM     13  C   UNL     1      86.548  53.371  46.012  0.00  0.00    -0.081 C 
BRANCH  13  14
ATOM     14  C   UNL     1      85.897  53.872  47.278  0.00  0.00    -0.028 C 
ATOM     15  C   UNL     1      85.951  55.403  47.343  0.00  0.00    -0.059 C 
ATOM     16  C   UNL     1      84.445  53.387  47.364  0.00  0.00    -0.059 C 
ENDBRANCH  13  14
ENDBRANCH   8  12
TORSDOF 2
ENDMDL
MODEL 9
REMARK VINA RESULT:    -6.474      3.438      6.246
REMARK INTER + INTRA:          -7.485
REMARK INTER:                  -7.231
REMARK INTRA:                  -0.254
REMARK UNBOUND:                -0.254
REMARK  Name = 
REMARK  4 active torsions:
REMARK  status: ('A' for Active; 'I' for Inactive)
REMARK    1  A    between atoms: C_8  and  C_11
REMARK    2  A    between atoms: C_12  and  C_13
REMARK    3  A    between atoms: C_13  and  C_14
REMARK    4  A    between atoms: C_13  and  C_15
REMARK                            x       y       z     vdW  Elec       q    Type
REMARK                         _______ _______ _______ _____ _____    ______ ____
ROOT
ATOM      1  O   UNL     1      88.074  49.441  40.892  0.00  0.00    -0.275 OA
ATOM      2  C   UNL     1      87.911  49.916  42.046  0.00  0.00    +0.222 C 
ATOM      3  C   UNL     1      88.338  49.226  43.309  0.00  0.00    +0.051 C 
ATOM      4  C   UNL     1      87.895  50.241  44.314  0.00  0.00    -0.017 A 
ATOM      5  C   UNL     1      87.314  51.323  43.691  0.00  0.00    +0.038 A 
ATOM      6  N   UNL     1      87.296  51.178  42.284  0.00  0.00    -0.285 N 
ATOM      7  C   UNL     1      86.825  52.409  44.416  0.00  0.00    -0.033 A 
ATOM      8  C   UNL     1      86.920  52.385  45.823  0.00  0.00    -0.024 A 
ATOM      9  C   UNL     1      87.534  51.271  46.458  0.00  0.00    -0.054 A 
ATOM     10  C   UNL     1      88.020  50.193  45.699  0.00  0.00    -0.056 A 
ATOM     11  H   UNL     1      86.938  51.808  41.617  0.00  0.00    +0.000 HD
ENDROOT
BRANCH   8  12
ATOM     12  C   UNL     1      86.404  53.549  46.584  0.00  0.00    -0.058 C 
ATOM     13  C   UNL     1      86.510  54.819  46.170  0.00  0.00    -0.081 C 
BRANCH  13  14
ATOM     14  C   UNL     1      85.967  55.957  46.999  0.00  0.00    -0.028 C 
ATOM     15  C   UNL     1      85.630  57.160  46.110  0.00  0.00    -0.059 C 
ATOM     16  C   UNL     1      84.725  55.509  47.780  0.00  0.00    -0.059 C 
ENDBRANCH  13  14
ENDBRANCH   8  12
TORSDOF 2
ENDMDL
