MODEL 1
REMARK VINA RESULT:    -8.466      0.000      0.000
REMARK INTER + INTRA:         -11.403
REMARK INTER:                 -11.474
REMARK INTRA:                   0.071
REMARK UNBOUND:                -0.709
REMARK  Name = 
REMARK  8 active torsions:
REMARK  status: ('A' for Active; 'I' for Inactive)
REMARK    1  A    between atoms: C_1  and  O_2
REMARK    2  A    between atoms: O_2  and  C_3
REMARK    3  A    between atoms: C_10  and  C_22
REMARK    4  A    between atoms: C_13  and  O_14
REMARK    5  A    between atoms: C_15  and  O_20
REMARK    6  A    between atoms: C_16  and  O_18
REMARK    7  A    between atoms: O_18  and  C_19
REMARK    8  A    between atoms: O_20  and  C_21
REMARK                            x       y       z     vdW  Elec       q    Type
REMARK                         _______ _______ _______ _____ _____    ______ ____
ROOT
ATOM      1  C   UNL     1      87.731  51.747  41.716  0.00  0.00    +0.094 C 
ATOM      2  C   UNL     1      87.694  50.650  42.788  0.00  0.00    +0.038 C 
ATOM      3  C   UNL     1      88.997  49.963  43.225  0.00  0.00    +0.099 C 
ATOM      4  O   UNL     1      88.702  49.514  44.545  0.00  0.00    -0.464 OA
ATOM      5  C   UNL     1      87.612  50.202  45.053  0.00  0.00    +0.312 C 
ATOM      6  O   UNL     1      87.195  50.064  46.233  0.00  0.00    -0.250 OA
ATOM      7  C   UNL     1      87.124  51.210  44.084  0.00  0.00    +0.076 C 
ATOM      8  C   UNL     1      85.621  51.499  43.931  0.00  0.00    +0.023 C 
ATOM      9  C   UNL     1      85.385  52.317  42.657  0.00  0.00    -0.026 A 
ATOM     10  C   UNL     1      86.344  52.389  41.600  0.00  0.00    +0.031 A 
ATOM     11  C   UNL     1      86.027  53.123  40.439  0.00  0.00    +0.168 A 
ATOM     12  C   UNL     1      84.784  53.772  40.305  0.00  0.00    +0.204 A 
ATOM     13  C   UNL     1      83.836  53.692  41.354  0.00  0.00    +0.165 A 
ATOM     14  C   UNL     1      84.154  52.966  42.514  0.00  0.00    -0.012 A 
ENDROOT
BRANCH   8  15
ATOM     15  C   UNL     1      84.748  50.250  43.981  0.00  0.00    -0.035 A 
ATOM     16  C   UNL     1      85.265  48.956  43.680  0.00  0.00    -0.054 A 
ATOM     17  C   UNL     1      84.440  47.820  43.744  0.00  0.00    -0.016 A 
ATOM     18  C   UNL     1      83.111  48.001  44.107  0.00  0.00    +0.166 A 
ATOM     19  C   UNL     1      82.605  49.225  44.391  0.00  0.00    +0.167 A 
ATOM     20  C   UNL     1      83.385  50.376  44.339  0.00  0.00    -0.012 A 
ATOM     21  O   UNL     1      81.267  49.107  44.715  0.00  0.00    -0.453 OA
ATOM     22  C   UNL     1      80.912  47.721  44.630  0.00  0.00    +0.233 C 
ATOM     23  O   UNL     1      82.117  47.050  44.239  0.00  0.00    -0.453 OA
ENDBRANCH   8  15
BRANCH   1  25
ATOM     24  C   UNL     1      89.769  52.762  41.195  0.00  0.00    +0.037 C 
ATOM     25  O   UNL     1      88.668  52.753  42.077  0.00  0.00    -0.375 OA
ENDBRANCH   1  25
BRANCH  11  26
ATOM     26  O   UNL     1      86.968  53.197  39.408  0.00  0.00    -0.503 OA
ATOM     27  H   UNL     1      86.900  53.867  38.758  0.00  0.00    +0.000 HD
ENDBRANCH  11  26
BRANCH  13  28
ATOM     28  O   UNL     1      82.593  54.333  41.227  0.00  0.00    -0.491 OA
ATOM     29  C   UNL     1      81.344  53.787  41.640  0.00  0.00    +0.079 C 
ENDBRANCH  13  28
BRANCH  12  30
ATOM     30  O   UNL     1      84.556  54.478  39.107  0.00  0.00    -0.488 OA
ATOM     31  C   UNL     1      84.531  55.891  38.941  0.00  0.00    +0.079 C 
ENDBRANCH  12  30
TORSDOF 5
ENDMDL
MODEL 2
REMARK VINA RESULT:    -8.460      2.970      5.926
REMARK INTER + INTRA:         -11.394
REMARK INTER:                 -10.534
REMARK INTRA:                  -0.860
REMARK UNBOUND:                -0.709
REMARK  Name = 
REMARK  8 active torsions:
REMARK  status: ('A' for Active; 'I' for Inactive)
REMARK    1  A    between atoms: C_1  and  O_2
REMARK    2  A    between atoms: O_2  and  C_3
REMARK    3  A    between atoms: C_10  and  C_22
REMARK    4  A    between atoms: C_13  and  O_14
REMARK    5  A    between atoms: C_15  and  O_20
REMARK    6  A    between atoms: C_16  and  O_18
REMARK    7  A    between atoms: O_18  and  C_19
REMARK    8  A    between atoms: O_20  and  C_21
REMARK                            x       y       z     vdW  Elec       q    Type
REMARK                         _______ _______ _______ _____ _____    ______ ____
ROOT
ATOM      1  C   UNL     1      86.853  51.304  45.882  0.00  0.00    +0.094 C 
ATOM      2  C   UNL     1      85.856  52.447  46.114  0.00  0.00    +0.038 C 
ATOM      3  C   UNL     1      85.271  52.679  47.516  0.00  0.00    +0.099 C 
ATOM      4  O   UNL     1      84.930  54.062  47.502  0.00  0.00    -0.464 OA
ATOM      5  C   UNL     1      85.612  54.714  46.487  0.00  0.00    +0.312 C 
ATOM      6  O   UNL     1      85.562  55.959  46.308  0.00  0.00    -0.250 OA
ATOM      7  C   UNL     1      86.505  53.779  45.764  0.00  0.00    +0.076 C 
ATOM      8  C   UNL     1      86.710  53.896  44.244  0.00  0.00    +0.023 C 
ATOM      9  C   UNL     1      87.398  52.630  43.723  0.00  0.00    -0.026 A 
ATOM     10  C   UNL     1      87.418  51.406  44.460  0.00  0.00    +0.031 A 
ATOM     11  C   UNL     1      88.029  50.272  43.886  0.00  0.00    +0.168 A 
ATOM     12  C   UNL     1      88.606  50.329  42.602  0.00  0.00    +0.204 A 
ATOM     13  C   UNL     1      88.578  51.543  41.876  0.00  0.00    +0.165 A 
ATOM     14  C   UNL     1      87.975  52.675  42.449  0.00  0.00    -0.012 A 
ENDROOT
BRANCH   8  15
ATOM     15  C   UNL     1      85.432  54.213  43.475  0.00  0.00    -0.035 A 
ATOM     16  C   UNL     1      85.220  55.477  42.853  0.00  0.00    -0.054 A 
ATOM     17  C   UNL     1      84.037  55.739  42.141  0.00  0.00    -0.016 A 
ATOM     18  C   UNL     1      83.085  54.729  42.068  0.00  0.00    +0.166 A 
ATOM     19  C   UNL     1      83.271  53.524  42.659  0.00  0.00    +0.167 A 
ATOM     20  C   UNL     1      84.426  53.223  43.374  0.00  0.00    -0.012 A 
ATOM     21  O   UNL     1      82.170  52.723  42.428  0.00  0.00    -0.453 OA
ATOM     22  C   UNL     1      81.235  53.471  41.641  0.00  0.00    +0.233 C 
ATOM     23  O   UNL     1      81.858  54.746  41.433  0.00  0.00    -0.453 OA
ENDBRANCH   8  15
BRANCH   1  25
ATOM     24  C   UNL     1      87.901  50.326  47.726  0.00  0.00    +0.037 C 
ATOM     25  O   UNL     1      87.929  51.396  46.805  0.00  0.00    -0.375 OA
ENDBRANCH   1  25
BRANCH  11  26
ATOM     26  O   UNL     1      88.052  49.077  44.610  0.00  0.00    -0.503 OA
ATOM     27  H   UNL     1      88.160  48.261  44.165  0.00  0.00    +0.000 HD
ENDBRANCH  11  26
BRANCH  13  28
ATOM     28  O   UNL     1      89.148  51.607  40.593  0.00  0.00    -0.491 OA
ATOM     29  C   UNL     1      89.851  52.727  40.064  0.00  0.00    +0.079 C 
ENDBRANCH  13  28
BRANCH  12  30
ATOM     30  O   UNL     1      89.189  49.144  42.111  0.00  0.00    -0.488 OA
ATOM     31  C   UNL     1      90.564  48.782  42.170  0.00  0.00    +0.079 C 
ENDBRANCH  12  30
TORSDOF 5
ENDMDL
MODEL 3
REMARK VINA RESULT:    -8.357      2.586      5.956
REMARK INTER + INTRA:         -11.265
REMARK INTER:                 -10.371
REMARK INTRA:                  -0.893
REMARK UNBOUND:                -0.709
REMARK  Name = 
REMARK  8 active torsions:
REMARK  status: ('A' for Active; 'I' for Inactive)
REMARK    1  A    between atoms: C_1  and  O_2
REMARK    2  A    between atoms: O_2  and  C_3
REMARK    3  A    between atoms: C_10  and  C_22
REMARK    4  A    between atoms: C_13  and  O_14
REMARK    5  A    between atoms: C_15  and  O_20
REMARK    6  A    between atoms: C_16  and  O_18
REMARK    7  A    between atoms: O_18  and  C_19
REMARK    8  A    between atoms: O_20  and  C_21
REMARK                            x       y       z     vdW  Elec       q    Type
REMARK                         _______ _______ _______ _____ _____    ______ ____
ROOT
ATOM      1  C   UNL     1      85.409  48.293  44.142  0.00  0.00    +0.094 C 
ATOM      2  C   UNL     1      86.315  49.503  44.404  0.00  0.00    +0.038 C 
ATOM      3  C   UNL     1      87.834  49.307  44.533  0.00  0.00    +0.099 C 
ATOM      4  O   UNL     1      88.359  50.580  44.165  0.00  0.00    -0.464 OA
ATOM      5  C   UNL     1      87.411  51.303  43.457  0.00  0.00    +0.312 C 
ATOM      6  O   UNL     1      87.645  52.424  42.937  0.00  0.00    -0.250 OA
ATOM      7  C   UNL     1      86.171  50.513  43.275  0.00  0.00    +0.076 C 
ATOM      8  C   UNL     1      84.790  51.186  43.327  0.00  0.00    +0.023 C 
ATOM      9  C   UNL     1      83.702  50.113  43.441  0.00  0.00    -0.026 A 
ATOM     10  C   UNL     1      83.979  48.780  43.873  0.00  0.00    +0.031 A 
ATOM     11  C   UNL     1      82.913  47.867  44.001  0.00  0.00    +0.168 A 
ATOM     12  C   UNL     1      81.588  48.252  43.718  0.00  0.00    +0.204 A 
ATOM     13  C   UNL     1      81.320  49.576  43.295  0.00  0.00    +0.165 A 
ATOM     14  C   UNL     1      82.382  50.485  43.163  0.00  0.00    -0.012 A 
ENDROOT
BRANCH   8  15
ATOM     15  C   UNL     1      84.665  52.248  44.414  0.00  0.00    -0.035 A 
ATOM     16  C   UNL     1      84.537  51.906  45.792  0.00  0.00    -0.054 A 
ATOM     17  C   UNL     1      84.435  52.905  46.775  0.00  0.00    -0.016 A 
ATOM     18  C   UNL     1      84.460  54.231  46.359  0.00  0.00    +0.166 A 
ATOM     19  C   UNL     1      84.576  54.571  45.053  0.00  0.00    +0.167 A 
ATOM     20  C   UNL     1      84.679  53.615  44.047  0.00  0.00    -0.012 A 
ATOM     21  O   UNL     1      84.569  55.947  44.933  0.00  0.00    -0.453 OA
ATOM     22  C   UNL     1      84.443  56.506  46.247  0.00  0.00    +0.233 C 
ATOM     23  O   UNL     1      84.376  55.376  47.128  0.00  0.00    -0.453 OA
ENDBRANCH   8  15
BRANCH   1  25
ATOM     24  C   UNL     1      86.349  46.301  43.365  0.00  0.00    +0.037 C 
ATOM     25  O   UNL     1      85.865  47.577  43.002  0.00  0.00    -0.375 OA
ENDBRANCH   1  25
BRANCH  11  26
ATOM     26  O   UNL     1      83.187  46.561  44.419  0.00  0.00    -0.503 OA
ATOM     27  H   UNL     1      82.812  45.834  43.962  0.00  0.00    +0.000 HD
ENDBRANCH  11  26
BRANCH  13  28
ATOM     28  O   UNL     1      80.001  49.970  43.016  0.00  0.00    -0.491 OA
ATOM     29  C   UNL     1      79.031  50.338  43.992  0.00  0.00    +0.079 C 
ENDBRANCH  13  28
BRANCH  12  30
ATOM     30  O   UNL     1      80.589  47.272  43.878  0.00  0.00    -0.488 OA
ATOM     31  C   UNL     1      79.941  46.904  45.091  0.00  0.00    +0.079 C 
ENDBRANCH  12  30
TORSDOF 5
ENDMDL
MODEL 4
REMARK VINA RESULT:    -8.156      2.875      5.620
REMARK INTER + INTRA:         -11.011
REMARK INTER:                 -10.441
REMARK INTRA:                  -0.570
REMARK UNBOUND:                -0.709
REMARK  Name = 
REMARK  8 active torsions:
REMARK  status: ('A' for Active; 'I' for Inactive)
REMARK    1  A    between atoms: C_1  and  O_2
REMARK    2  A    between atoms: O_2  and  C_3
REMARK    3  A    between atoms: C_10  and  C_22
REMARK    4  A    between atoms: C_13  and  O_14
REMARK    5  A    between atoms: C_15  and  O_20
REMARK    6  A    between atoms: C_16  and  O_18
REMARK    7  A    between atoms: O_18  and  C_19
REMARK    8  A    between atoms: O_20  and  C_21
REMARK                            x       y       z     vdW  Elec       q    Type
REMARK                         _______ _______ _______ _____ _____    ______ ____
ROOT
ATOM      1  C   UNL     1      85.894  53.041  43.070  0.00  0.00    +0.094 C 
ATOM      2  C   UNL     1      86.516  52.199  41.949  0.00  0.00    +0.038 C 
ATOM      3  C   UNL     1      86.440  52.688  40.494  0.00  0.00    +0.099 C 
ATOM      4  O   UNL     1      87.560  52.055  39.879  0.00  0.00    -0.464 OA
ATOM      5  C   UNL     1      88.467  51.644  40.842  0.00  0.00    +0.312 C 
ATOM      6  O   UNL     1      89.585  51.137  40.567  0.00  0.00    -0.250 OA
ATOM      7  C   UNL     1      88.008  52.025  42.198  0.00  0.00    +0.076 C 
ATOM      8  C   UNL     1      88.248  51.100  43.403  0.00  0.00    +0.023 C 
ATOM      9  C   UNL     1      87.396  51.571  44.586  0.00  0.00    -0.026 A 
ATOM     10  C   UNL     1      86.266  52.431  44.427  0.00  0.00    +0.031 A 
ATOM     11  C   UNL     1      85.505  52.776  45.562  0.00  0.00    +0.168 A 
ATOM     12  C   UNL     1      85.836  52.281  46.839  0.00  0.00    +0.204 A 
ATOM     13  C   UNL     1      86.954  51.425  46.989  0.00  0.00    +0.165 A 
ATOM     14  C   UNL     1      87.716  51.085  45.859  0.00  0.00    -0.012 A 
ENDROOT
BRANCH   8  15
ATOM     15  C   UNL     1      88.034  49.622  43.095  0.00  0.00    -0.035 A 
ATOM     16  C   UNL     1      89.082  48.797  42.593  0.00  0.00    -0.054 A 
ATOM     17  C   UNL     1      88.860  47.434  42.327  0.00  0.00    -0.016 A 
ATOM     18  C   UNL     1      87.590  46.924  42.566  0.00  0.00    +0.166 A 
ATOM     19  C   UNL     1      86.583  47.698  43.038  0.00  0.00    +0.167 A 
ATOM     20  C   UNL     1      86.758  49.050  43.314  0.00  0.00    -0.012 A 
ATOM     21  O   UNL     1      85.441  46.933  43.176  0.00  0.00    -0.453 OA
ATOM     22  C   UNL     1      85.751  45.595  42.766  0.00  0.00    +0.233 C 
ATOM     23  O   UNL     1      87.133  45.633  42.385  0.00  0.00    -0.453 OA
ENDBRANCH   8  15
BRANCH   1  25
ATOM     24  C   UNL     1      85.354  55.292  42.761  0.00  0.00    +0.037 C 
ATOM     25  O   UNL     1      86.391  54.371  43.019  0.00  0.00    -0.375 OA
ENDBRANCH   1  25
BRANCH  11  26
ATOM     26  O   UNL     1      84.403  53.622  45.405  0.00  0.00    -0.503 OA
ATOM     27  H   UNL     1      84.060  54.087  46.142  0.00  0.00    +0.000 HD
ENDBRANCH  11  26
BRANCH  13  28
ATOM     28  O   UNL     1      87.288  50.924  48.257  0.00  0.00    -0.491 OA
ATOM     29  C   UNL     1      88.320  49.977  48.518  0.00  0.00    +0.079 C 
ENDBRANCH  13  28
BRANCH  12  30
ATOM     30  O   UNL     1      85.014  52.678  47.912  0.00  0.00    -0.488 OA
ATOM     31  C   UNL     1      85.241  53.764  48.804  0.00  0.00    +0.079 C 
ENDBRANCH  12  30
TORSDOF 5
ENDMDL
MODEL 5
REMARK VINA RESULT:    -8.070      3.118      6.075
REMARK INTER + INTRA:         -10.902
REMARK INTER:                  -9.989
REMARK INTRA:                  -0.913
REMARK UNBOUND:                -0.709
REMARK  Name = 
REMARK  8 active torsions:
REMARK  status: ('A' for Active; 'I' for Inactive)
REMARK    1  A    between atoms: C_1  and  O_2
REMARK    2  A    between atoms: O_2  and  C_3
REMARK    3  A    between atoms: C_10  and  C_22
REMARK    4  A    between atoms: C_13  and  O_14
REMARK    5  A    between atoms: C_15  and  O_20
REMARK    6  A    between atoms: C_16  and  O_18
REMARK    7  A    between atoms: O_18  and  C_19
REMARK    8  A    between atoms: O_20  and  C_21
REMARK                            x       y       z     vdW  Elec       q    Type
REMARK                         _______ _______ _______ _____ _____    ______ ____
ROOT
ATOM      1  C   UNL     1      85.716  53.287  42.971  0.00  0.00    +0.094 C 
ATOM      2  C   UNL     1      86.486  52.536  41.878  0.00  0.00    +0.038 C 
ATOM      3  C   UNL     1      86.444  53.041  40.427  0.00  0.00    +0.099 C 
ATOM      4  O   UNL     1      87.656  52.541  39.872  0.00  0.00    -0.464 OA
ATOM      5  C   UNL     1      88.545  52.207  40.882  0.00  0.00    +0.312 C 
ATOM      6  O   UNL     1      89.724  51.824  40.666  0.00  0.00    -0.250 OA
ATOM      7  C   UNL     1      87.971  52.512  42.213  0.00  0.00    +0.076 C 
ATOM      8  C   UNL     1      88.237  51.595  43.418  0.00  0.00    +0.023 C 
ATOM      9  C   UNL     1      87.274  51.952  44.554  0.00  0.00    -0.026 A 
ATOM     10  C   UNL     1      86.071  52.693  44.340  0.00  0.00    +0.031 A 
ATOM     11  C   UNL     1      85.214  52.936  45.432  0.00  0.00    +0.168 A 
ATOM     12  C   UNL     1      85.521  52.453  46.719  0.00  0.00    +0.204 A 
ATOM     13  C   UNL     1      86.712  51.716  46.924  0.00  0.00    +0.165 A 
ATOM     14  C   UNL     1      87.569  51.478  45.837  0.00  0.00    -0.012 A 
ENDROOT
BRANCH   8  15
ATOM     15  C   UNL     1      88.197  50.109  43.078  0.00  0.00    -0.035 A 
ATOM     16  C   UNL     1      86.997  49.461  42.665  0.00  0.00    -0.054 A 
ATOM     17  C   UNL     1      86.991  48.092  42.347  0.00  0.00    -0.016 A 
ATOM     18  C   UNL     1      88.189  47.395  42.452  0.00  0.00    +0.166 A 
ATOM     19  C   UNL     1      89.336  47.996  42.847  0.00  0.00    +0.167 A 
ATOM     20  C   UNL     1      89.387  49.348  43.172  0.00  0.00    -0.012 A 
ATOM     21  O   UNL     1      90.361  47.069  42.863  0.00  0.00    -0.453 OA
ATOM     22  C   UNL     1      89.822  45.807  42.450  0.00  0.00    +0.233 C 
ATOM     23  O   UNL     1      88.433  46.059  42.197  0.00  0.00    -0.453 OA
ENDBRANCH   8  15
BRANCH   1  25
ATOM     24  C   UNL     1      84.970  55.473  42.627  0.00  0.00    +0.037 C 
ATOM     25  O   UNL     1      86.074  54.662  42.967  0.00  0.00    -0.375 OA
ENDBRANCH   1  25
BRANCH  11  26
ATOM     26  O   UNL     1      84.040  53.665  45.221  0.00  0.00    -0.503 OA
ATOM     27  H   UNL     1      84.055  54.434  44.686  0.00  0.00    +0.000 HD
ENDBRANCH  11  26
BRANCH  13  28
ATOM     28  O   UNL     1      87.023  51.227  48.204  0.00  0.00    -0.491 OA
ATOM     29  C   UNL     1      87.869  50.113  48.472  0.00  0.00    +0.079 C 
ENDBRANCH  13  28
BRANCH  12  30
ATOM     30  O   UNL     1      84.602  52.743  47.747  0.00  0.00    -0.488 OA
ATOM     31  C   UNL     1      84.696  53.790  48.706  0.00  0.00    +0.079 C 
ENDBRANCH  12  30
TORSDOF 5
ENDMDL
MODEL 6
REMARK VINA RESULT:    -8.025      2.843      5.647
REMARK INTER + INTRA:         -10.846
REMARK INTER:                 -10.558
REMARK INTRA:                  -0.288
REMARK UNBOUND:                -0.709
REMARK  Name = 
REMARK  8 active torsions:
REMARK  status: ('A' for Active; 'I' for Inactive)
REMARK    1  A    between atoms: C_1  and  O_2
REMARK    2  A    between atoms: O_2  and  C_3
REMARK    3  A    between atoms: C_10  and  C_22
REMARK    4  A    between atoms: C_13  and  O_14
REMARK    5  A    between atoms: C_15  and  O_20
REMARK    6  A    between atoms: C_16  and  O_18
REMARK    7  A    between atoms: O_18  and  C_19
REMARK    8  A    between atoms: O_20  and  C_21
REMARK                            x       y       z     vdW  Elec       q    Type
REMARK                         _______ _______ _______ _____ _____    ______ ____
ROOT
ATOM      1  C   UNL     1      86.434  53.045  46.536  0.00  0.00    +0.094 C 
ATOM      2  C   UNL     1      87.200  51.841  45.974  0.00  0.00    +0.038 C 
ATOM      3  C   UNL     1      87.876  50.848  46.932  0.00  0.00    +0.099 C 
ATOM      4  O   UNL     1      87.929  49.644  46.172  0.00  0.00    -0.464 OA
ATOM      5  C   UNL     1      87.024  49.700  45.123  0.00  0.00    +0.312 C 
ATOM      6  O   UNL     1      86.804  48.733  44.348  0.00  0.00    -0.250 OA
ATOM      7  C   UNL     1      86.264  50.970  45.147  0.00  0.00    +0.076 C 
ATOM      8  C   UNL     1      85.875  51.685  43.842  0.00  0.00    +0.023 C 
ATOM      9  C   UNL     1      85.403  53.107  44.159  0.00  0.00    -0.026 A 
ATOM     10  C   UNL     1      85.709  53.763  45.391  0.00  0.00    +0.031 A 
ATOM     11  C   UNL     1      85.279  55.092  45.584  0.00  0.00    +0.168 A 
ATOM     12  C   UNL     1      84.566  55.778  44.581  0.00  0.00    +0.204 A 
ATOM     13  C   UNL     1      84.271  55.124  43.361  0.00  0.00    +0.165 A 
ATOM     14  C   UNL     1      84.694  53.799  43.171  0.00  0.00    -0.012 A 
ENDROOT
BRANCH   8  15
ATOM     15  C   UNL     1      86.973  51.668  42.783  0.00  0.00    -0.035 A 
ATOM     16  C   UNL     1      87.199  50.534  41.950  0.00  0.00    -0.054 A 
ATOM     17  C   UNL     1      88.211  50.549  40.974  0.00  0.00    -0.016 A 
ATOM     18  C   UNL     1      88.981  51.700  40.853  0.00  0.00    +0.166 A 
ATOM     19  C   UNL     1      88.780  52.783  41.642  0.00  0.00    +0.167 A 
ATOM     20  C   UNL     1      87.791  52.811  42.620  0.00  0.00    -0.012 A 
ATOM     21  O   UNL     1      89.685  53.771  41.306  0.00  0.00    -0.453 OA
ATOM     22  C   UNL     1      90.503  53.278  40.238  0.00  0.00    +0.233 C 
ATOM     23  O   UNL     1      90.021  51.952  39.980  0.00  0.00    -0.453 OA
ENDBRANCH   8  15
BRANCH   1  25
ATOM     24  C   UNL     1      85.748  53.131  48.767  0.00  0.00    +0.037 C 
ATOM     25  O   UNL     1      85.468  52.613  47.484  0.00  0.00    -0.375 OA
ENDBRANCH   1  25
BRANCH  11  26
ATOM     26  O   UNL     1      85.575  55.730  46.792  0.00  0.00    -0.503 OA
ATOM     27  H   UNL     1      84.945  55.737  47.485  0.00  0.00    +0.000 HD
ENDBRANCH  11  26
BRANCH  13  28
ATOM     28  O   UNL     1      83.565  55.803  42.354  0.00  0.00    -0.491 OA
ATOM     29  C   UNL     1      83.396  55.341  41.017  0.00  0.00    +0.079 C 
ENDBRANCH  13  28
BRANCH  12  30
ATOM     30  O   UNL     1      84.183  57.104  44.863  0.00  0.00    -0.488 OA
ATOM     31  C   UNL     1      84.998  58.267  44.766  0.00  0.00    +0.079 C 
ENDBRANCH  12  30
TORSDOF 5
ENDMDL
MODEL 7
REMARK VINA RESULT:    -7.981      2.556      6.577
REMARK INTER + INTRA:         -10.790
REMARK INTER:                  -9.927
REMARK INTRA:                  -0.864
REMARK UNBOUND:                -0.709
REMARK  Name = 
REMARK  8 active torsions:
REMARK  status: ('A' for Active; 'I' for Inactive)
REMARK    1  A    between atoms: C_1  and  O_2
REMARK    2  A    between atoms: O_2  and  C_3
REMARK    3  A    between atoms: C_10  and  C_22
REMARK    4  A    between atoms: C_13  and  O_14
REMARK    5  A    between atoms: C_15  and  O_20
REMARK    6  A    between atoms: C_16  and  O_18
REMARK    7  A    between atoms: O_18  and  C_19
REMARK    8  A    between atoms: O_20  and  C_21
REMARK                            x       y       z     vdW  Elec       q    Type
REMARK                         _______ _______ _______ _____ _____    ______ ____
ROOT
ATOM      1  C   UNL     1      85.677  51.744  46.205  0.00  0.00    +0.094 C 
ATOM      2  C   UNL     1      85.147  53.144  45.869  0.00  0.00    +0.038 C 
ATOM      3  C   UNL     1      84.777  54.114  47.001  0.00  0.00    +0.099 C 
ATOM      4  O   UNL     1      84.927  55.395  46.395  0.00  0.00    -0.464 OA
ATOM      5  C   UNL     1      85.715  55.299  45.260  0.00  0.00    +0.312 C 
ATOM      6  O   UNL     1      86.079  56.296  44.584  0.00  0.00    -0.250 OA
ATOM      7  C   UNL     1      86.183  53.908  45.057  0.00  0.00    +0.076 C 
ATOM      8  C   UNL     1      86.308  53.313  43.645  0.00  0.00    +0.023 C 
ATOM      9  C   UNL     1      86.486  51.795  43.744  0.00  0.00    -0.026 A 
ATOM     10  C   UNL     1      86.140  51.054  44.917  0.00  0.00    +0.031 A 
ATOM     11  C   UNL     1      86.287  49.652  44.908  0.00  0.00    +0.168 A 
ATOM     12  C   UNL     1      86.756  48.977  43.764  0.00  0.00    +0.204 A 
ATOM     13  C   UNL     1      87.091  49.716  42.604  0.00  0.00    +0.165 A 
ATOM     14  C   UNL     1      86.951  51.114  42.614  0.00  0.00    -0.012 A 
ENDROOT
BRANCH   8  15
ATOM     15  C   UNL     1      85.162  53.697  42.714  0.00  0.00    -0.035 A 
ATOM     16  C   UNL     1      83.821  53.284  42.959  0.00  0.00    -0.054 A 
ATOM     17  C   UNL     1      82.782  53.662  42.090  0.00  0.00    -0.016 A 
ATOM     18  C   UNL     1      83.108  54.445  40.989  0.00  0.00    +0.166 A 
ATOM     19  C   UNL     1      84.379  54.841  40.742  0.00  0.00    +0.167 A 
ATOM     20  C   UNL     1      85.437  54.490  41.574  0.00  0.00    -0.012 A 
ATOM     21  O   UNL     1      84.409  55.601  39.589  0.00  0.00    -0.453 OA
ATOM     22  C   UNL     1      83.071  55.688  39.081  0.00  0.00    +0.233 C 
ATOM     23  O   UNL     1      82.272  54.937  40.005  0.00  0.00    -0.453 OA
ENDBRANCH   8  15
BRANCH   1  25
ATOM     24  C   UNL     1      86.451  51.343  48.372  0.00  0.00    +0.037 C 
ATOM     25  O   UNL     1      86.782  51.837  47.093  0.00  0.00    -0.375 OA
ENDBRANCH   1  25
BRANCH  11  26
ATOM     26  O   UNL     1      85.954  48.931  46.058  0.00  0.00    -0.503 OA
ATOM     27  H   UNL     1      85.501  48.114  45.984  0.00  0.00    +0.000 HD
ENDBRANCH  11  26
BRANCH  13  28
ATOM     28  O   UNL     1      87.556  49.050  41.458  0.00  0.00    -0.491 OA
ATOM     29  C   UNL     1      88.836  48.438  41.328  0.00  0.00    +0.079 C 
ENDBRANCH  13  28
BRANCH  12  30
ATOM     30  O   UNL     1      86.865  47.575  43.849  0.00  0.00    -0.488 OA
ATOM     31  C   UNL     1      85.910  46.617  43.406  0.00  0.00    +0.079 C 
ENDBRANCH  12  30
TORSDOF 5
ENDMDL
MODEL 8
REMARK VINA RESULT:    -7.765      2.865      5.132
REMARK INTER + INTRA:         -10.517
REMARK INTER:                 -10.831
REMARK INTRA:                   0.314
REMARK UNBOUND:                -0.709
REMARK  Name = 
REMARK  8 active torsions:
REMARK  status: ('A' for Active; 'I' for Inactive)
REMARK    1  A    between atoms: C_1  and  O_2
REMARK    2  A    between atoms: O_2  and  C_3
REMARK    3  A    between atoms: C_10  and  C_22
REMARK    4  A    between atoms: C_13  and  O_14
REMARK    5  A    between atoms: C_15  and  O_20
REMARK    6  A    between atoms: C_16  and  O_18
REMARK    7  A    between atoms: O_18  and  C_19
REMARK    8  A    between atoms: O_20  and  C_21
REMARK                            x       y       z     vdW  Elec       q    Type
REMARK                         _______ _______ _______ _____ _____    ______ ____
ROOT
ATOM      1  C   UNL     1      86.491  53.085  46.590  0.00  0.00    +0.094 C 
ATOM      2  C   UNL     1      86.949  51.625  46.494  0.00  0.00    +0.038 C 
ATOM      3  C   UNL     1      87.146  50.798  47.774  0.00  0.00    +0.099 C 
ATOM      4  O   UNL     1      86.963  49.457  47.328  0.00  0.00    -0.464 OA
ATOM      5  C   UNL     1      86.289  49.442  46.117  0.00  0.00    +0.312 C 
ATOM      6  O   UNL     1      85.919  48.384  45.545  0.00  0.00    -0.250 OA
ATOM      7  C   UNL     1      85.940  50.817  45.690  0.00  0.00    +0.076 C 
ATOM      8  C   UNL     1      85.986  51.220  44.206  0.00  0.00    +0.023 C 
ATOM      9  C   UNL     1      85.907  52.745  44.088  0.00  0.00    -0.026 A 
ATOM     10  C   UNL     1      86.195  53.618  45.182  0.00  0.00    +0.031 A 
ATOM     11  C   UNL     1      86.149  55.011  44.976  0.00  0.00    +0.168 A 
ATOM     12  C   UNL     1      85.833  55.549  43.713  0.00  0.00    +0.204 A 
ATOM     13  C   UNL     1      85.554  54.679  42.632  0.00  0.00    +0.165 A 
ATOM     14  C   UNL     1      85.594  53.291  42.838  0.00  0.00    -0.012 A 
ENDROOT
BRANCH   8  15
ATOM     15  C   UNL     1      87.181  50.647  43.452  0.00  0.00    -0.035 A 
ATOM     16  C   UNL     1      88.256  51.469  43.006  0.00  0.00    -0.054 A 
ATOM     17  C   UNL     1      89.352  50.913  42.323  0.00  0.00    -0.016 A 
ATOM     18  C   UNL     1      89.348  49.542  42.095  0.00  0.00    +0.166 A 
ATOM     19  C   UNL     1      88.330  48.749  42.509  0.00  0.00    +0.167 A 
ATOM     20  C   UNL     1      87.227  49.257  43.188  0.00  0.00    -0.012 A 
ATOM     21  O   UNL     1      88.589  47.441  42.147  0.00  0.00    -0.453 OA
ATOM     22  C   UNL     1      89.849  47.411  41.465  0.00  0.00    +0.233 C 
ATOM     23  O   UNL     1      90.300  48.773  41.453  0.00  0.00    -0.453 OA
ENDBRANCH   8  15
BRANCH   1  25
ATOM     24  C   UNL     1      85.555  53.815  48.602  0.00  0.00    +0.037 C 
ATOM     25  O   UNL     1      85.305  53.177  47.368  0.00  0.00    -0.375 OA
ENDBRANCH   1  25
BRANCH  11  26
ATOM     26  O   UNL     1      86.426  55.863  46.049  0.00  0.00    -0.503 OA
ATOM     27  H   UNL     1      86.967  56.617  45.922  0.00  0.00    +0.000 HD
ENDBRANCH  11  26
BRANCH  13  28
ATOM     28  O   UNL     1      85.243  55.208  41.368  0.00  0.00    -0.491 OA
ATOM     29  C   UNL     1      84.798  54.447  40.249  0.00  0.00    +0.079 C 
ENDBRANCH  13  28
BRANCH  12  30
ATOM     30  O   UNL     1      85.816  56.954  43.603  0.00  0.00    -0.488 OA
ATOM     31  C   UNL     1      84.931  57.851  44.265  0.00  0.00    +0.079 C 
ENDBRANCH  12  30
TORSDOF 5
ENDMDL
MODEL 9
REMARK VINA RESULT:    -7.478      2.985      6.797
REMARK INTER + INTRA:         -10.155
REMARK INTER:                  -9.445
REMARK INTRA:                  -0.709
REMARK UNBOUND:                -0.709
REMARK  Name = 
REMARK  8 active torsions:
REMARK  status: ('A' for Active; 'I' for Inactive)
REMARK    1  A    between atoms: C_1  and  O_2
REMARK    2  A    between atoms: O_2  and  C_3
REMARK    3  A    between atoms: C_10  and  C_22
REMARK    4  A    between atoms: C_13  and  O_14
REMARK    5  A    between atoms: C_15  and  O_20
REMARK    6  A    between atoms: C_16  and  O_18
REMARK    7  A    between atoms: O_18  and  C_19
REMARK    8  A    between atoms: O_20  and  C_21
REMARK                            x       y       z     vdW  Elec       q    Type
REMARK                         _______ _______ _______ _____ _____    ______ ____
ROOT
ATOM      1  C   UNL     1      85.322  54.230  46.191  0.00  0.00    +0.094 C 
ATOM      2  C   UNL     1      84.693  55.423  45.460  0.00  0.00    +0.038 C 
ATOM      3  C   UNL     1      84.225  56.649  46.259  0.00  0.00    +0.099 C 
ATOM      4  O   UNL     1      84.287  57.704  45.303  0.00  0.00    -0.464 OA
ATOM      5  C   UNL     1      85.103  57.343  44.242  0.00  0.00    +0.312 C 
ATOM      6  O   UNL     1      85.401  58.125  43.302  0.00  0.00    -0.250 OA
ATOM      7  C   UNL     1      85.682  55.996  44.456  0.00  0.00    +0.076 C 
ATOM      8  C   UNL     1      85.880  55.025  43.280  0.00  0.00    +0.023 C 
ATOM      9  C   UNL     1      86.174  53.622  43.820  0.00  0.00    -0.026 A 
ATOM     10  C   UNL     1      85.864  53.233  45.159  0.00  0.00    +0.031 A 
ATOM     11  C   UNL     1      86.119  51.906  45.562  0.00  0.00    +0.168 A 
ATOM     12  C   UNL     1      86.663  50.965  44.664  0.00  0.00    +0.204 A 
ATOM     13  C   UNL     1      86.962  51.357  43.337  0.00  0.00    +0.165 A 
ATOM     14  C   UNL     1      86.713  52.680  42.937  0.00  0.00    -0.012 A 
ENDROOT
BRANCH   8  15
ATOM     15  C   UNL     1      84.727  55.027  42.282  0.00  0.00    -0.035 A 
ATOM     16  C   UNL     1      84.925  55.318  40.901  0.00  0.00    -0.054 A 
ATOM     17  C   UNL     1      83.845  55.302  40.001  0.00  0.00    -0.016 A 
ATOM     18  C   UNL     1      82.585  54.997  40.502  0.00  0.00    +0.166 A 
ATOM     19  C   UNL     1      82.382  54.723  41.813  0.00  0.00    +0.167 A 
ATOM     20  C   UNL     1      83.421  54.729  42.738  0.00  0.00    -0.012 A 
ATOM     21  O   UNL     1      81.042  54.461  42.026  0.00  0.00    -0.453 OA
ATOM     22  C   UNL     1      80.363  54.576  40.769  0.00  0.00    +0.233 C 
ATOM     23  O   UNL     1      81.384  54.919  39.823  0.00  0.00    -0.453 OA
ENDBRANCH   8  15
BRANCH   1  25
ATOM     24  C   UNL     1      86.085  54.538  48.377  0.00  0.00    +0.037 C 
ATOM     25  O   UNL     1      86.400  54.668  47.007  0.00  0.00    -0.375 OA
ENDBRANCH   1  25
BRANCH  11  26
ATOM     26  O   UNL     1      85.821  51.528  46.874  0.00  0.00    -0.503 OA
ATOM     27  H   UNL     1      86.236  51.961  47.593  0.00  0.00    +0.000 HD
ENDBRANCH  11  26
BRANCH  13  28
ATOM     28  O   UNL     1      87.500  50.424  42.436  0.00  0.00    -0.491 OA
ATOM     29  C   UNL     1      88.862  50.008  42.402  0.00  0.00    +0.079 C 
ENDBRANCH  13  28
BRANCH  12  30
ATOM     30  O   UNL     1      86.879  49.663  45.157  0.00  0.00    -0.488 OA
ATOM     31  C   UNL     1      86.001  48.549  45.037  0.00  0.00    +0.079 C 
ENDBRANCH  12  30
TORSDOF 5
ENDMDL
