MODEL 1
REMARK VINA RESULT:    -8.474      0.000      0.000
REMARK INTER + INTRA:         -11.505
REMARK INTER:                 -10.620
REMARK INTRA:                  -0.885
REMARK UNBOUND:                -0.801
REMARK  Name = 
REMARK  8 active torsions:
REMARK  status: ('A' for Active; 'I' for Inactive)
REMARK    1  A    between atoms: C_1  and  O_2
REMARK    2  A    between atoms: O_2  and  C_3
REMARK    3  A    between atoms: C_10  and  C_22
REMARK    4  A    between atoms: C_13  and  O_14
REMARK    5  A    between atoms: C_15  and  O_20
REMARK    6  A    between atoms: C_16  and  O_18
REMARK    7  A    between atoms: O_18  and  C_19
REMARK    8  A    between atoms: O_20  and  C_21
REMARK                            x       y       z     vdW  Elec       q    Type
REMARK                         _______ _______ _______ _____ _____    ______ ____
ROOT
ATOM      1  C   UNL     1      85.715  48.467  43.693  0.00  0.00    +0.094 C 
ATOM      2  C   UNL     1      86.555  49.727  43.933  0.00  0.00    +0.038 C 
ATOM      3  C   UNL     1      88.088  49.629  43.973  0.00  0.00    +0.099 C 
ATOM      4  O   UNL     1      88.508  50.940  43.605  0.00  0.00    -0.464 OA
ATOM      5  C   UNL     1      87.478  51.614  42.969  0.00  0.00    +0.312 C 
ATOM      6  O   UNL     1      87.609  52.758  42.463  0.00  0.00    -0.250 OA
ATOM      7  C   UNL     1      86.283  50.748  42.837  0.00  0.00    +0.076 C 
ATOM      8  C   UNL     1      84.866  51.329  42.982  0.00  0.00    +0.023 C 
ATOM      9  C   UNL     1      83.858  50.184  43.131  0.00  0.00    -0.026 A 
ATOM     10  C   UNL     1      84.244  48.864  43.516  0.00  0.00    +0.031 A 
ATOM     11  C   UNL     1      83.248  47.880  43.681  0.00  0.00    +0.168 A 
ATOM     12  C   UNL     1      81.887  48.184  43.482  0.00  0.00    +0.204 A 
ATOM     13  C   UNL     1      81.510  49.496  43.106  0.00  0.00    +0.165 A 
ATOM     14  C   UNL     1      82.503  50.475  42.936  0.00  0.00    -0.012 A 
ENDROOT
BRANCH   8  15
ATOM     15  C   UNL     1      84.736  52.358  44.099  0.00  0.00    -0.035 A 
ATOM     16  C   UNL     1      84.671  51.978  45.471  0.00  0.00    -0.054 A 
ATOM     17  C   UNL     1      84.562  52.949  46.482  0.00  0.00    -0.016 A 
ATOM     18  C   UNL     1      84.517  54.284  46.099  0.00  0.00    +0.166 A 
ATOM     19  C   UNL     1      84.573  54.660  44.798  0.00  0.00    +0.167 A 
ATOM     20  C   UNL     1      84.680  53.733  43.766  0.00  0.00    -0.012 A 
ATOM     21  O   UNL     1      84.505  56.037  44.713  0.00  0.00    -0.453 OA
ATOM     22  C   UNL     1      84.402  56.558  46.044  0.00  0.00    +0.233 C 
ATOM     23  O   UNL     1      84.413  55.406  46.898  0.00  0.00    -0.453 OA
ENDBRANCH   8  15
BRANCH   1  25
ATOM     24  C   UNL     1      86.727  46.552  42.817  0.00  0.00    +0.037 C 
ATOM     25  O   UNL     1      86.151  47.804  42.514  0.00  0.00    -0.375 OA
ENDBRANCH   1  25
BRANCH  11  26
ATOM     26  O   UNL     1      83.628  46.588  44.052  0.00  0.00    -0.503 OA
ATOM     27  H   UNL     1      84.180  46.082  43.490  0.00  0.00    +0.000 HD
ENDBRANCH  11  26
BRANCH  13  28
ATOM     28  O   UNL     1      80.155  49.808  42.910  0.00  0.00    -0.491 OA
ATOM     29  C   UNL     1      79.220  50.089  43.947  0.00  0.00    +0.079 C 
ENDBRANCH  13  28
BRANCH  12  30
ATOM     30  O   UNL     1      80.963  47.138  43.674  0.00  0.00    -0.488 OA
ATOM     31  C   UNL     1      80.381  46.729  44.907  0.00  0.00    +0.079 C 
ENDBRANCH  12  30
TORSDOF 5
ENDMDL
MODEL 2
REMARK VINA RESULT:    -8.326      1.574      1.826
REMARK INTER + INTRA:         -11.318
REMARK INTER:                 -10.385
REMARK INTRA:                  -0.933
REMARK UNBOUND:                -0.801
REMARK  Name = 
REMARK  8 active torsions:
REMARK  status: ('A' for Active; 'I' for Inactive)
REMARK    1  A    between atoms: C_1  and  O_2
REMARK    2  A    between atoms: O_2  and  C_3
REMARK    3  A    between atoms: C_10  and  C_22
REMARK    4  A    between atoms: C_13  and  O_14
REMARK    5  A    between atoms: C_15  and  O_20
REMARK    6  A    between atoms: C_16  and  O_18
REMARK    7  A    between atoms: O_18  and  C_19
REMARK    8  A    between atoms: O_20  and  C_21
REMARK                            x       y       z     vdW  Elec       q    Type
REMARK                         _______ _______ _______ _____ _____    ______ ____
ROOT
ATOM      1  C   UNL     1      87.372  48.770  42.859  0.00  0.00    +0.094 C 
ATOM      2  C   UNL     1      88.124  50.107  42.833  0.00  0.00    +0.038 C 
ATOM      3  C   UNL     1      89.592  50.152  42.383  0.00  0.00    +0.099 C 
ATOM      4  O   UNL     1      89.750  51.488  41.915  0.00  0.00    -0.464 OA
ATOM      5  C   UNL     1      88.513  52.051  41.645  0.00  0.00    +0.312 C 
ATOM      6  O   UNL     1      88.369  53.193  41.136  0.00  0.00    -0.250 OA
ATOM      7  C   UNL     1      87.424  51.077  41.891  0.00  0.00    +0.076 C 
ATOM      8  C   UNL     1      86.078  51.528  42.484  0.00  0.00    +0.023 C 
ATOM      9  C   UNL     1      85.281  50.299  42.933  0.00  0.00    -0.026 A 
ATOM     10  C   UNL     1      85.891  49.027  43.162  0.00  0.00    +0.031 A 
ATOM     11  C   UNL     1      85.095  47.960  43.624  0.00  0.00    +0.168 A 
ATOM     12  C   UNL     1      83.718  48.134  43.871  0.00  0.00    +0.204 A 
ATOM     13  C   UNL     1      83.122  49.397  43.647  0.00  0.00    +0.165 A 
ATOM     14  C   UNL     1      83.914  50.459  43.181  0.00  0.00    -0.012 A 
ENDROOT
BRANCH   8  15
ATOM     15  C   UNL     1      86.213  52.563  43.595  0.00  0.00    -0.035 A 
ATOM     16  C   UNL     1      86.749  52.232  44.873  0.00  0.00    -0.054 A 
ATOM     17  C   UNL     1      86.873  53.209  45.877  0.00  0.00    -0.016 A 
ATOM     18  C   UNL     1      86.453  54.501  45.581  0.00  0.00    +0.166 A 
ATOM     19  C   UNL     1      85.937  54.828  44.372  0.00  0.00    +0.167 A 
ATOM     20  C   UNL     1      85.797  53.894  43.352  0.00  0.00    -0.012 A 
ATOM     21  O   UNL     1      85.605  56.169  44.362  0.00  0.00    -0.453 OA
ATOM     22  C   UNL     1      85.935  56.717  45.644  0.00  0.00    +0.233 C 
ATOM     23  O   UNL     1      86.473  55.619  46.393  0.00  0.00    -0.453 OA
ENDBRANCH   8  15
BRANCH   1  25
ATOM     24  C   UNL     1      88.281  46.974  41.675  0.00  0.00    +0.037 C 
ATOM     25  O   UNL     1      87.472  48.127  41.595  0.00  0.00    -0.375 OA
ENDBRANCH   1  25
BRANCH  11  26
ATOM     26  O   UNL     1      85.692  46.715  43.843  0.00  0.00    -0.503 OA
ATOM     27  H   UNL     1      85.912  46.167  43.116  0.00  0.00    +0.000 HD
ENDBRANCH  11  26
BRANCH  13  28
ATOM     28  O   UNL     1      81.751  49.580  43.895  0.00  0.00    -0.491 OA
ATOM     29  C   UNL     1      80.783  49.943  42.915  0.00  0.00    +0.079 C 
ENDBRANCH  13  28
BRANCH  12  30
ATOM     30  O   UNL     1      83.006  47.010  44.335  0.00  0.00    -0.488 OA
ATOM     31  C   UNL     1      82.078  46.223  43.597  0.00  0.00    +0.079 C 
ENDBRANCH  12  30
TORSDOF 5
ENDMDL
MODEL 3
REMARK VINA RESULT:    -8.258      3.520      7.024
REMARK INTER + INTRA:         -11.231
REMARK INTER:                 -10.565
REMARK INTRA:                  -0.666
REMARK UNBOUND:                -0.801
REMARK  Name = 
REMARK  8 active torsions:
REMARK  status: ('A' for Active; 'I' for Inactive)
REMARK    1  A    between atoms: C_1  and  O_2
REMARK    2  A    between atoms: O_2  and  C_3
REMARK    3  A    between atoms: C_10  and  C_22
REMARK    4  A    between atoms: C_13  and  O_14
REMARK    5  A    between atoms: C_15  and  O_20
REMARK    6  A    between atoms: C_16  and  O_18
REMARK    7  A    between atoms: O_18  and  C_19
REMARK    8  A    between atoms: O_20  and  C_21
REMARK                            x       y       z     vdW  Elec       q    Type
REMARK                         _______ _______ _______ _____ _____    ______ ____
ROOT
ATOM      1  C   UNL     1      86.068  52.905  42.699  0.00  0.00    +0.094 C 
ATOM      2  C   UNL     1      86.774  52.132  41.578  0.00  0.00    +0.038 C 
ATOM      3  C   UNL     1      86.684  52.633  40.128  0.00  0.00    +0.099 C 
ATOM      4  O   UNL     1      87.860  52.101  39.525  0.00  0.00    -0.464 OA
ATOM      5  C   UNL     1      88.781  51.748  40.499  0.00  0.00    +0.312 C 
ATOM      6  O   UNL     1      89.940  51.335  40.237  0.00  0.00    -0.250 OA
ATOM      7  C   UNL     1      88.270  52.072  41.852  0.00  0.00    +0.076 C 
ATOM      8  C   UNL     1      88.563  51.152  43.049  0.00  0.00    +0.023 C 
ATOM      9  C   UNL     1      87.657  51.537  44.223  0.00  0.00    -0.026 A 
ATOM     10  C   UNL     1      86.465  52.307  44.055  0.00  0.00    +0.031 A 
ATOM     11  C   UNL     1      85.660  52.575  45.180  0.00  0.00    +0.168 A 
ATOM     12  C   UNL     1      86.008  52.089  46.456  0.00  0.00    +0.204 A 
ATOM     13  C   UNL     1      87.187  51.323  46.614  0.00  0.00    +0.165 A 
ATOM     14  C   UNL     1      87.993  51.060  45.494  0.00  0.00    -0.012 A 
ENDROOT
BRANCH   8  15
ATOM     15  C   UNL     1      88.472  49.666  42.717  0.00  0.00    -0.035 A 
ATOM     16  C   UNL     1      89.613  48.912  42.318  0.00  0.00    -0.054 A 
ATOM     17  C   UNL     1      89.503  47.540  42.028  0.00  0.00    -0.016 A 
ATOM     18  C   UNL     1      88.250  46.950  42.142  0.00  0.00    +0.166 A 
ATOM     19  C   UNL     1      87.156  47.657  42.515  0.00  0.00    +0.167 A 
ATOM     20  C   UNL     1      87.219  49.015  42.810  0.00  0.00    -0.012 A 
ATOM     21  O   UNL     1      86.055  46.822  42.540  0.00  0.00    -0.453 OA
ATOM     22  C   UNL     1      86.486  45.509  42.159  0.00  0.00    +0.233 C 
ATOM     23  O   UNL     1      87.894  45.635  41.913  0.00  0.00    -0.453 OA
ENDBRANCH   8  15
BRANCH   1  25
ATOM     24  C   UNL     1      85.350  55.113  42.449  0.00  0.00    +0.037 C 
ATOM     25  O   UNL     1      86.460  54.271  42.674  0.00  0.00    -0.375 OA
ENDBRANCH   1  25
BRANCH  11  26
ATOM     26  O   UNL     1      84.497  53.333  45.014  0.00  0.00    -0.503 OA
ATOM     27  H   UNL     1      84.443  54.195  45.377  0.00  0.00    +0.000 HD
ENDBRANCH  11  26
BRANCH  13  28
ATOM     28  O   UNL     1      87.539  50.831  47.882  0.00  0.00    -0.491 OA
ATOM     29  C   UNL     1      88.589  49.902  48.138  0.00  0.00    +0.079 C 
ENDBRANCH  13  28
BRANCH  12  30
ATOM     30  O   UNL     1      85.139  52.405  47.519  0.00  0.00    -0.488 OA
ATOM     31  C   UNL     1      85.292  53.461  48.461  0.00  0.00    +0.079 C 
ENDBRANCH  12  30
TORSDOF 5
ENDMDL
MODEL 4
REMARK VINA RESULT:    -8.197      3.437      6.104
REMARK INTER + INTRA:         -11.154
REMARK INTER:                 -10.303
REMARK INTRA:                  -0.851
REMARK UNBOUND:                -0.801
REMARK  Name = 
REMARK  8 active torsions:
REMARK  status: ('A' for Active; 'I' for Inactive)
REMARK    1  A    between atoms: C_1  and  O_2
REMARK    2  A    between atoms: O_2  and  C_3
REMARK    3  A    between atoms: C_10  and  C_22
REMARK    4  A    between atoms: C_13  and  O_14
REMARK    5  A    between atoms: C_15  and  O_20
REMARK    6  A    between atoms: C_16  and  O_18
REMARK    7  A    between atoms: O_18  and  C_19
REMARK    8  A    between atoms: O_20  and  C_21
REMARK                            x       y       z     vdW  Elec       q    Type
REMARK                         _______ _______ _______ _____ _____    ______ ____
ROOT
ATOM      1  C   UNL     1      86.929  51.260  45.631  0.00  0.00    +0.094 C 
ATOM      2  C   UNL     1      85.876  52.350  45.868  0.00  0.00    +0.038 C 
ATOM      3  C   UNL     1      85.229  52.501  47.253  0.00  0.00    +0.099 C 
ATOM      4  O   UNL     1      84.830  53.868  47.280  0.00  0.00    -0.464 OA
ATOM      5  C   UNL     1      85.520  54.588  46.319  0.00  0.00    +0.312 C 
ATOM      6  O   UNL     1      85.423  55.836  46.187  0.00  0.00    -0.250 OA
ATOM      7  C   UNL     1      86.479  53.721  45.596  0.00  0.00    +0.076 C 
ATOM      8  C   UNL     1      86.737  53.908  44.091  0.00  0.00    +0.023 C 
ATOM      9  C   UNL     1      87.498  52.694  43.549  0.00  0.00    -0.026 A 
ATOM     10  C   UNL     1      87.542  51.443  44.237  0.00  0.00    +0.031 A 
ATOM     11  C   UNL     1      88.222  50.360  43.644  0.00  0.00    +0.168 A 
ATOM     12  C   UNL     1      88.845  50.492  42.387  0.00  0.00    +0.204 A 
ATOM     13  C   UNL     1      88.792  51.733  41.708  0.00  0.00    +0.165 A 
ATOM     14  C   UNL     1      88.119  52.814  42.301  0.00  0.00    -0.012 A 
ENDROOT
BRANCH   8  15
ATOM     15  C   UNL     1      85.476  54.202  43.285  0.00  0.00    -0.035 A 
ATOM     16  C   UNL     1      85.217  55.491  42.734  0.00  0.00    -0.054 A 
ATOM     17  C   UNL     1      84.052  55.732  41.986  0.00  0.00    -0.016 A 
ATOM     18  C   UNL     1      83.164  54.677  41.806  0.00  0.00    +0.166 A 
ATOM     19  C   UNL     1      83.395  53.449  42.329  0.00  0.00    +0.167 A 
ATOM     20  C   UNL     1      84.534  53.167  43.076  0.00  0.00    -0.012 A 
ATOM     21  O   UNL     1      82.353  52.604  41.998  0.00  0.00    -0.453 OA
ATOM     22  C   UNL     1      81.410  53.349  41.217  0.00  0.00    +0.233 C 
ATOM     23  O   UNL     1      81.966  54.668  41.118  0.00  0.00    -0.453 OA
ENDBRANCH   8  15
BRANCH   1  25
ATOM     24  C   UNL     1      87.901  50.292  47.521  0.00  0.00    +0.037 C 
ATOM     25  O   UNL     1      87.964  51.359  46.599  0.00  0.00    -0.375 OA
ENDBRANCH   1  25
BRANCH  11  26
ATOM     26  O   UNL     1      88.269  49.138  44.322  0.00  0.00    -0.503 OA
ATOM     27  H   UNL     1      87.475  48.717  44.585  0.00  0.00    +0.000 HD
ENDBRANCH  11  26
BRANCH  13  28
ATOM     28  O   UNL     1      89.406  51.872  40.452  0.00  0.00    -0.491 OA
ATOM     29  C   UNL     1      90.056  53.050  39.984  0.00  0.00    +0.079 C 
ENDBRANCH  13  28
BRANCH  12  30
ATOM     30  O   UNL     1      89.496  49.354  41.873  0.00  0.00    -0.488 OA
ATOM     31  C   UNL     1      90.872  49.019  42.019  0.00  0.00    +0.079 C 
ENDBRANCH  12  30
TORSDOF 5
ENDMDL
MODEL 5
REMARK VINA RESULT:    -8.122      2.216      3.662
REMARK INTER + INTRA:         -11.059
REMARK INTER:                 -10.606
REMARK INTRA:                  -0.453
REMARK UNBOUND:                -0.801
REMARK  Name = 
REMARK  8 active torsions:
REMARK  status: ('A' for Active; 'I' for Inactive)
REMARK    1  A    between atoms: C_1  and  O_2
REMARK    2  A    between atoms: O_2  and  C_3
REMARK    3  A    between atoms: C_10  and  C_22
REMARK    4  A    between atoms: C_13  and  O_14
REMARK    5  A    between atoms: C_15  and  O_20
REMARK    6  A    between atoms: C_16  and  O_18
REMARK    7  A    between atoms: O_18  and  C_19
REMARK    8  A    between atoms: O_20  and  C_21
REMARK                            x       y       z     vdW  Elec       q    Type
REMARK                         _______ _______ _______ _____ _____    ______ ____
ROOT
ATOM      1  C   UNL     1      87.977  50.519  42.017  0.00  0.00    +0.094 C 
ATOM      2  C   UNL     1      87.814  51.900  42.664  0.00  0.00    +0.038 C 
ATOM      3  C   UNL     1      88.642  53.088  42.150  0.00  0.00    +0.099 C 
ATOM      4  O   UNL     1      87.849  54.217  42.505  0.00  0.00    -0.464 OA
ATOM      5  C   UNL     1      86.541  53.827  42.748  0.00  0.00    +0.312 C 
ATOM      6  O   UNL     1      85.612  54.639  42.994  0.00  0.00    -0.250 OA
ATOM      7  C   UNL     1      86.374  52.372  42.525  0.00  0.00    +0.076 C 
ATOM      8  C   UNL     1      85.444  51.536  43.421  0.00  0.00    +0.023 C 
ATOM      9  C   UNL     1      85.713  50.046  43.187  0.00  0.00    -0.026 A 
ATOM     10  C   UNL     1      86.916  49.567  42.584  0.00  0.00    +0.031 A 
ATOM     11  C   UNL     1      87.108  48.176  42.451  0.00  0.00    +0.168 A 
ATOM     12  C   UNL     1      86.140  47.262  42.911  0.00  0.00    +0.204 A 
ATOM     13  C   UNL     1      84.953  47.744  43.513  0.00  0.00    +0.165 A 
ATOM     14  C   UNL     1      84.759  49.129  43.640  0.00  0.00    -0.012 A 
ENDROOT
BRANCH   8  15
ATOM     15  C   UNL     1      85.519  51.908  44.898  0.00  0.00    -0.035 A 
ATOM     16  C   UNL     1      86.604  51.497  45.725  0.00  0.00    -0.054 A 
ATOM     17  C   UNL     1      86.653  51.864  47.082  0.00  0.00    -0.016 A 
ATOM     18  C   UNL     1      85.611  52.633  47.586  0.00  0.00    +0.166 A 
ATOM     19  C   UNL     1      84.571  53.026  46.812  0.00  0.00    +0.167 A 
ATOM     20  C   UNL     1      84.482  52.686  45.466  0.00  0.00    -0.012 A 
ATOM     21  O   UNL     1      83.689  53.771  47.570  0.00  0.00    -0.453 OA
ATOM     22  C   UNL     1      84.209  53.851  48.904  0.00  0.00    +0.233 C 
ATOM     23  O   UNL     1      85.437  53.112  48.870  0.00  0.00    -0.453 OA
ENDBRANCH   8  15
BRANCH   1  25
ATOM     24  C   UNL     1      88.997  50.989  39.970  0.00  0.00    +0.037 C 
ATOM     25  O   UNL     1      87.798  50.612  40.611  0.00  0.00    -0.375 OA
ENDBRANCH   1  25
BRANCH  11  26
ATOM     26  O   UNL     1      88.283  47.709  41.856  0.00  0.00    -0.503 OA
ATOM     27  H   UNL     1      88.309  46.853  41.477  0.00  0.00    +0.000 HD
ENDBRANCH  11  26
BRANCH  13  28
ATOM     28  O   UNL     1      83.985  46.838  43.978  0.00  0.00    -0.491 OA
ATOM     29  C   UNL     1      82.652  46.740  43.487  0.00  0.00    +0.079 C 
ENDBRANCH  13  28
BRANCH  12  30
ATOM     30  O   UNL     1      86.422  45.892  42.739  0.00  0.00    -0.488 OA
ATOM     31  C   UNL     1      86.669  44.936  43.764  0.00  0.00    +0.079 C 
ENDBRANCH  12  30
TORSDOF 5
ENDMDL
MODEL 6
REMARK VINA RESULT:    -8.120      2.566      6.007
REMARK INTER + INTRA:         -11.057
REMARK INTER:                 -11.141
REMARK INTRA:                   0.084
REMARK UNBOUND:                -0.801
REMARK  Name = 
REMARK  8 active torsions:
REMARK  status: ('A' for Active; 'I' for Inactive)
REMARK    1  A    between atoms: C_1  and  O_2
REMARK    2  A    between atoms: O_2  and  C_3
REMARK    3  A    between atoms: C_10  and  C_22
REMARK    4  A    between atoms: C_13  and  O_14
REMARK    5  A    between atoms: C_15  and  O_20
REMARK    6  A    between atoms: C_16  and  O_18
REMARK    7  A    between atoms: O_18  and  C_19
REMARK    8  A    between atoms: O_20  and  C_21
REMARK                            x       y       z     vdW  Elec       q    Type
REMARK                         _______ _______ _______ _____ _____    ______ ____
ROOT
ATOM      1  C   UNL     1      87.885  51.790  41.344  0.00  0.00    +0.094 C 
ATOM      2  C   UNL     1      87.879  50.661  42.383  0.00  0.00    +0.038 C 
ATOM      3  C   UNL     1      89.201  49.996  42.798  0.00  0.00    +0.099 C 
ATOM      4  O   UNL     1      88.920  49.500  44.104  0.00  0.00    -0.464 OA
ATOM      5  C   UNL     1      87.812  50.144  44.634  0.00  0.00    +0.312 C 
ATOM      6  O   UNL     1      87.402  49.959  45.809  0.00  0.00    -0.250 OA
ATOM      7  C   UNL     1      87.296  51.167  43.695  0.00  0.00    +0.076 C 
ATOM      8  C   UNL     1      85.786  51.419  43.552  0.00  0.00    +0.023 C 
ATOM      9  C   UNL     1      85.526  52.268  42.303  0.00  0.00    -0.026 A 
ATOM     10  C   UNL     1      86.481  52.398  41.248  0.00  0.00    +0.031 A 
ATOM     11  C   UNL     1      86.143  53.157  40.110  0.00  0.00    +0.168 A 
ATOM     12  C   UNL     1      84.882  53.776  39.997  0.00  0.00    +0.204 A 
ATOM     13  C   UNL     1      83.939  53.639  41.043  0.00  0.00    +0.165 A 
ATOM     14  C   UNL     1      84.277  52.888  42.180  0.00  0.00    -0.012 A 
ENDROOT
BRANCH   8  15
ATOM     15  C   UNL     1      84.947  50.146  43.565  0.00  0.00    -0.035 A 
ATOM     16  C   UNL     1      85.502  48.874  43.242  0.00  0.00    -0.054 A 
ATOM     17  C   UNL     1      84.708  47.714  43.273  0.00  0.00    -0.016 A 
ATOM     18  C   UNL     1      83.371  47.851  43.625  0.00  0.00    +0.166 A 
ATOM     19  C   UNL     1      82.829  49.054  43.930  0.00  0.00    +0.167 A 
ATOM     20  C   UNL     1      83.577  50.227  43.911  0.00  0.00    -0.012 A 
ATOM     21  O   UNL     1      81.492  48.893  44.236  0.00  0.00    -0.453 OA
ATOM     22  C   UNL     1      81.175  47.500  44.117  0.00  0.00    +0.233 C 
ATOM     23  O   UNL     1      82.402  46.870  43.725  0.00  0.00    -0.453 OA
ENDBRANCH   8  15
BRANCH   1  25
ATOM     24  C   UNL     1      89.902  52.865  40.860  0.00  0.00    +0.037 C 
ATOM     25  O   UNL     1      88.795  52.810  41.734  0.00  0.00    -0.375 OA
ENDBRANCH   1  25
BRANCH  11  26
ATOM     26  O   UNL     1      87.080  53.287  39.081  0.00  0.00    -0.503 OA
ATOM     27  H   UNL     1      87.931  52.908  39.171  0.00  0.00    +0.000 HD
ENDBRANCH  11  26
BRANCH  13  28
ATOM     28  O   UNL     1      82.678  54.250  40.936  0.00  0.00    -0.491 OA
ATOM     29  C   UNL     1      81.439  53.636  41.278  0.00  0.00    +0.079 C 
ENDBRANCH  13  28
BRANCH  12  30
ATOM     30  O   UNL     1      84.634  54.510  38.820  0.00  0.00    -0.488 OA
ATOM     31  C   UNL     1      84.660  55.926  38.676  0.00  0.00    +0.079 C 
ENDBRANCH  12  30
TORSDOF 5
ENDMDL
MODEL 7
REMARK VINA RESULT:    -8.039      3.076      6.599
REMARK INTER + INTRA:         -10.955
REMARK INTER:                 -10.467
REMARK INTRA:                  -0.488
REMARK UNBOUND:                -0.801
REMARK  Name = 
REMARK  8 active torsions:
REMARK  status: ('A' for Active; 'I' for Inactive)
REMARK    1  A    between atoms: C_1  and  O_2
REMARK    2  A    between atoms: O_2  and  C_3
REMARK    3  A    between atoms: C_10  and  C_22
REMARK    4  A    between atoms: C_13  and  O_14
REMARK    5  A    between atoms: C_15  and  O_20
REMARK    6  A    between atoms: C_16  and  O_18
REMARK    7  A    between atoms: O_18  and  C_19
REMARK    8  A    between atoms: O_20  and  C_21
REMARK                            x       y       z     vdW  Elec       q    Type
REMARK                         _______ _______ _______ _____ _____    ______ ____
ROOT
ATOM      1  C   UNL     1      88.736  51.506  40.848  0.00  0.00    +0.094 C 
ATOM      2  C   UNL     1      89.280  50.208  41.456  0.00  0.00    +0.038 C 
ATOM      3  C   UNL     1      90.762  49.841  41.277  0.00  0.00    +0.099 C 
ATOM      4  O   UNL     1      91.028  49.000  42.396  0.00  0.00    -0.464 OA
ATOM      5  C   UNL     1      90.064  49.186  43.375  0.00  0.00    +0.312 C 
ATOM      6  O   UNL     1      90.110  48.632  44.503  0.00  0.00    -0.250 OA
ATOM      7  C   UNL     1      89.089  50.223  42.966  0.00  0.00    +0.076 C 
ATOM      8  C   UNL     1      87.598  50.091  43.321  0.00  0.00    +0.023 C 
ATOM      9  C   UNL     1      86.787  51.105  42.508  0.00  0.00    -0.026 A 
ATOM     10  C   UNL     1      87.295  51.724  41.324  0.00  0.00    +0.031 A 
ATOM     11  C   UNL     1      86.465  52.608  40.605  0.00  0.00    +0.168 A 
ATOM     12  C   UNL     1      85.149  52.878  41.031  0.00  0.00    +0.204 A 
ATOM     13  C   UNL     1      84.651  52.257  42.201  0.00  0.00    +0.165 A 
ATOM     14  C   UNL     1      85.479  51.381  42.921  0.00  0.00    -0.012 A 
ENDROOT
BRANCH   8  15
ATOM     15  C   UNL     1      87.056  48.673  43.175  0.00  0.00    -0.035 A 
ATOM     16  C   UNL     1      87.429  47.831  42.087  0.00  0.00    -0.054 A 
ATOM     17  C   UNL     1      86.922  46.524  41.983  0.00  0.00    -0.016 A 
ATOM     18  C   UNL     1      86.049  46.084  42.971  0.00  0.00    +0.166 A 
ATOM     19  C   UNL     1      85.682  46.875  44.008  0.00  0.00    +0.167 A 
ATOM     20  C   UNL     1      86.158  48.175  44.150  0.00  0.00    -0.012 A 
ATOM     21  O   UNL     1      84.810  46.185  44.827  0.00  0.00    -0.453 OA
ATOM     22  C   UNL     1      84.618  44.879  44.270  0.00  0.00    +0.233 C 
ATOM     23  O   UNL     1      85.427  44.856  43.085  0.00  0.00    -0.453 OA
ENDBRANCH   8  15
BRANCH   1  25
ATOM     24  C   UNL     1      90.235  53.169  40.181  0.00  0.00    +0.037 C 
ATOM     25  O   UNL     1      89.523  52.613  41.266  0.00  0.00    -0.375 OA
ENDBRANCH   1  25
BRANCH  11  26
ATOM     26  O   UNL     1      86.964  53.216  39.450  0.00  0.00    -0.503 OA
ATOM     27  H   UNL     1      87.160  52.699  38.695  0.00  0.00    +0.000 HD
ENDBRANCH  11  26
BRANCH  13  28
ATOM     28  O   UNL     1      83.339  52.518  42.630  0.00  0.00    -0.491 OA
ATOM     29  C   UNL     1      82.175  51.840  42.167  0.00  0.00    +0.079 C 
ENDBRANCH  13  28
BRANCH  12  30
ATOM     30  O   UNL     1      84.394  53.771  40.245  0.00  0.00    -0.488 OA
ATOM     31  C   UNL     1      84.147  55.147  40.516  0.00  0.00    +0.079 C 
ENDBRANCH  12  30
TORSDOF 5
ENDMDL
MODEL 8
REMARK VINA RESULT:    -7.931      3.449      7.188
REMARK INTER + INTRA:         -10.818
REMARK INTER:                 -11.231
REMARK INTRA:                   0.412
REMARK UNBOUND:                -0.801
REMARK  Name = 
REMARK  8 active torsions:
REMARK  status: ('A' for Active; 'I' for Inactive)
REMARK    1  A    between atoms: C_1  and  O_2
REMARK    2  A    between atoms: O_2  and  C_3
REMARK    3  A    between atoms: C_10  and  C_22
REMARK    4  A    between atoms: C_13  and  O_14
REMARK    5  A    between atoms: C_15  and  O_20
REMARK    6  A    between atoms: C_16  and  O_18
REMARK    7  A    between atoms: O_18  and  C_19
REMARK    8  A    between atoms: O_20  and  C_21
REMARK                            x       y       z     vdW  Elec       q    Type
REMARK                         _______ _______ _______ _____ _____    ______ ____
ROOT
ATOM      1  C   UNL     1      86.468  53.214  46.480  0.00  0.00    +0.094 C 
ATOM      2  C   UNL     1      86.935  51.757  46.370  0.00  0.00    +0.038 C 
ATOM      3  C   UNL     1      87.128  50.918  47.642  0.00  0.00    +0.099 C 
ATOM      4  O   UNL     1      86.955  49.581  47.180  0.00  0.00    -0.464 OA
ATOM      5  C   UNL     1      86.290  49.576  45.964  0.00  0.00    +0.312 C 
ATOM      6  O   UNL     1      85.930  48.522  45.378  0.00  0.00    -0.250 OA
ATOM      7  C   UNL     1      85.935  50.953  45.550  0.00  0.00    +0.076 C 
ATOM      8  C   UNL     1      85.989  51.373  44.072  0.00  0.00    +0.023 C 
ATOM      9  C   UNL     1      85.902  52.899  43.971  0.00  0.00    -0.026 A 
ATOM     10  C   UNL     1      86.178  53.761  45.077  0.00  0.00    +0.031 A 
ATOM     11  C   UNL     1      86.125  55.157  44.886  0.00  0.00    +0.168 A 
ATOM     12  C   UNL     1      85.815  55.707  43.627  0.00  0.00    +0.204 A 
ATOM     13  C   UNL     1      85.547  54.848  42.534  0.00  0.00    +0.165 A 
ATOM     14  C   UNL     1      85.594  53.458  42.725  0.00  0.00    -0.012 A 
ENDROOT
BRANCH   8  15
ATOM     15  C   UNL     1      87.192  50.816  43.319  0.00  0.00    -0.035 A 
ATOM     16  C   UNL     1      88.243  51.656  42.849  0.00  0.00    -0.054 A 
ATOM     17  C   UNL     1      89.347  51.114  42.167  0.00  0.00    -0.016 A 
ATOM     18  C   UNL     1      89.375  49.739  41.966  0.00  0.00    +0.166 A 
ATOM     19  C   UNL     1      88.381  48.929  42.403  0.00  0.00    +0.167 A 
ATOM     20  C   UNL     1      87.271  49.423  43.080  0.00  0.00    -0.012 A 
ATOM     21  O   UNL     1      88.669  47.621  42.064  0.00  0.00    -0.453 OA
ATOM     22  C   UNL     1      89.925  47.610  41.372  0.00  0.00    +0.233 C 
ATOM     23  O   UNL     1      90.341  48.982  41.331  0.00  0.00    -0.453 OA
ENDBRANCH   8  15
BRANCH   1  25
ATOM     24  C   UNL     1      85.504  53.960  48.472  0.00  0.00    +0.037 C 
ATOM     25  O   UNL     1      85.276  53.291  47.251  0.00  0.00    -0.375 OA
ENDBRANCH   1  25
BRANCH  11  26
ATOM     26  O   UNL     1      86.391  55.998  45.971  0.00  0.00    -0.503 OA
ATOM     27  H   UNL     1      85.979  56.837  46.025  0.00  0.00    +0.000 HD
ENDBRANCH  11  26
BRANCH  13  28
ATOM     28  O   UNL     1      85.242  55.389  41.275  0.00  0.00    -0.491 OA
ATOM     29  C   UNL     1      84.106  55.043  40.488  0.00  0.00    +0.079 C 
ENDBRANCH  13  28
BRANCH  12  30
ATOM     30  O   UNL     1      85.790  57.113  43.533  0.00  0.00    -0.488 OA
ATOM     31  C   UNL     1      84.911  57.999  44.218  0.00  0.00    +0.079 C 
ENDBRANCH  12  30
TORSDOF 5
ENDMDL
MODEL 9
REMARK VINA RESULT:    -7.818      3.091      5.246
REMARK INTER + INTRA:         -10.675
REMARK INTER:                  -9.874
REMARK INTRA:                  -0.801
REMARK UNBOUND:                -0.801
REMARK  Name = 
REMARK  8 active torsions:
REMARK  status: ('A' for Active; 'I' for Inactive)
REMARK    1  A    between atoms: C_1  and  O_2
REMARK    2  A    between atoms: O_2  and  C_3
REMARK    3  A    between atoms: C_10  and  C_22
REMARK    4  A    between atoms: C_13  and  O_14
REMARK    5  A    between atoms: C_15  and  O_20
REMARK    6  A    between atoms: C_16  and  O_18
REMARK    7  A    between atoms: O_18  and  C_19
REMARK    8  A    between atoms: O_20  and  C_21
REMARK                            x       y       z     vdW  Elec       q    Type
REMARK                         _______ _______ _______ _____ _____    ______ ____
ROOT
ATOM      1  C   UNL     1      85.837  51.540  45.948  0.00  0.00    +0.094 C 
ATOM      2  C   UNL     1      85.401  52.969  45.601  0.00  0.00    +0.038 C 
ATOM      3  C   UNL     1      85.081  53.966  46.726  0.00  0.00    +0.099 C 
ATOM      4  O   UNL     1      85.318  55.232  46.117  0.00  0.00    -0.464 OA
ATOM      5  C   UNL     1      86.111  55.081  44.990  0.00  0.00    +0.312 C 
ATOM      6  O   UNL     1      86.544  56.051  44.315  0.00  0.00    -0.250 OA
ATOM      7  C   UNL     1      86.492  53.663  44.798  0.00  0.00    +0.076 C 
ATOM      8  C   UNL     1      86.593  53.055  43.388  0.00  0.00    +0.023 C 
ATOM      9  C   UNL     1      86.673  51.529  43.495  0.00  0.00    -0.026 A 
ATOM     10  C   UNL     1      86.269  50.817  44.666  0.00  0.00    +0.031 A 
ATOM     11  C   UNL     1      86.327  49.409  44.665  0.00  0.00    +0.168 A 
ATOM     12  C   UNL     1      86.764  48.700  43.528  0.00  0.00    +0.204 A 
ATOM     13  C   UNL     1      87.158  49.411  42.369  0.00  0.00    +0.165 A 
ATOM     14  C   UNL     1      87.106  50.815  42.373  0.00  0.00    -0.012 A 
ENDROOT
BRANCH   8  15
ATOM     15  C   UNL     1      85.484  53.507  42.444  0.00  0.00    -0.035 A 
ATOM     16  C   UNL     1      84.108  53.282  42.735  0.00  0.00    -0.054 A 
ATOM     17  C   UNL     1      83.105  53.719  41.852  0.00  0.00    -0.016 A 
ATOM     18  C   UNL     1      83.501  54.373  40.691  0.00  0.00    +0.166 A 
ATOM     19  C   UNL     1      84.806  54.589  40.399  0.00  0.00    +0.167 A 
ATOM     20  C   UNL     1      85.830  54.173  41.244  0.00  0.00    -0.012 A 
ATOM     21  O   UNL     1      84.905  55.251  39.191  0.00  0.00    -0.453 OA
ATOM     22  C   UNL     1      83.577  55.465  38.694  0.00  0.00    +0.233 C 
ATOM     23  O   UNL     1      82.712  54.889  39.681  0.00  0.00    -0.453 OA
ENDBRANCH   8  15
BRANCH   1  25
ATOM     24  C   UNL     1      86.568  51.074  48.117  0.00  0.00    +0.037 C 
ATOM     25  O   UNL     1      86.937  51.567  46.847  0.00  0.00    -0.375 OA
ENDBRANCH   1  25
BRANCH  11  26
ATOM     26  O   UNL     1      85.936  48.714  45.813  0.00  0.00    -0.503 OA
ATOM     27  H   UNL     1      85.921  47.778  45.812  0.00  0.00    +0.000 HD
ENDBRANCH  11  26
BRANCH  13  28
ATOM     28  O   UNL     1      87.591  48.713  41.230  0.00  0.00    -0.491 OA
ATOM     29  C   UNL     1      88.837  48.033  41.111  0.00  0.00    +0.079 C 
ENDBRANCH  13  28
BRANCH  12  30
ATOM     30  O   UNL     1      86.783  47.294  43.619  0.00  0.00    -0.488 OA
ATOM     31  C   UNL     1      85.814  46.392  43.096  0.00  0.00    +0.079 C 
ENDBRANCH  12  30
TORSDOF 5
ENDMDL
