MODEL 1
REMARK VINA RESULT:    -6.641      0.000      0.000
REMARK INTER + INTRA:          -8.207
REMARK INTER:                  -7.796
REMARK INTRA:                  -0.411
REMARK UNBOUND:                -0.401
REMARK  Name = 
REMARK  7 active torsions:
REMARK  status: ('A' for Active; 'I' for Inactive)
REMARK    1  A    between atoms: C_2  and  C_3
REMARK    2  A    between atoms: C_3  and  C_4
REMARK    3  A    between atoms: C_7  and  C_13
REMARK    4  A    between atoms: C_9  and  C_10
REMARK    5  A    between atoms: C_10  and  C_12
REMARK    6  A    between atoms: C_13  and  C_14
REMARK    7  A    between atoms: C_13  and  C_15
REMARK                            x       y       z     vdW  Elec       q    Type
REMARK                         _______ _______ _______ _____ _____    ______ ____
ROOT
ATOM      1  C   UNL     1      85.572  53.827  47.301  0.00  0.00    +0.014 C 
ATOM      2  C   UNL     1      84.205  53.317  46.790  0.00  0.00    -0.052 C 
ATOM      3  C   UNL     1      85.372  55.260  47.763  0.00  0.00    -0.073 C 
ATOM      4  C   UNL     1      85.494  56.286  46.913  0.00  0.00    -0.062 C 
ATOM      5  C   UNL     1      85.929  56.074  45.509  0.00  0.00    -0.048 C 
ATOM      6  C   UNL     1      86.437  54.884  45.148  0.00  0.00    -0.072 C 
ATOM      7  C   UNL     1      86.668  53.795  46.176  0.00  0.00    +0.010 C 
ENDROOT
BRANCH   7   8
ATOM      8  C   UNL     1      86.849  52.419  45.538  0.00  0.00    -0.072 C 
ATOM      9  C   UNL     1      87.559  51.447  46.138  0.00  0.00    -0.099 C 
ATOM     10  C   UNL     1      86.235  52.132  44.193  0.00  0.00    -0.043 C 
ENDBRANCH   7   8
BRANCH   5  11
ATOM     11  C   UNL     1      85.813  57.197  44.494  0.00  0.00    -0.022 C 
ATOM     12  C   UNL     1      85.317  58.485  45.161  0.00  0.00    -0.059 C 
ATOM     13  C   UNL     1      84.903  56.792  43.329  0.00  0.00    -0.059 C 
ENDBRANCH   5  11
BRANCH   1  15
ATOM     14  C   UNL     1      85.201  52.059  49.052  0.00  0.00    -0.102 C 
ATOM     15  C   UNL     1      86.003  52.969  48.484  0.00  0.00    -0.081 C 
ENDBRANCH   1  15
TORSDOF 3
ENDMDL
MODEL 2
REMARK VINA RESULT:    -6.606      4.950      6.654
REMARK INTER + INTRA:          -8.165
REMARK INTER:                  -7.849
REMARK INTRA:                  -0.316
REMARK UNBOUND:                -0.401
REMARK  Name = 
REMARK  7 active torsions:
REMARK  status: ('A' for Active; 'I' for Inactive)
REMARK    1  A    between atoms: C_2  and  C_3
REMARK    2  A    between atoms: C_3  and  C_4
REMARK    3  A    between atoms: C_7  and  C_13
REMARK    4  A    between atoms: C_9  and  C_10
REMARK    5  A    between atoms: C_10  and  C_12
REMARK    6  A    between atoms: C_13  and  C_14
REMARK    7  A    between atoms: C_13  and  C_15
REMARK                            x       y       z     vdW  Elec       q    Type
REMARK                         _______ _______ _______ _____ _____    ______ ____
ROOT
ATOM      1  C   UNL     1      88.531  50.083  43.247  0.00  0.00    +0.014 C 
ATOM      2  C   UNL     1      87.478  49.217  42.519  0.00  0.00    -0.052 C 
ATOM      3  C   UNL     1      88.109  51.532  43.087  0.00  0.00    -0.073 C 
ATOM      4  C   UNL     1      88.493  52.253  42.028  0.00  0.00    -0.062 C 
ATOM      5  C   UNL     1      89.429  51.699  41.017  0.00  0.00    -0.048 C 
ATOM      6  C   UNL     1      90.089  50.559  41.285  0.00  0.00    -0.072 C 
ATOM      7  C   UNL     1      89.968  49.894  42.641  0.00  0.00    +0.010 C 
ENDROOT
BRANCH   7   8
ATOM      8  C   UNL     1      90.436  48.439  42.621  0.00  0.00    -0.072 C 
ATOM      9  C   UNL     1      91.210  47.930  43.596  0.00  0.00    -0.099 C 
ATOM     10  C   UNL     1      90.042  47.543  41.476  0.00  0.00    -0.043 C 
ENDBRANCH   7   8
BRANCH   5  11
ATOM     11  C   UNL     1      89.649  52.420  39.700  0.00  0.00    -0.022 C 
ATOM     12  C   UNL     1      90.572  53.629  39.889  0.00  0.00    -0.059 C 
ATOM     13  C   UNL     1      88.314  52.837  39.072  0.00  0.00    -0.059 C 
ENDBRANCH   5  11
BRANCH   1  15
ATOM     14  C   UNL     1      87.680  50.258  45.608  0.00  0.00    -0.102 C 
ATOM     15  C   UNL     1      88.528  49.715  44.726  0.00  0.00    -0.081 C 
ENDBRANCH   1  15
TORSDOF 3
ENDMDL
MODEL 3
REMARK VINA RESULT:    -6.536      1.377      4.757
REMARK INTER + INTRA:          -8.083
REMARK INTER:                  -7.670
REMARK INTRA:                  -0.414
REMARK UNBOUND:                -0.401
REMARK  Name = 
REMARK  7 active torsions:
REMARK  status: ('A' for Active; 'I' for Inactive)
REMARK    1  A    between atoms: C_2  and  C_3
REMARK    2  A    between atoms: C_3  and  C_4
REMARK    3  A    between atoms: C_7  and  C_13
REMARK    4  A    between atoms: C_9  and  C_10
REMARK    5  A    between atoms: C_10  and  C_12
REMARK    6  A    between atoms: C_13  and  C_14
REMARK    7  A    between atoms: C_13  and  C_15
REMARK                            x       y       z     vdW  Elec       q    Type
REMARK                         _______ _______ _______ _____ _____    ______ ____
ROOT
ATOM      1  C   UNL     1      85.792  56.219  45.054  0.00  0.00    +0.014 C 
ATOM      2  C   UNL     1      87.165  55.998  44.379  0.00  0.00    -0.052 C 
ATOM      3  C   UNL     1      86.008  56.126  46.554  0.00  0.00    -0.073 C 
ATOM      4  C   UNL     1      85.946  54.951  47.191  0.00  0.00    -0.062 C 
ATOM      5  C   UNL     1      85.562  53.707  46.477  0.00  0.00    -0.048 C 
ATOM      6  C   UNL     1      85.039  53.791  45.242  0.00  0.00    -0.072 C 
ATOM      7  C   UNL     1      84.741  55.137  44.616  0.00  0.00    +0.010 C 
ENDROOT
BRANCH   7   8
ATOM      8  C   UNL     1      84.551  55.047  43.102  0.00  0.00    -0.072 C 
ATOM      9  C   UNL     1      83.786  55.926  42.430  0.00  0.00    -0.099 C 
ATOM     10  C   UNL     1      85.219  53.940  42.330  0.00  0.00    -0.043 C 
ENDBRANCH   7   8
BRANCH   5  11
ATOM     11  C   UNL     1      85.746  52.355  47.142  0.00  0.00    -0.022 C 
ATOM     12  C   UNL     1      85.801  52.501  48.666  0.00  0.00    -0.059 C 
ATOM     13  C   UNL     1      86.998  51.647  46.609  0.00  0.00    -0.059 C 
ENDBRANCH   5  11
BRANCH   1  15
ATOM     14  C   UNL     1      84.978  58.530  45.626  0.00  0.00    -0.102 C 
ATOM     15  C   UNL     1      85.293  57.615  44.700  0.00  0.00    -0.081 C 
ENDBRANCH   1  15
TORSDOF 3
ENDMDL
MODEL 4
REMARK VINA RESULT:    -6.319      1.349      4.636
REMARK INTER + INTRA:          -7.829
REMARK INTER:                  -7.529
REMARK INTRA:                  -0.299
REMARK UNBOUND:                -0.401
REMARK  Name = 
REMARK  7 active torsions:
REMARK  status: ('A' for Active; 'I' for Inactive)
REMARK    1  A    between atoms: C_2  and  C_3
REMARK    2  A    between atoms: C_3  and  C_4
REMARK    3  A    between atoms: C_7  and  C_13
REMARK    4  A    between atoms: C_9  and  C_10
REMARK    5  A    between atoms: C_10  and  C_12
REMARK    6  A    between atoms: C_13  and  C_14
REMARK    7  A    between atoms: C_13  and  C_15
REMARK                            x       y       z     vdW  Elec       q    Type
REMARK                         _______ _______ _______ _____ _____    ______ ____
ROOT
ATOM      1  C   UNL     1      85.140  55.023  46.737  0.00  0.00    +0.014 C 
ATOM      2  C   UNL     1      86.345  55.925  47.085  0.00  0.00    -0.052 C 
ATOM      3  C   UNL     1      85.036  53.970  47.825  0.00  0.00    -0.073 C 
ATOM      4  C   UNL     1      85.710  52.817  47.741  0.00  0.00    -0.062 C 
ATOM      5  C   UNL     1      86.505  52.477  46.534  0.00  0.00    -0.048 C 
ATOM      6  C   UNL     1      86.359  53.212  45.419  0.00  0.00    -0.072 C 
ATOM      7  C   UNL     1      85.321  54.313  45.347  0.00  0.00    +0.010 C 
ENDROOT
BRANCH   7   8
ATOM      8  C   UNL     1      85.577  55.283  44.194  0.00  0.00    -0.072 C 
ATOM      9  C   UNL     1      86.790  55.822  43.978  0.00  0.00    -0.099 C 
ATOM     10  C   UNL     1      84.447  55.667  43.275  0.00  0.00    -0.043 C 
ENDBRANCH   7   8
BRANCH   5  11
ATOM     11  C   UNL     1      87.464  51.301  46.556  0.00  0.00    -0.022 C 
ATOM     12  C   UNL     1      87.718  50.779  45.137  0.00  0.00    -0.059 C 
ATOM     13  C   UNL     1      86.945  50.185  47.470  0.00  0.00    -0.059 C 
ENDBRANCH   5  11
BRANCH   1  15
ATOM     14  C   UNL     1      83.902  57.211  46.639  0.00  0.00    -0.102 C 
ATOM     15  C   UNL     1      83.877  55.875  46.734  0.00  0.00    -0.081 C 
ENDBRANCH   1  15
TORSDOF 3
ENDMDL
MODEL 5
REMARK VINA RESULT:    -6.277      3.641      6.446
REMARK INTER + INTRA:          -7.779
REMARK INTER:                  -7.439
REMARK INTRA:                  -0.340
REMARK UNBOUND:                -0.401
REMARK  Name = 
REMARK  7 active torsions:
REMARK  status: ('A' for Active; 'I' for Inactive)
REMARK    1  A    between atoms: C_2  and  C_3
REMARK    2  A    between atoms: C_3  and  C_4
REMARK    3  A    between atoms: C_7  and  C_13
REMARK    4  A    between atoms: C_9  and  C_10
REMARK    5  A    between atoms: C_10  and  C_12
REMARK    6  A    between atoms: C_13  and  C_14
REMARK    7  A    between atoms: C_13  and  C_15
REMARK                            x       y       z     vdW  Elec       q    Type
REMARK                         _______ _______ _______ _____ _____    ______ ____
ROOT
ATOM      1  C   UNL     1      88.992  50.185  42.254  0.00  0.00    +0.014 C 
ATOM      2  C   UNL     1      87.878  49.572  41.376  0.00  0.00    -0.052 C 
ATOM      3  C   UNL     1      88.763  49.701  43.674  0.00  0.00    -0.073 C 
ATOM      4  C   UNL     1      87.964  50.369  44.514  0.00  0.00    -0.062 C 
ATOM      5  C   UNL     1      87.350  51.664  44.126  0.00  0.00    -0.048 C 
ATOM      6  C   UNL     1      87.785  52.295  43.022  0.00  0.00    -0.072 C 
ATOM      7  C   UNL     1      88.959  51.755  42.232  0.00  0.00    +0.010 C 
ENDROOT
BRANCH   7   8
ATOM      8  C   UNL     1      89.039  52.349  40.827  0.00  0.00    -0.072 C 
ATOM      9  C   UNL     1      90.187  52.844  40.330  0.00  0.00    -0.099 C 
ATOM     10  C   UNL     1      87.803  52.404  39.967  0.00  0.00    -0.043 C 
ENDBRANCH   7   8
BRANCH   5  11
ATOM     11  C   UNL     1      86.252  52.276  44.976  0.00  0.00    -0.022 C 
ATOM     12  C   UNL     1      86.616  52.214  46.464  0.00  0.00    -0.059 C 
ATOM     13  C   UNL     1      84.905  51.593  44.708  0.00  0.00    -0.059 C 
ENDBRANCH   5  11
BRANCH   1  15
ATOM     14  C   UNL     1      91.236  49.089  42.561  0.00  0.00    -0.102 C 
ATOM     15  C   UNL     1      90.340  49.677  41.757  0.00  0.00    -0.081 C 
ENDBRANCH   1  15
TORSDOF 3
ENDMDL
MODEL 6
REMARK VINA RESULT:    -6.259      3.781      7.242
REMARK INTER + INTRA:          -7.758
REMARK INTER:                  -7.352
REMARK INTRA:                  -0.406
REMARK UNBOUND:                -0.401
REMARK  Name = 
REMARK  7 active torsions:
REMARK  status: ('A' for Active; 'I' for Inactive)
REMARK    1  A    between atoms: C_2  and  C_3
REMARK    2  A    between atoms: C_3  and  C_4
REMARK    3  A    between atoms: C_7  and  C_13
REMARK    4  A    between atoms: C_9  and  C_10
REMARK    5  A    between atoms: C_10  and  C_12
REMARK    6  A    between atoms: C_13  and  C_14
REMARK    7  A    between atoms: C_13  and  C_15
REMARK                            x       y       z     vdW  Elec       q    Type
REMARK                         _______ _______ _______ _____ _____    ______ ____
ROOT
ATOM      1  C   UNL     1      87.706  51.840  42.463  0.00  0.00    +0.014 C 
ATOM      2  C   UNL     1      86.583  51.051  41.752  0.00  0.00    -0.052 C 
ATOM      3  C   UNL     1      88.870  51.938  41.493  0.00  0.00    -0.073 C 
ATOM      4  C   UNL     1      89.806  50.983  41.434  0.00  0.00    -0.062 C 
ATOM      5  C   UNL     1      89.801  49.841  42.382  0.00  0.00    -0.048 C 
ATOM      6  C   UNL     1      89.001  49.883  43.462  0.00  0.00    -0.072 C 
ATOM      7  C   UNL     1      88.187  51.122  43.775  0.00  0.00    +0.010 C 
ENDROOT
BRANCH   7   8
ATOM      8  C   UNL     1      87.059  50.842  44.767  0.00  0.00    -0.072 C 
ATOM      9  C   UNL     1      86.656  51.764  45.660  0.00  0.00    -0.099 C 
ATOM     10  C   UNL     1      86.381  49.497  44.768  0.00  0.00    -0.043 C 
ENDBRANCH   7   8
BRANCH   5  11
ATOM     11  C   UNL     1      90.702  48.643  42.143  0.00  0.00    -0.022 C 
ATOM     12  C   UNL     1      89.907  47.475  41.549  0.00  0.00    -0.059 C 
ATOM     13  C   UNL     1      91.416  48.226  43.434  0.00  0.00    -0.059 C 
ENDBRANCH   5  11
BRANCH   1  15
ATOM     14  C   UNL     1      85.966  53.656  42.451  0.00  0.00    -0.102 C 
ATOM     15  C   UNL     1      87.194  53.239  42.783  0.00  0.00    -0.081 C 
ENDBRANCH   1  15
TORSDOF 3
ENDMDL
MODEL 7
REMARK VINA RESULT:    -6.237      2.161      4.707
REMARK INTER + INTRA:          -7.732
REMARK INTER:                  -7.306
REMARK INTRA:                  -0.425
REMARK UNBOUND:                -0.401
REMARK  Name = 
REMARK  7 active torsions:
REMARK  status: ('A' for Active; 'I' for Inactive)
REMARK    1  A    between atoms: C_2  and  C_3
REMARK    2  A    between atoms: C_3  and  C_4
REMARK    3  A    between atoms: C_7  and  C_13
REMARK    4  A    between atoms: C_9  and  C_10
REMARK    5  A    between atoms: C_10  and  C_12
REMARK    6  A    between atoms: C_13  and  C_14
REMARK    7  A    between atoms: C_13  and  C_15
REMARK                            x       y       z     vdW  Elec       q    Type
REMARK                         _______ _______ _______ _____ _____    ______ ____
ROOT
ATOM      1  C   UNL     1      85.430  55.381  45.242  0.00  0.00    +0.014 C 
ATOM      2  C   UNL     1      86.923  55.449  44.847  0.00  0.00    -0.052 C 
ATOM      3  C   UNL     1      84.907  54.027  44.796  0.00  0.00    -0.073 C 
ATOM      4  C   UNL     1      84.418  53.843  43.565  0.00  0.00    -0.062 C 
ATOM      5  C   UNL     1      84.272  54.978  42.618  0.00  0.00    -0.048 C 
ATOM      6  C   UNL     1      84.401  56.236  43.071  0.00  0.00    -0.072 C 
ATOM      7  C   UNL     1      84.588  56.513  44.549  0.00  0.00    +0.010 C 
ENDROOT
BRANCH   7   8
ATOM      8  C   UNL     1      85.119  57.920  44.816  0.00  0.00    -0.072 C 
ATOM      9  C   UNL     1      86.112  58.455  44.082  0.00  0.00    -0.099 C 
ATOM     10  C   UNL     1      84.537  58.738  45.938  0.00  0.00    -0.043 C 
ENDBRANCH   7   8
BRANCH   5  11
ATOM     11  C   UNL     1      83.966  54.718  41.154  0.00  0.00    -0.022 C 
ATOM     12  C   UNL     1      82.502  54.304  40.969  0.00  0.00    -0.059 C 
ATOM     13  C   UNL     1      84.915  53.664  40.573  0.00  0.00    -0.059 C 
ENDBRANCH   5  11
BRANCH   1  15
ATOM     14  C   UNL     1      84.163  55.338  47.415  0.00  0.00    -0.102 C 
ATOM     15  C   UNL     1      85.319  55.494  46.757  0.00  0.00    -0.081 C 
ENDBRANCH   1  15
TORSDOF 3
ENDMDL
MODEL 8
REMARK VINA RESULT:    -6.178      1.522      5.404
REMARK INTER + INTRA:          -7.663
REMARK INTER:                  -7.231
REMARK INTRA:                  -0.431
REMARK UNBOUND:                -0.401
REMARK  Name = 
REMARK  7 active torsions:
REMARK  status: ('A' for Active; 'I' for Inactive)
REMARK    1  A    between atoms: C_2  and  C_3
REMARK    2  A    between atoms: C_3  and  C_4
REMARK    3  A    between atoms: C_7  and  C_13
REMARK    4  A    between atoms: C_9  and  C_10
REMARK    5  A    between atoms: C_10  and  C_12
REMARK    6  A    between atoms: C_13  and  C_14
REMARK    7  A    between atoms: C_13  and  C_15
REMARK                            x       y       z     vdW  Elec       q    Type
REMARK                         _______ _______ _______ _____ _____    ______ ____
ROOT
ATOM      1  C   UNL     1      86.078  54.105  44.266  0.00  0.00    +0.014 C 
ATOM      2  C   UNL     1      84.606  53.643  44.164  0.00  0.00    -0.052 C 
ATOM      3  C   UNL     1      86.911  53.136  43.446  0.00  0.00    -0.073 C 
ATOM      4  C   UNL     1      87.400  52.013  43.985  0.00  0.00    -0.062 C 
ATOM      5  C   UNL     1      87.235  51.719  45.431  0.00  0.00    -0.048 C 
ATOM      6  C   UNL     1      86.808  52.689  46.257  0.00  0.00    -0.072 C 
ATOM      7  C   UNL     1      86.593  54.101  45.750  0.00  0.00    +0.010 C 
ENDROOT
BRANCH   7   8
ATOM      8  C   UNL     1      85.734  54.937  46.698  0.00  0.00    -0.072 C 
ATOM      9  C   UNL     1      85.957  56.250  46.884  0.00  0.00    -0.099 C 
ATOM     10  C   UNL     1      84.614  54.284  47.464  0.00  0.00    -0.043 C 
ENDBRANCH   7   8
BRANCH   5  11
ATOM     11  C   UNL     1      87.560  50.340  45.974  0.00  0.00    -0.022 C 
ATOM     12  C   UNL     1      86.453  49.340  45.621  0.00  0.00    -0.059 C 
ATOM     13  C   UNL     1      87.798  50.387  47.488  0.00  0.00    -0.059 C 
ENDBRANCH   5  11
BRANCH   1  15
ATOM     14  C   UNL     1      85.143  56.173  43.180  0.00  0.00    -0.102 C 
ATOM     15  C   UNL     1      86.194  55.503  43.670  0.00  0.00    -0.081 C 
ENDBRANCH   1  15
TORSDOF 3
ENDMDL
MODEL 9
REMARK VINA RESULT:    -6.022      1.328      2.423
REMARK INTER + INTRA:          -7.479
REMARK INTER:                  -7.078
REMARK INTRA:                  -0.401
REMARK UNBOUND:                -0.401
REMARK  Name = 
REMARK  7 active torsions:
REMARK  status: ('A' for Active; 'I' for Inactive)
REMARK    1  A    between atoms: C_2  and  C_3
REMARK    2  A    between atoms: C_3  and  C_4
REMARK    3  A    between atoms: C_7  and  C_13
REMARK    4  A    between atoms: C_9  and  C_10
REMARK    5  A    between atoms: C_10  and  C_12
REMARK    6  A    between atoms: C_13  and  C_14
REMARK    7  A    between atoms: C_13  and  C_15
REMARK                            x       y       z     vdW  Elec       q    Type
REMARK                         _______ _______ _______ _____ _____    ______ ____
ROOT
ATOM      1  C   UNL     1      86.066  51.789  46.319  0.00  0.00    +0.014 C 
ATOM      2  C   UNL     1      84.738  51.592  45.554  0.00  0.00    -0.052 C 
ATOM      3  C   UNL     1      85.739  52.526  47.606  0.00  0.00    -0.073 C 
ATOM      4  C   UNL     1      85.708  53.862  47.651  0.00  0.00    -0.062 C 
ATOM      5  C   UNL     1      86.090  54.681  46.473  0.00  0.00    -0.048 C 
ATOM      6  C   UNL     1      86.703  54.093  45.432  0.00  0.00    -0.072 C 
ATOM      7  C   UNL     1      87.100  52.632  45.490  0.00  0.00    +0.010 C 
ENDROOT
BRANCH   7   8
ATOM      8  C   UNL     1      87.394  52.052  44.108  0.00  0.00    -0.072 C 
ATOM      9  C   UNL     1      86.974  52.656  42.981  0.00  0.00    -0.099 C 
ATOM     10  C   UNL     1      88.160  50.761  43.986  0.00  0.00    -0.043 C 
ENDBRANCH   7   8
BRANCH   5  11
ATOM     11  C   UNL     1      85.803  56.172  46.451  0.00  0.00    -0.022 C 
ATOM     12  C   UNL     1      84.356  56.454  46.868  0.00  0.00    -0.059 C 
ATOM     13  C   UNL     1      86.108  56.769  45.072  0.00  0.00    -0.059 C 
ENDBRANCH   5  11
BRANCH   1  15
ATOM     14  C   UNL     1      87.510  50.222  47.657  0.00  0.00    -0.102 C 
ATOM     15  C   UNL     1      86.647  50.420  46.652  0.00  0.00    -0.081 C 
ENDBRANCH   1  15
TORSDOF 3
ENDMDL
