MODEL 1
REMARK VINA RESULT:    -9.330      0.000      0.000
REMARK INTER + INTRA:         -11.769
REMARK INTER:                 -11.404
REMARK INTRA:                  -0.366
REMARK UNBOUND:                 0.016
REMARK  Name = 
REMARK  8 active torsions:
REMARK  status: ('A' for Active; 'I' for Inactive)
REMARK    1  A    between atoms: C_1  and  O_2
REMARK    2  A    between atoms: O_2  and  C_3
REMARK    3  A    between atoms: C_6  and  C_7
REMARK    4  A    between atoms: C_22  and  O_30
REMARK    5  A    between atoms: C_24  and  O_28
REMARK    6  A    between atoms: C_25  and  O_26
REMARK    7  A    between atoms: O_26  and  C_27
REMARK    8  A    between atoms: O_28  and  C_29
REMARK                            x       y       z     vdW  Elec       q    Type
REMARK                         _______ _______ _______ _____ _____    ______ ____
ROOT
ATOM      1  C   UNL     1      83.313  50.359  44.153  0.00  0.00    +0.165 A 
ATOM      2  C   UNL     1      84.211  51.431  44.275  0.00  0.00    -0.012 A 
ATOM      3  C   UNL     1      85.567  51.210  44.563  0.00  0.00    -0.026 A 
ATOM      4  C   UNL     1      86.581  52.333  44.741  0.00  0.00    +0.023 C 
ATOM      5  C   UNL     1      87.214  52.178  46.150  0.00  0.00    +0.076 C 
ATOM      6  C   UNL     1      86.219  52.196  47.265  0.00  0.00    +0.312 C 
ATOM      7  O   UNL     1      85.304  53.051  47.407  0.00  0.00    -0.250 OA
ATOM      8  O   UNL     1      86.377  51.149  48.143  0.00  0.00    -0.464 OA
ATOM      9  C   UNL     1      87.473  50.333  47.780  0.00  0.00    +0.099 C 
ATOM     10  C   UNL     1      87.875  50.772  46.346  0.00  0.00    +0.037 C 
ATOM     11  C   UNL     1      87.455  49.705  45.280  0.00  0.00    +0.091 C 
ATOM     12  C   UNL     1      86.011  49.902  44.830  0.00  0.00    +0.031 A 
ATOM     13  C   UNL     1      85.141  48.805  44.653  0.00  0.00    +0.171 A 
ATOM     14  C   UNL     1      83.774  49.033  44.347  0.00  0.00    +0.204 A 
ENDROOT
BRANCH   4  15
ATOM     15  C   UNL     1      86.113  53.732  44.336  0.00  0.00    -0.035 A 
ATOM     16  C   UNL     1      85.457  53.884  43.082  0.00  0.00    -0.054 A 
ATOM     17  C   UNL     1      85.027  55.143  42.632  0.00  0.00    -0.016 A 
ATOM     18  C   UNL     1      85.289  56.242  43.438  0.00  0.00    +0.166 A 
ATOM     19  C   UNL     1      85.953  56.125  44.613  0.00  0.00    +0.167 A 
ATOM     20  C   UNL     1      86.399  54.898  45.093  0.00  0.00    -0.012 A 
ATOM     21  O   UNL     1      86.096  57.374  45.186  0.00  0.00    -0.453 OA
ATOM     22  C   UNL     1      85.476  58.334  44.319  0.00  0.00    +0.233 C 
ATOM     23  O   UNL     1      84.971  57.568  43.217  0.00  0.00    -0.453 OA
ENDBRANCH   4  15
BRANCH   1  25
ATOM     24  C   UNL     1      81.467  50.842  42.527  0.00  0.00    +0.079 C 
ATOM     25  O   UNL     1      81.964  50.585  43.832  0.00  0.00    -0.491 OA
ENDBRANCH   1  25
BRANCH  14  26
ATOM     26  O   UNL     1      82.912  47.924  44.272  0.00  0.00    -0.488 OA
ATOM     27  C   UNL     1      82.531  47.235  43.089  0.00  0.00    +0.079 C 
ENDBRANCH  14  26
BRANCH  13  28
ATOM     28  O   UNL     1      85.672  47.513  44.824  0.00  0.00    -0.491 OA
ATOM     29  C   UNL     1      86.103  46.648  43.771  0.00  0.00    +0.079 C 
ENDBRANCH  13  28
BRANCH  11  30
ATOM     30  O   UNL     1      88.312  49.794  44.172  0.00  0.00    -0.387 OA
ATOM     31  H   UNL     1      88.662  48.915  43.962  0.00  0.00    +0.000 HD
ENDBRANCH  11  30
TORSDOF 5
ENDMDL
MODEL 2
REMARK VINA RESULT:    -9.057      2.694      6.699
REMARK INTER + INTRA:         -11.424
REMARK INTER:                 -11.349
REMARK INTRA:                  -0.075
REMARK UNBOUND:                 0.016
REMARK  Name = 
REMARK  8 active torsions:
REMARK  status: ('A' for Active; 'I' for Inactive)
REMARK    1  A    between atoms: C_1  and  O_2
REMARK    2  A    between atoms: O_2  and  C_3
REMARK    3  A    between atoms: C_6  and  C_7
REMARK    4  A    between atoms: C_22  and  O_30
REMARK    5  A    between atoms: C_24  and  O_28
REMARK    6  A    between atoms: C_25  and  O_26
REMARK    7  A    between atoms: O_26  and  C_27
REMARK    8  A    between atoms: O_28  and  C_29
REMARK                            x       y       z     vdW  Elec       q    Type
REMARK                         _______ _______ _______ _____ _____    ______ ____
ROOT
ATOM      1  C   UNL     1      86.361  52.264  46.908  0.00  0.00    +0.165 A 
ATOM      2  C   UNL     1      86.820  52.286  45.582  0.00  0.00    -0.012 A 
ATOM      3  C   UNL     1      86.763  53.460  44.815  0.00  0.00    -0.026 A 
ATOM      4  C   UNL     1      87.215  53.537  43.362  0.00  0.00    +0.023 C 
ATOM      5  C   UNL     1      86.009  54.034  42.519  0.00  0.00    +0.076 C 
ATOM      6  C   UNL     1      84.791  53.175  42.641  0.00  0.00    +0.312 C 
ATOM      7  O   UNL     1      84.776  51.920  42.530  0.00  0.00    -0.250 OA
ATOM      8  O   UNL     1      83.652  53.894  42.916  0.00  0.00    -0.464 OA
ATOM      9  C   UNL     1      83.921  55.281  42.983  0.00  0.00    +0.099 C 
ATOM     10  C   UNL     1      85.467  55.413  43.026  0.00  0.00    +0.037 C 
ATOM     11  C   UNL     1      85.969  55.823  44.451  0.00  0.00    +0.091 C 
ATOM     12  C   UNL     1      86.147  54.605  45.352  0.00  0.00    +0.031 A 
ATOM     13  C   UNL     1      85.734  54.624  46.702  0.00  0.00    +0.171 A 
ATOM     14  C   UNL     1      85.809  53.438  47.478  0.00  0.00    +0.204 A 
ENDROOT
BRANCH   4  15
ATOM     15  C   UNL     1      87.984  52.326  42.832  0.00  0.00    -0.035 A 
ATOM     16  C   UNL     1      88.758  52.487  41.648  0.00  0.00    -0.054 A 
ATOM     17  C   UNL     1      89.466  51.411  41.088  0.00  0.00    -0.016 A 
ATOM     18  C   UNL     1      89.364  50.175  41.711  0.00  0.00    +0.166 A 
ATOM     19  C   UNL     1      88.596  49.990  42.812  0.00  0.00    +0.167 A 
ATOM     20  C   UNL     1      87.876  51.028  43.396  0.00  0.00    -0.012 A 
ATOM     21  O   UNL     1      88.660  48.665  43.198  0.00  0.00    -0.453 OA
ATOM     22  C   UNL     1      89.527  47.977  42.286  0.00  0.00    +0.233 C 
ATOM     23  O   UNL     1      89.957  48.980  41.355  0.00  0.00    -0.453 OA
ENDBRANCH   4  15
BRANCH   1  25
ATOM     24  C   UNL     1      87.659  50.417  47.999  0.00  0.00    +0.079 C 
ATOM     25  O   UNL     1      86.452  51.094  47.680  0.00  0.00    -0.491 OA
ENDBRANCH   1  25
BRANCH  14  26
ATOM     26  O   UNL     1      85.301  53.464  48.789  0.00  0.00    -0.488 OA
ATOM     27  C   UNL     1      83.999  53.061  49.192  0.00  0.00    +0.079 C 
ENDBRANCH  14  26
BRANCH  13  28
ATOM     28  O   UNL     1      85.229  55.833  47.215  0.00  0.00    -0.491 OA
ATOM     29  C   UNL     1      83.848  56.194  47.278  0.00  0.00    +0.079 C 
ENDBRANCH  13  28
BRANCH  11  30
ATOM     30  O   UNL     1      87.190  56.506  44.334  0.00  0.00    -0.387 OA
ATOM     31  H   UNL     1      87.763  56.038  43.707  0.00  0.00    +0.000 HD
ENDBRANCH  11  30
TORSDOF 5
ENDMDL
MODEL 3
REMARK VINA RESULT:    -8.805      2.322      6.201
REMARK INTER + INTRA:         -11.106
REMARK INTER:                 -10.928
REMARK INTRA:                  -0.178
REMARK UNBOUND:                 0.016
REMARK  Name = 
REMARK  8 active torsions:
REMARK  status: ('A' for Active; 'I' for Inactive)
REMARK    1  A    between atoms: C_1  and  O_2
REMARK    2  A    between atoms: O_2  and  C_3
REMARK    3  A    between atoms: C_6  and  C_7
REMARK    4  A    between atoms: C_22  and  O_30
REMARK    5  A    between atoms: C_24  and  O_28
REMARK    6  A    between atoms: C_25  and  O_26
REMARK    7  A    between atoms: O_26  and  C_27
REMARK    8  A    between atoms: O_28  and  C_29
REMARK                            x       y       z     vdW  Elec       q    Type
REMARK                         _______ _______ _______ _____ _____    ______ ____
ROOT
ATOM      1  C   UNL     1      87.114  49.497  43.231  0.00  0.00    +0.165 A 
ATOM      2  C   UNL     1      85.811  50.020  43.257  0.00  0.00    -0.012 A 
ATOM      3  C   UNL     1      85.561  51.355  42.903  0.00  0.00    -0.026 A 
ATOM      4  C   UNL     1      84.175  51.988  42.944  0.00  0.00    +0.023 C 
ATOM      5  C   UNL     1      84.248  53.223  43.881  0.00  0.00    +0.076 C 
ATOM      6  C   UNL     1      84.715  52.905  45.266  0.00  0.00    +0.312 C 
ATOM      7  O   UNL     1      84.267  51.971  45.985  0.00  0.00    -0.250 OA
ATOM      8  O   UNL     1      85.725  53.732  45.696  0.00  0.00    -0.464 OA
ATOM      9  C   UNL     1      86.047  54.704  44.719  0.00  0.00    +0.099 C 
ATOM     10  C   UNL     1      85.335  54.250  43.417  0.00  0.00    +0.037 C 
ATOM     11  C   UNL     1      86.356  53.685  42.372  0.00  0.00    +0.091 C 
ATOM     12  C   UNL     1      86.642  52.207  42.614  0.00  0.00    +0.031 A 
ATOM     13  C   UNL     1      87.952  51.688  42.522  0.00  0.00    +0.171 A 
ATOM     14  C   UNL     1      88.198  50.333  42.866  0.00  0.00    +0.204 A 
ENDROOT
BRANCH   4  15
ATOM     15  C   UNL     1      83.002  51.027  43.146  0.00  0.00    -0.035 A 
ATOM     16  C   UNL     1      81.711  51.442  42.713  0.00  0.00    -0.054 A 
ATOM     17  C   UNL     1      80.584  50.624  42.894  0.00  0.00    -0.016 A 
ATOM     18  C   UNL     1      80.764  49.406  43.535  0.00  0.00    +0.166 A 
ATOM     19  C   UNL     1      81.976  49.013  43.996  0.00  0.00    +0.167 A 
ATOM     20  C   UNL     1      83.117  49.794  43.841  0.00  0.00    -0.012 A 
ATOM     21  O   UNL     1      81.856  47.782  44.611  0.00  0.00    -0.453 OA
ATOM     22  C   UNL     1      80.483  47.374  44.525  0.00  0.00    +0.233 C 
ATOM     23  O   UNL     1      79.822  48.440  43.828  0.00  0.00    -0.453 OA
ENDBRANCH   4  15
BRANCH   1  25
ATOM     24  C   UNL     1      87.034  47.042  42.727  0.00  0.00    +0.079 C 
ATOM     25  O   UNL     1      87.353  48.151  43.555  0.00  0.00    -0.491 OA
ENDBRANCH   1  25
BRANCH  14  26
ATOM     26  O   UNL     1      89.526  49.873  42.858  0.00  0.00    -0.488 OA
ATOM     27  C   UNL     1      90.151  49.130  41.820  0.00  0.00    +0.079 C 
ENDBRANCH  14  26
BRANCH  13  28
ATOM     28  O   UNL     1      88.976  52.564  42.118  0.00  0.00    -0.491 OA
ATOM     29  C   UNL     1      89.501  52.669  40.793  0.00  0.00    +0.079 C 
ENDBRANCH  13  28
BRANCH  11  30
ATOM     30  O   UNL     1      85.840  53.862  41.079  0.00  0.00    -0.387 OA
ATOM     31  H   UNL     1      85.514  54.770  40.982  0.00  0.00    +0.000 HD
ENDBRANCH  11  30
TORSDOF 5
ENDMDL
MODEL 4
REMARK VINA RESULT:    -8.474      2.172      7.309
REMARK INTER + INTRA:         -10.687
REMARK INTER:                 -10.645
REMARK INTRA:                  -0.043
REMARK UNBOUND:                 0.016
REMARK  Name = 
REMARK  8 active torsions:
REMARK  status: ('A' for Active; 'I' for Inactive)
REMARK    1  A    between atoms: C_1  and  O_2
REMARK    2  A    between atoms: O_2  and  C_3
REMARK    3  A    between atoms: C_6  and  C_7
REMARK    4  A    between atoms: C_22  and  O_30
REMARK    5  A    between atoms: C_24  and  O_28
REMARK    6  A    between atoms: C_25  and  O_26
REMARK    7  A    between atoms: O_26  and  C_27
REMARK    8  A    between atoms: O_28  and  C_29
REMARK                            x       y       z     vdW  Elec       q    Type
REMARK                         _______ _______ _______ _____ _____    ______ ____
ROOT
ATOM      1  C   UNL     1      84.320  53.607  46.380  0.00  0.00    +0.165 A 
ATOM      2  C   UNL     1      84.260  52.603  45.400  0.00  0.00    -0.012 A 
ATOM      3  C   UNL     1      84.764  52.821  44.109  0.00  0.00    -0.026 A 
ATOM      4  C   UNL     1      84.698  51.783  42.995  0.00  0.00    +0.023 C 
ATOM      5  C   UNL     1      83.937  52.420  41.801  0.00  0.00    +0.076 C 
ATOM      6  C   UNL     1      82.564  52.901  42.146  0.00  0.00    +0.312 C 
ATOM      7  O   UNL     1      81.697  52.231  42.770  0.00  0.00    -0.250 OA
ATOM      8  O   UNL     1      82.326  54.189  41.730  0.00  0.00    -0.464 OA
ATOM      9  C   UNL     1      83.443  54.726  41.047  0.00  0.00    +0.099 C 
ATOM     10  C   UNL     1      84.615  53.744  41.312  0.00  0.00    +0.037 C 
ATOM     11  C   UNL     1      85.654  54.349  42.315  0.00  0.00    +0.091 C 
ATOM     12  C   UNL     1      85.246  54.097  43.763  0.00  0.00    +0.031 A 
ATOM     13  C   UNL     1      85.371  55.101  44.747  0.00  0.00    +0.171 A 
ATOM     14  C   UNL     1      84.875  54.870  46.056  0.00  0.00    +0.204 A 
ENDROOT
BRANCH   4  15
ATOM     15  C   UNL     1      84.281  50.372  43.415  0.00  0.00    -0.035 A 
ATOM     16  C   UNL     1      85.305  49.422  43.687  0.00  0.00    -0.054 A 
ATOM     17  C   UNL     1      84.996  48.100  44.049  0.00  0.00    -0.016 A 
ATOM     18  C   UNL     1      83.656  47.741  44.105  0.00  0.00    +0.166 A 
ATOM     19  C   UNL     1      82.667  48.618  43.805  0.00  0.00    +0.167 A 
ATOM     20  C   UNL     1      82.931  49.934  43.439  0.00  0.00    -0.012 A 
ATOM     21  O   UNL     1      81.445  47.985  43.917  0.00  0.00    -0.453 OA
ATOM     22  C   UNL     1      81.680  46.629  44.319  0.00  0.00    +0.233 C 
ATOM     23  O   UNL     1      83.106  46.517  44.429  0.00  0.00    -0.453 OA
ENDBRANCH   4  15
BRANCH   1  25
ATOM     24  C   UNL     1      84.643  52.965  48.782  0.00  0.00    +0.079 C 
ATOM     25  O   UNL     1      83.844  53.370  47.680  0.00  0.00    -0.491 OA
ENDBRANCH   1  25
BRANCH  14  26
ATOM     26  O   UNL     1      84.927  55.923  46.986  0.00  0.00    -0.488 OA
ATOM     27  C   UNL     1      83.880  56.838  47.277  0.00  0.00    +0.079 C 
ENDBRANCH  14  26
BRANCH  13  28
ATOM     28  O   UNL     1      85.966  56.319  44.367  0.00  0.00    -0.491 OA
ATOM     29  C   UNL     1      85.262  57.480  43.923  0.00  0.00    +0.079 C 
ENDBRANCH  13  28
BRANCH  11  30
ATOM     30  O   UNL     1      86.915  53.781  42.074  0.00  0.00    -0.387 OA
ATOM     31  H   UNL     1      87.074  53.740  41.118  0.00  0.00    +0.000 HD
ENDBRANCH  11  30
TORSDOF 5
ENDMDL
MODEL 5
REMARK VINA RESULT:    -8.462      2.530      4.850
REMARK INTER + INTRA:         -10.673
REMARK INTER:                 -10.723
REMARK INTRA:                   0.050
REMARK UNBOUND:                 0.016
REMARK  Name = 
REMARK  8 active torsions:
REMARK  status: ('A' for Active; 'I' for Inactive)
REMARK    1  A    between atoms: C_1  and  O_2
REMARK    2  A    between atoms: O_2  and  C_3
REMARK    3  A    between atoms: C_6  and  C_7
REMARK    4  A    between atoms: C_22  and  O_30
REMARK    5  A    between atoms: C_24  and  O_28
REMARK    6  A    between atoms: C_25  and  O_26
REMARK    7  A    between atoms: O_26  and  C_27
REMARK    8  A    between atoms: O_28  and  C_29
REMARK                            x       y       z     vdW  Elec       q    Type
REMARK                         _______ _______ _______ _____ _____    ______ ____
ROOT
ATOM      1  C   UNL     1      86.535  53.062  42.323  0.00  0.00    +0.165 A 
ATOM      2  C   UNL     1      86.348  52.613  43.640  0.00  0.00    -0.012 A 
ATOM      3  C   UNL     1      86.845  51.368  44.057  0.00  0.00    -0.026 A 
ATOM      4  C   UNL     1      86.645  50.813  45.462  0.00  0.00    +0.023 C 
ATOM      5  C   UNL     1      85.932  49.440  45.329  0.00  0.00    +0.076 C 
ATOM      6  C   UNL     1      84.625  49.505  44.605  0.00  0.00    +0.312 C 
ATOM      7  O   UNL     1      83.705  50.333  44.843  0.00  0.00    -0.250 OA
ATOM      8  O   UNL     1      84.518  48.565  43.607  0.00  0.00    -0.464 OA
ATOM      9  C   UNL     1      85.671  47.749  43.541  0.00  0.00    +0.099 C 
ATOM     10  C   UNL     1      86.737  48.444  44.428  0.00  0.00    +0.037 C 
ATOM     11  C   UNL     1      87.856  49.115  43.562  0.00  0.00    +0.091 C 
ATOM     12  C   UNL     1      87.453  50.517  43.116  0.00  0.00    +0.031 A 
ATOM     13  C   UNL     1      87.706  50.972  41.804  0.00  0.00    +0.171 A 
ATOM     14  C   UNL     1      87.215  52.238  41.392  0.00  0.00    +0.204 A 
ENDROOT
BRANCH   4  15
ATOM     15  C   UNL     1      86.089  51.791  46.499  0.00  0.00    -0.035 A 
ATOM     16  C   UNL     1      86.366  51.543  47.873  0.00  0.00    -0.054 A 
ATOM     17  C   UNL     1      85.863  52.382  48.881  0.00  0.00    -0.016 A 
ATOM     18  C   UNL     1      85.061  53.447  48.496  0.00  0.00    +0.166 A 
ATOM     19  C   UNL     1      84.746  53.673  47.197  0.00  0.00    +0.167 A 
ATOM     20  C   UNL     1      85.220  52.864  46.169  0.00  0.00    -0.012 A 
ATOM     21  O   UNL     1      83.916  54.774  47.111  0.00  0.00    -0.453 OA
ATOM     22  C   UNL     1      83.702  55.274  48.438  0.00  0.00    +0.233 C 
ATOM     23  O   UNL     1      84.453  54.399  49.291  0.00  0.00    -0.453 OA
ENDBRANCH   4  15
BRANCH   1  25
ATOM     24  C   UNL     1      84.934  54.986  42.470  0.00  0.00    +0.079 C 
ATOM     25  O   UNL     1      86.063  54.323  41.921  0.00  0.00    -0.491 OA
ENDBRANCH   1  25
BRANCH  14  26
ATOM     26  O   UNL     1      87.399  52.621  40.051  0.00  0.00    -0.488 OA
ATOM     27  C   UNL     1      88.609  53.084  39.470  0.00  0.00    +0.079 C 
ENDBRANCH  14  26
BRANCH  13  28
ATOM     28  O   UNL     1      88.419  50.119  40.942  0.00  0.00    -0.491 OA
ATOM     29  C   UNL     1      89.836  49.937  40.942  0.00  0.00    +0.079 C 
ENDBRANCH  13  28
BRANCH  11  30
ATOM     30  O   UNL     1      89.044  49.179  44.307  0.00  0.00    -0.387 OA
ATOM     31  H   UNL     1      89.763  48.767  43.803  0.00  0.00    +0.000 HD
ENDBRANCH  11  30
TORSDOF 5
ENDMDL
MODEL 6
REMARK VINA RESULT:    -8.323      2.155      4.206
REMARK INTER + INTRA:         -10.497
REMARK INTER:                 -10.596
REMARK INTRA:                   0.098
REMARK UNBOUND:                 0.016
REMARK  Name = 
REMARK  8 active torsions:
REMARK  status: ('A' for Active; 'I' for Inactive)
REMARK    1  A    between atoms: C_1  and  O_2
REMARK    2  A    between atoms: O_2  and  C_3
REMARK    3  A    between atoms: C_6  and  C_7
REMARK    4  A    between atoms: C_22  and  O_30
REMARK    5  A    between atoms: C_24  and  O_28
REMARK    6  A    between atoms: C_25  and  O_26
REMARK    7  A    between atoms: O_26  and  C_27
REMARK    8  A    between atoms: O_28  and  C_29
REMARK                            x       y       z     vdW  Elec       q    Type
REMARK                         _______ _______ _______ _____ _____    ______ ____
ROOT
ATOM      1  C   UNL     1      88.417  51.676  42.379  0.00  0.00    +0.165 A 
ATOM      2  C   UNL     1      87.559  52.295  43.300  0.00  0.00    -0.012 A 
ATOM      3  C   UNL     1      86.825  51.539  44.227  0.00  0.00    -0.026 A 
ATOM      4  C   UNL     1      85.854  52.151  45.229  0.00  0.00    +0.023 C 
ATOM      5  C   UNL     1      84.465  51.499  44.998  0.00  0.00    +0.076 C 
ATOM      6  C   UNL     1      83.945  51.660  43.605  0.00  0.00    +0.312 C 
ATOM      7  O   UNL     1      83.910  52.746  42.966  0.00  0.00    -0.250 OA
ATOM      8  O   UNL     1      83.514  50.477  43.052  0.00  0.00    -0.464 OA
ATOM      9  C   UNL     1      83.644  49.404  43.965  0.00  0.00    +0.099 C 
ATOM     10  C   UNL     1      84.518  49.939  45.130  0.00  0.00    +0.037 C 
ATOM     11  C   UNL     1      85.962  49.335  45.089  0.00  0.00    +0.091 C 
ATOM     12  C   UNL     1      86.877  50.135  44.166  0.00  0.00    +0.031 A 
ATOM     13  C   UNL     1      87.778  49.493  43.290  0.00  0.00    +0.171 A 
ATOM     14  C   UNL     1      88.529  50.263  42.365  0.00  0.00    +0.204 A 
ENDROOT
BRANCH   4  15
ATOM     15  C   UNL     1      85.896  53.675  45.362  0.00  0.00    -0.035 A 
ATOM     16  C   UNL     1      85.944  54.234  46.670  0.00  0.00    -0.054 A 
ATOM     17  C   UNL     1      85.955  55.625  46.868  0.00  0.00    -0.016 A 
ATOM     18  C   UNL     1      85.888  56.439  45.746  0.00  0.00    +0.166 A 
ATOM     19  C   UNL     1      85.795  55.927  44.495  0.00  0.00    +0.167 A 
ATOM     20  C   UNL     1      85.778  54.556  44.256  0.00  0.00    -0.012 A 
ATOM     21  O   UNL     1      85.716  56.959  43.581  0.00  0.00    -0.453 OA
ATOM     22  C   UNL     1      85.769  58.197  44.304  0.00  0.00    +0.233 C 
ATOM     23  O   UNL     1      85.882  57.818  45.682  0.00  0.00    -0.453 OA
ENDBRANCH   4  15
BRANCH   1  25
ATOM     24  C   UNL     1      88.860  52.632  40.103  0.00  0.00    +0.079 C 
ATOM     25  O   UNL     1      89.174  52.441  41.475  0.00  0.00    -0.491 OA
ENDBRANCH   1  25
BRANCH  14  26
ATOM     26  O   UNL     1      89.345  49.588  41.440  0.00  0.00    -0.488 OA
ATOM     27  C   UNL     1      90.567  48.923  41.728  0.00  0.00    +0.079 C 
ENDBRANCH  14  26
BRANCH  13  28
ATOM     28  O   UNL     1      87.866  48.090  43.354  0.00  0.00    -0.491 OA
ATOM     29  C   UNL     1      87.185  47.177  42.491  0.00  0.00    +0.079 C 
ENDBRANCH  13  28
BRANCH  11  30
ATOM     30  O   UNL     1      86.496  49.322  46.387  0.00  0.00    -0.387 OA
ATOM     31  H   UNL     1      86.659  50.232  46.680  0.00  0.00    +0.000 HD
ENDBRANCH  11  30
TORSDOF 5
ENDMDL
MODEL 7
REMARK VINA RESULT:    -8.167      2.804      5.527
REMARK INTER + INTRA:         -10.300
REMARK INTER:                 -10.466
REMARK INTRA:                   0.167
REMARK UNBOUND:                 0.016
REMARK  Name = 
REMARK  8 active torsions:
REMARK  status: ('A' for Active; 'I' for Inactive)
REMARK    1  A    between atoms: C_1  and  O_2
REMARK    2  A    between atoms: O_2  and  C_3
REMARK    3  A    between atoms: C_6  and  C_7
REMARK    4  A    between atoms: C_22  and  O_30
REMARK    5  A    between atoms: C_24  and  O_28
REMARK    6  A    between atoms: C_25  and  O_26
REMARK    7  A    between atoms: O_26  and  C_27
REMARK    8  A    between atoms: O_28  and  C_29
REMARK                            x       y       z     vdW  Elec       q    Type
REMARK                         _______ _______ _______ _____ _____    ______ ____
ROOT
ATOM      1  C   UNL     1      85.457  52.889  42.274  0.00  0.00    +0.165 A 
ATOM      2  C   UNL     1      86.083  52.253  43.357  0.00  0.00    -0.012 A 
ATOM      3  C   UNL     1      87.301  51.574  43.192  0.00  0.00    -0.026 A 
ATOM      4  C   UNL     1      88.012  50.839  44.322  0.00  0.00    +0.023 C 
ATOM      5  C   UNL     1      88.195  49.361  43.880  0.00  0.00    +0.076 C 
ATOM      6  C   UNL     1      86.915  48.670  43.534  0.00  0.00    +0.312 C 
ATOM      7  O   UNL     1      85.873  48.676  44.244  0.00  0.00    -0.250 OA
ATOM      8  O   UNL     1      86.964  48.024  42.321  0.00  0.00    -0.464 OA
ATOM      9  C   UNL     1      88.238  48.153  41.720  0.00  0.00    +0.099 C 
ATOM     10  C   UNL     1      88.984  49.244  42.533  0.00  0.00    +0.037 C 
ATOM     11  C   UNL     1      89.096  50.583  41.729  0.00  0.00    +0.091 C 
ATOM     12  C   UNL     1      87.850  51.446  41.903  0.00  0.00    +0.031 A 
ATOM     13  C   UNL     1      87.270  52.127  40.812  0.00  0.00    +0.171 A 
ATOM     14  C   UNL     1      86.047  52.825  40.987  0.00  0.00    +0.204 A 
ENDROOT
BRANCH   4  15
ATOM     15  C   UNL     1      87.468  51.083  45.730  0.00  0.00    -0.035 A 
ATOM     16  C   UNL     1      87.790  50.142  46.748  0.00  0.00    -0.054 A 
ATOM     17  C   UNL     1      87.301  50.287  48.057  0.00  0.00    -0.016 A 
ATOM     18  C   UNL     1      86.468  51.365  48.320  0.00  0.00    +0.166 A 
ATOM     19  C   UNL     1      86.112  52.247  47.355  0.00  0.00    +0.167 A 
ATOM     20  C   UNL     1      86.571  52.137  46.046  0.00  0.00    -0.012 A 
ATOM     21  O   UNL     1      85.260  53.193  47.891  0.00  0.00    -0.453 OA
ATOM     22  C   UNL     1      85.076  52.890  49.280  0.00  0.00    +0.233 C 
ATOM     23  O   UNL     1      85.867  51.717  49.513  0.00  0.00    -0.453 OA
ENDBRANCH   4  15
BRANCH   1  25
ATOM     24  C   UNL     1      82.957  53.018  42.423  0.00  0.00    +0.079 C 
ATOM     25  O   UNL     1      84.255  53.594  42.453  0.00  0.00    -0.491 OA
ENDBRANCH   1  25
BRANCH  14  26
ATOM     26  O   UNL     1      85.445  53.412  39.860  0.00  0.00    -0.488 OA
ATOM     27  C   UNL     1      84.919  54.729  39.779  0.00  0.00    +0.079 C 
ENDBRANCH  14  26
BRANCH  13  28
ATOM     28  O   UNL     1      87.928  52.053  39.570  0.00  0.00    -0.491 OA
ATOM     29  C   UNL     1      88.944  52.950  39.116  0.00  0.00    +0.079 C 
ENDBRANCH  13  28
BRANCH  11  30
ATOM     30  O   UNL     1      90.226  51.293  42.165  0.00  0.00    -0.387 OA
ATOM     31  H   UNL     1      90.227  51.336  43.135  0.00  0.00    +0.000 HD
ENDBRANCH  11  30
TORSDOF 5
ENDMDL
MODEL 8
REMARK VINA RESULT:    -7.653      2.237      6.847
REMARK INTER + INTRA:          -9.651
REMARK INTER:                  -9.667
REMARK INTRA:                   0.016
REMARK UNBOUND:                 0.016
REMARK  Name = 
REMARK  8 active torsions:
REMARK  status: ('A' for Active; 'I' for Inactive)
REMARK    1  A    between atoms: C_1  and  O_2
REMARK    2  A    between atoms: O_2  and  C_3
REMARK    3  A    between atoms: C_6  and  C_7
REMARK    4  A    between atoms: C_22  and  O_30
REMARK    5  A    between atoms: C_24  and  O_28
REMARK    6  A    between atoms: C_25  and  O_26
REMARK    7  A    between atoms: O_26  and  C_27
REMARK    8  A    between atoms: O_28  and  C_29
REMARK                            x       y       z     vdW  Elec       q    Type
REMARK                         _______ _______ _______ _____ _____    ______ ____
ROOT
ATOM      1  C   UNL     1      83.065  51.343  42.622  0.00  0.00    +0.165 A 
ATOM      2  C   UNL     1      84.153  50.523  42.957  0.00  0.00    -0.012 A 
ATOM      3  C   UNL     1      85.308  51.059  43.549  0.00  0.00    -0.026 A 
ATOM      4  C   UNL     1      86.533  50.226  43.905  0.00  0.00    +0.023 C 
ATOM      5  C   UNL     1      87.752  50.840  43.165  0.00  0.00    +0.076 C 
ATOM      6  C   UNL     1      87.585  50.911  41.681  0.00  0.00    +0.312 C 
ATOM      7  O   UNL     1      87.199  49.961  40.949  0.00  0.00    -0.250 OA
ATOM      8  O   UNL     1      87.878  52.152  41.167  0.00  0.00    -0.464 OA
ATOM      9  C   UNL     1      88.296  53.045  42.181  0.00  0.00    +0.099 C 
ATOM     10  C   UNL     1      87.960  52.350  43.527  0.00  0.00    +0.037 C 
ATOM     11  C   UNL     1      86.732  53.022  44.229  0.00  0.00    +0.091 C 
ATOM     12  C   UNL     1      85.413  52.452  43.717  0.00  0.00    +0.031 A 
ATOM     13  C   UNL     1      84.310  53.288  43.444  0.00  0.00    +0.171 A 
ATOM     14  C   UNL     1      83.138  52.738  42.860  0.00  0.00    +0.204 A 
ENDROOT
BRANCH   4  15
ATOM     15  C   UNL     1      86.360  48.708  43.825  0.00  0.00    -0.035 A 
ATOM     16  C   UNL     1      87.279  47.969  43.028  0.00  0.00    -0.054 A 
ATOM     17  C   UNL     1      87.162  46.576  42.885  0.00  0.00    -0.016 A 
ATOM     18  C   UNL     1      86.104  45.946  43.524  0.00  0.00    +0.166 A 
ATOM     19  C   UNL     1      85.192  46.637  44.249  0.00  0.00    +0.167 A 
ATOM     20  C   UNL     1      85.268  48.017  44.413  0.00  0.00    -0.012 A 
ATOM     21  O   UNL     1      84.242  45.765  44.744  0.00  0.00    -0.453 OA
ATOM     22  C   UNL     1      84.583  44.442  44.307  0.00  0.00    +0.233 C 
ATOM     23  O   UNL     1      85.780  44.604  43.533  0.00  0.00    -0.453 OA
ENDBRANCH   4  15
BRANCH   1  25
ATOM     24  C   UNL     1      80.760  50.371  42.794  0.00  0.00    +0.079 C 
ATOM     25  O   UNL     1      81.899  50.795  42.060  0.00  0.00    -0.491 OA
ENDBRANCH   1  25
BRANCH  14  26
ATOM     26  O   UNL     1      82.093  53.612  42.511  0.00  0.00    -0.488 OA
ATOM     27  C   UNL     1      81.855  54.162  41.223  0.00  0.00    +0.079 C 
ENDBRANCH  14  26
BRANCH  13  28
ATOM     28  O   UNL     1      84.436  54.658  43.739  0.00  0.00    -0.491 OA
ATOM     29  C   UNL     1      84.844  55.670  42.816  0.00  0.00    +0.079 C 
ENDBRANCH  13  28
BRANCH  11  30
ATOM     30  O   UNL     1      86.826  52.824  45.616  0.00  0.00    -0.387 OA
ATOM     31  H   UNL     1      87.084  51.906  45.795  0.00  0.00    +0.000 HD
ENDBRANCH  11  30
TORSDOF 5
ENDMDL
MODEL 9
REMARK VINA RESULT:    -7.628      1.994      7.150
REMARK INTER + INTRA:          -9.619
REMARK INTER:                  -9.790
REMARK INTRA:                   0.171
REMARK UNBOUND:                 0.016
REMARK  Name = 
REMARK  8 active torsions:
REMARK  status: ('A' for Active; 'I' for Inactive)
REMARK    1  A    between atoms: C_1  and  O_2
REMARK    2  A    between atoms: O_2  and  C_3
REMARK    3  A    between atoms: C_6  and  C_7
REMARK    4  A    between atoms: C_22  and  O_30
REMARK    5  A    between atoms: C_24  and  O_28
REMARK    6  A    between atoms: C_25  and  O_26
REMARK    7  A    between atoms: O_26  and  C_27
REMARK    8  A    between atoms: O_28  and  C_29
REMARK                            x       y       z     vdW  Elec       q    Type
REMARK                         _______ _______ _______ _____ _____    ______ ____
ROOT
ATOM      1  C   UNL     1      86.169  52.102  46.785  0.00  0.00    +0.165 A 
ATOM      2  C   UNL     1      86.228  51.410  45.565  0.00  0.00    -0.012 A 
ATOM      3  C   UNL     1      86.311  52.100  44.346  0.00  0.00    -0.026 A 
ATOM      4  C   UNL     1      86.345  51.406  42.989  0.00  0.00    +0.023 C 
ATOM      5  C   UNL     1      85.156  51.950  42.152  0.00  0.00    +0.076 C 
ATOM      6  C   UNL     1      83.822  51.760  42.800  0.00  0.00    +0.312 C 
ATOM      7  O   UNL     1      83.406  50.680  43.299  0.00  0.00    -0.250 OA
ATOM      8  O   UNL     1      83.069  52.910  42.826  0.00  0.00    -0.464 OA
ATOM      9  C   UNL     1      83.744  53.983  42.198  0.00  0.00    +0.099 C 
ATOM     10  C   UNL     1      85.208  53.508  42.001  0.00  0.00    +0.037 C 
ATOM     11  C   UNL     1      86.182  54.223  42.996  0.00  0.00    +0.091 C 
ATOM     12  C   UNL     1      86.234  53.505  44.341  0.00  0.00    +0.031 A 
ATOM     13  C   UNL     1      86.236  54.222  45.557  0.00  0.00    +0.171 A 
ATOM     14  C   UNL     1      86.167  53.519  46.788  0.00  0.00    +0.204 A 
ENDROOT
BRANCH   4  15
ATOM     15  C   UNL     1      86.544  49.890  43.015  0.00  0.00    -0.035 A 
ATOM     16  C   UNL     1      85.896  49.144  44.040  0.00  0.00    -0.054 A 
ATOM     17  C   UNL     1      86.058  47.752  44.142  0.00  0.00    -0.016 A 
ATOM     18  C   UNL     1      86.895  47.130  43.227  0.00  0.00    +0.166 A 
ATOM     19  C   UNL     1      87.557  47.827  42.272  0.00  0.00    +0.167 A 
ATOM     20  C   UNL     1      87.427  49.206  42.139  0.00  0.00    -0.012 A 
ATOM     21  O   UNL     1      88.333  46.961  41.527  0.00  0.00    -0.453 OA
ATOM     22  C   UNL     1      88.140  45.636  42.041  0.00  0.00    +0.233 C 
ATOM     23  O   UNL     1      87.213  45.790  43.124  0.00  0.00    -0.453 OA
ENDBRANCH   4  15
BRANCH   1  25
ATOM     24  C   UNL     1      87.065  50.436  48.430  0.00  0.00    +0.079 C 
ATOM     25  O   UNL     1      86.119  51.405  48.004  0.00  0.00    -0.491 OA
ENDBRANCH   1  25
BRANCH  14  26
ATOM     26  O   UNL     1      86.073  54.264  47.977  0.00  0.00    -0.488 OA
ATOM     27  C   UNL     1      84.884  54.531  48.707  0.00  0.00    +0.079 C 
ENDBRANCH  14  26
BRANCH  13  28
ATOM     28  O   UNL     1      86.273  55.627  45.488  0.00  0.00    -0.491 OA
ATOM     29  C   UNL     1      85.133  56.488  45.521  0.00  0.00    +0.079 C 
ENDBRANCH  13  28
BRANCH  11  30
ATOM     30  O   UNL     1      87.468  54.268  42.435  0.00  0.00    -0.387 OA
ATOM     31  H   UNL     1      88.131  54.190  43.138  0.00  0.00    +0.000 HD
ENDBRANCH  11  30
TORSDOF 5
ENDMDL
