MODEL 1
REMARK VINA RESULT:    -9.450      0.000      0.000
REMARK INTER + INTRA:         -13.377
REMARK INTER:                 -11.844
REMARK INTRA:                  -1.532
REMARK UNBOUND:                -1.164
REMARK  Name = 
REMARK  12 active torsions:
REMARK  status: ('A' for Active; 'I' for Inactive)
REMARK    1  A    between atoms: C_1  and  O_2
REMARK    2  A    between atoms: O_2  and  C_3
REMARK    3  A    between atoms: C_5  and  O_6
REMARK    4  A    between atoms: O_6  and  C_7
REMARK    5  A    between atoms: C_10  and  C_11
REMARK    6  A    between atoms: C_12  and  C_13
REMARK    7  A    between atoms: C_15  and  O_24
REMARK    8  A    between atoms: C_21  and  O_22
REMARK    9  A    between atoms: O_22  and  C_23
REMARK   10  A    between atoms: O_24  and  C_25
REMARK   11  A    between atoms: C_27  and  C_31
REMARK   12  A    between atoms: C_29  and  C_30
REMARK                            x       y       z     vdW  Elec       q    Type
REMARK                         _______ _______ _______ _____ _____    ______ ____
ROOT
ATOM      1  C   UNL     1      86.117  53.486  43.819  0.00  0.00    +0.132 A 
ATOM      2  C   UNL     1      86.260  54.881  43.873  0.00  0.00    +0.023 A 
ATOM      3  C   UNL     1      85.743  55.624  44.949  0.00  0.00    +0.133 A 
ATOM      4  C   UNL     1      85.056  54.955  45.989  0.00  0.00    +0.041 A 
ATOM      5  C   UNL     1      84.958  53.543  45.967  0.00  0.00    -0.022 A 
ATOM      6  C   UNL     1      85.463  52.817  44.864  0.00  0.00    +0.029 A 
ATOM      7  C   UNL     1      84.238  52.843  47.104  0.00  0.00    -0.004 C 
ATOM      8  C   UNL     1      84.460  53.611  48.415  0.00  0.00    +0.052 C 
ATOM      9  N   UNL     1      84.132  55.023  48.227  0.00  0.00    -0.284 NA
ATOM     10  C   UNL     1      84.428  55.679  47.143  0.00  0.00    +0.044 C 
ATOM     11  C   UNL     1      84.035  57.125  47.070  0.00  0.00    -0.022 C 
ATOM     12  C   UNL     1      83.611  53.033  49.546  0.00  0.00    -0.042 C 
ENDROOT
BRANCH   6  13
ATOM     13  C   UNL     1      85.315  51.339  44.788  0.00  0.00    -0.003 A 
ATOM     14  C   UNL     1      86.337  50.517  45.302  0.00  0.00    -0.039 A 
ATOM     15  C   UNL     1      87.572  51.112  45.932  0.00  0.00    -0.039 C 
ATOM     16  C   UNL     1      86.207  49.127  45.238  0.00  0.00    -0.016 A 
ATOM     17  C   UNL     1      85.075  48.522  44.668  0.00  0.00    +0.132 A 
ATOM     18  C   UNL     1      84.034  49.332  44.144  0.00  0.00    +0.066 A 
ATOM     19  C   UNL     1      84.160  50.752  44.210  0.00  0.00    -0.003 A 
ATOM     20  C   UNL     1      83.127  51.560  43.689  0.00  0.00    -0.053 A 
ATOM     21  C   UNL     1      81.997  50.989  43.118  0.00  0.00    -0.058 A 
ATOM     22  C   UNL     1      81.865  49.609  43.051  0.00  0.00    -0.019 A 
ATOM     23  C   UNL     1      82.870  48.763  43.557  0.00  0.00    +0.131 A 
BRANCH  23  24
ATOM     24  O   UNL     1      82.729  47.366  43.484  0.00  0.00    -0.494 OA
ATOM     25  C   UNL     1      81.581  46.635  43.903  0.00  0.00    +0.079 C 
ENDBRANCH  23  24
BRANCH  17  26
ATOM     26  O   UNL     1      84.966  47.121  44.611  0.00  0.00    -0.494 OA
ATOM     27  C   UNL     1      85.927  46.244  44.030  0.00  0.00    +0.079 C 
ENDBRANCH  17  26
ENDBRANCH   6  13
BRANCH   1  29
ATOM     28  C   UNL     1      87.998  52.578  42.431  0.00  0.00    +0.079 C 
ATOM     29  O   UNL     1      86.616  52.729  42.745  0.00  0.00    -0.494 OA
ENDBRANCH   1  29
BRANCH   3  30
ATOM     30  O   UNL     1      85.919  57.017  45.016  0.00  0.00    -0.494 OA
ATOM     31  C   UNL     1      85.676  57.925  43.946  0.00  0.00    +0.079 C 
ENDBRANCH   3  30
TORSDOF 5
ENDMDL
MODEL 2
REMARK VINA RESULT:    -9.338      2.679      7.085
REMARK INTER + INTRA:         -13.232
REMARK INTER:                 -11.657
REMARK INTRA:                  -1.575
REMARK UNBOUND:                -1.164
REMARK  Name = 
REMARK  12 active torsions:
REMARK  status: ('A' for Active; 'I' for Inactive)
REMARK    1  A    between atoms: C_1  and  O_2
REMARK    2  A    between atoms: O_2  and  C_3
REMARK    3  A    between atoms: C_5  and  O_6
REMARK    4  A    between atoms: O_6  and  C_7
REMARK    5  A    between atoms: C_10  and  C_11
REMARK    6  A    between atoms: C_12  and  C_13
REMARK    7  A    between atoms: C_15  and  O_24
REMARK    8  A    between atoms: C_21  and  O_22
REMARK    9  A    between atoms: O_22  and  C_23
REMARK   10  A    between atoms: O_24  and  C_25
REMARK   11  A    between atoms: C_27  and  C_31
REMARK   12  A    between atoms: C_29  and  C_30
REMARK                            x       y       z     vdW  Elec       q    Type
REMARK                         _______ _______ _______ _____ _____    ______ ____
ROOT
ATOM      1  C   UNL     1      87.788  49.185  43.355  0.00  0.00    +0.132 A 
ATOM      2  C   UNL     1      87.857  47.852  42.923  0.00  0.00    +0.023 A 
ATOM      3  C   UNL     1      86.748  46.995  43.027  0.00  0.00    +0.133 A 
ATOM      4  C   UNL     1      85.544  47.481  43.587  0.00  0.00    +0.041 A 
ATOM      5  C   UNL     1      85.452  48.840  43.974  0.00  0.00    -0.022 A 
ATOM      6  C   UNL     1      86.586  49.678  43.884  0.00  0.00    +0.029 A 
ATOM      7  C   UNL     1      84.144  49.348  44.551  0.00  0.00    -0.004 C 
ATOM      8  C   UNL     1      82.964  48.619  43.893  0.00  0.00    +0.052 C 
ATOM      9  N   UNL     1      83.170  47.174  43.959  0.00  0.00    -0.284 NA
ATOM     10  C   UNL     1      84.334  46.617  43.784  0.00  0.00    +0.044 C 
ATOM     11  C   UNL     1      84.416  45.123  43.880  0.00  0.00    -0.022 C 
ATOM     12  C   UNL     1      81.643  48.981  44.570  0.00  0.00    -0.042 C 
ENDROOT
BRANCH   6  13
ATOM     13  C   UNL     1      86.532  51.092  44.343  0.00  0.00    -0.003 A 
ATOM     14  C   UNL     1      86.911  51.402  45.665  0.00  0.00    -0.039 A 
ATOM     15  C   UNL     1      87.375  50.326  46.615  0.00  0.00    -0.039 C 
ATOM     16  C   UNL     1      86.867  52.727  46.105  0.00  0.00    -0.016 A 
ATOM     17  C   UNL     1      86.449  53.768  45.259  0.00  0.00    +0.132 A 
ATOM     18  C   UNL     1      86.063  53.477  43.925  0.00  0.00    +0.066 A 
ATOM     19  C   UNL     1      86.110  52.126  43.468  0.00  0.00    -0.003 A 
ATOM     20  C   UNL     1      85.726  51.834  42.142  0.00  0.00    -0.053 A 
ATOM     21  C   UNL     1      85.307  52.842  41.284  0.00  0.00    -0.058 A 
ATOM     22  C   UNL     1      85.260  54.159  41.719  0.00  0.00    -0.019 A 
ATOM     23  C   UNL     1      85.633  54.498  43.033  0.00  0.00    +0.131 A 
BRANCH  23  24
ATOM     24  O   UNL     1      85.581  55.835  43.466  0.00  0.00    -0.494 OA
ATOM     25  C   UNL     1      84.500  56.732  43.231  0.00  0.00    +0.079 C 
ENDBRANCH  23  24
BRANCH  17  26
ATOM     26  O   UNL     1      86.409  55.095  45.725  0.00  0.00    -0.494 OA
ATOM     27  C   UNL     1      86.064  55.492  47.050  0.00  0.00    +0.079 C 
ENDBRANCH  17  26
ENDBRANCH   6  13
BRANCH   1  29
ATOM     28  C   UNL     1      89.461  50.526  42.054  0.00  0.00    +0.079 C 
ATOM     29  O   UNL     1      88.892  50.051  43.271  0.00  0.00    -0.494 OA
ENDBRANCH   1  29
BRANCH   3  30
ATOM     30  O   UNL     1      86.812  45.670  42.561  0.00  0.00    -0.494 OA
ATOM     31  C   UNL     1      87.973  44.847  42.591  0.00  0.00    +0.079 C 
ENDBRANCH   3  30
TORSDOF 5
ENDMDL
MODEL 3
REMARK VINA RESULT:    -9.025      2.905      7.662
REMARK INTER + INTRA:         -12.827
REMARK INTER:                 -11.292
REMARK INTRA:                  -1.535
REMARK UNBOUND:                -1.164
REMARK  Name = 
REMARK  12 active torsions:
REMARK  status: ('A' for Active; 'I' for Inactive)
REMARK    1  A    between atoms: C_1  and  O_2
REMARK    2  A    between atoms: O_2  and  C_3
REMARK    3  A    between atoms: C_5  and  O_6
REMARK    4  A    between atoms: O_6  and  C_7
REMARK    5  A    between atoms: C_10  and  C_11
REMARK    6  A    between atoms: C_12  and  C_13
REMARK    7  A    between atoms: C_15  and  O_24
REMARK    8  A    between atoms: C_21  and  O_22
REMARK    9  A    between atoms: O_22  and  C_23
REMARK   10  A    between atoms: O_24  and  C_25
REMARK   11  A    between atoms: C_27  and  C_31
REMARK   12  A    between atoms: C_29  and  C_30
REMARK                            x       y       z     vdW  Elec       q    Type
REMARK                         _______ _______ _______ _____ _____    ______ ____
ROOT
ATOM      1  C   UNL     1      85.034  48.892  44.330  0.00  0.00    +0.132 A 
ATOM      2  C   UNL     1      84.932  47.536  43.986  0.00  0.00    +0.023 A 
ATOM      3  C   UNL     1      86.024  46.841  43.438  0.00  0.00    +0.133 A 
ATOM      4  C   UNL     1      87.243  47.523  43.218  0.00  0.00    +0.041 A 
ATOM      5  C   UNL     1      87.368  48.877  43.614  0.00  0.00    -0.022 A 
ATOM      6  C   UNL     1      86.251  49.564  44.141  0.00  0.00    +0.029 A 
ATOM      7  C   UNL     1      88.691  49.584  43.392  0.00  0.00    -0.004 C 
ATOM      8  C   UNL     1      89.850  48.589  43.555  0.00  0.00    +0.052 C 
ATOM      9  N   UNL     1      89.613  47.407  42.730  0.00  0.00    -0.284 NA
ATOM     10  C   UNL     1      88.436  46.869  42.587  0.00  0.00    +0.044 C 
ATOM     11  C   UNL     1      88.322  45.658  41.709  0.00  0.00    -0.022 C 
ATOM     12  C   UNL     1      91.184  49.226  43.170  0.00  0.00    -0.042 C 
ENDROOT
BRANCH   6  13
ATOM     13  C   UNL     1      86.340  51.004  44.506  0.00  0.00    -0.003 A 
ATOM     14  C   UNL     1      86.799  51.362  45.788  0.00  0.00    -0.039 A 
ATOM     15  C   UNL     1      87.207  50.312  46.791  0.00  0.00    -0.039 C 
ATOM     16  C   UNL     1      86.889  52.712  46.140  0.00  0.00    -0.016 A 
ATOM     17  C   UNL     1      86.529  53.730  45.241  0.00  0.00    +0.132 A 
ATOM     18  C   UNL     1      86.064  53.389  43.945  0.00  0.00    +0.066 A 
ATOM     19  C   UNL     1      85.973  52.013  43.578  0.00  0.00    -0.003 A 
ATOM     20  C   UNL     1      85.510  51.672  42.290  0.00  0.00    -0.053 A 
ATOM     21  C   UNL     1      85.145  52.657  41.381  0.00  0.00    -0.058 A 
ATOM     22  C   UNL     1      85.231  53.998  41.728  0.00  0.00    -0.019 A 
ATOM     23  C   UNL     1      85.687  54.386  43.002  0.00  0.00    +0.131 A 
BRANCH  23  24
ATOM     24  O   UNL     1      85.770  55.747  43.345  0.00  0.00    -0.494 OA
ATOM     25  C   UNL     1      84.706  56.687  43.235  0.00  0.00    +0.079 C 
ENDBRANCH  23  24
BRANCH  17  26
ATOM     26  O   UNL     1      86.625  55.082  45.617  0.00  0.00    -0.494 OA
ATOM     27  C   UNL     1      86.174  55.625  46.855  0.00  0.00    +0.079 C 
ENDBRANCH  17  26
ENDBRANCH   6  13
BRANCH   1  29
ATOM     28  C   UNL     1      82.657  49.689  44.272  0.00  0.00    +0.079 C 
ATOM     29  O   UNL     1      83.948  49.606  44.868  0.00  0.00    -0.494 OA
ENDBRANCH   1  29
BRANCH   3  30
ATOM     30  O   UNL     1      85.927  45.474  43.127  0.00  0.00    -0.494 OA
ATOM     31  C   UNL     1      85.771  44.426  44.079  0.00  0.00    +0.079 C 
ENDBRANCH   3  30
TORSDOF 5
ENDMDL
MODEL 4
REMARK VINA RESULT:    -9.000      2.490      4.652
REMARK INTER + INTRA:         -12.794
REMARK INTER:                 -11.309
REMARK INTRA:                  -1.486
REMARK UNBOUND:                -1.164
REMARK  Name = 
REMARK  12 active torsions:
REMARK  status: ('A' for Active; 'I' for Inactive)
REMARK    1  A    between atoms: C_1  and  O_2
REMARK    2  A    between atoms: O_2  and  C_3
REMARK    3  A    between atoms: C_5  and  O_6
REMARK    4  A    between atoms: O_6  and  C_7
REMARK    5  A    between atoms: C_10  and  C_11
REMARK    6  A    between atoms: C_12  and  C_13
REMARK    7  A    between atoms: C_15  and  O_24
REMARK    8  A    between atoms: C_21  and  O_22
REMARK    9  A    between atoms: O_22  and  C_23
REMARK   10  A    between atoms: O_24  and  C_25
REMARK   11  A    between atoms: C_27  and  C_31
REMARK   12  A    between atoms: C_29  and  C_30
REMARK                            x       y       z     vdW  Elec       q    Type
REMARK                         _______ _______ _______ _____ _____    ______ ____
ROOT
ATOM      1  C   UNL     1      86.411  51.470  46.257  0.00  0.00    +0.132 A 
ATOM      2  C   UNL     1      86.559  52.744  46.826  0.00  0.00    +0.023 A 
ATOM      3  C   UNL     1      86.472  53.907  46.040  0.00  0.00    +0.133 A 
ATOM      4  C   UNL     1      86.243  53.790  44.649  0.00  0.00    +0.041 A 
ATOM      5  C   UNL     1      86.037  52.510  44.080  0.00  0.00    -0.022 A 
ATOM      6  C   UNL     1      86.154  51.353  44.883  0.00  0.00    +0.029 A 
ATOM      7  C   UNL     1      85.770  52.408  42.590  0.00  0.00    -0.004 C 
ATOM      8  C   UNL     1      84.976  53.634  42.116  0.00  0.00    +0.052 C 
ATOM      9  N   UNL     1      85.636  54.859  42.562  0.00  0.00    -0.284 NA
ATOM     10  C   UNL     1      86.192  54.976  43.733  0.00  0.00    +0.044 C 
ATOM     11  C   UNL     1      86.841  56.285  44.071  0.00  0.00    -0.022 C 
ATOM     12  C   UNL     1      84.837  53.649  40.595  0.00  0.00    -0.042 C 
ENDROOT
BRANCH   6  13
ATOM     13  C   UNL     1      86.006  49.994  44.295  0.00  0.00    -0.003 A 
ATOM     14  C   UNL     1      84.726  49.408  44.229  0.00  0.00    -0.039 A 
ATOM     15  C   UNL     1      83.508  50.138  44.739  0.00  0.00    -0.039 C 
ATOM     16  C   UNL     1      84.575  48.134  43.676  0.00  0.00    -0.016 A 
ATOM     17  C   UNL     1      85.675  47.414  43.180  0.00  0.00    +0.132 A 
ATOM     18  C   UNL     1      86.972  47.987  43.238  0.00  0.00    +0.066 A 
ATOM     19  C   UNL     1      87.132  49.290  43.798  0.00  0.00    -0.003 A 
ATOM     20  C   UNL     1      88.421  49.861  43.857  0.00  0.00    -0.053 A 
ATOM     21  C   UNL     1      89.527  49.172  43.376  0.00  0.00    -0.058 A 
ATOM     22  C   UNL     1      89.381  47.905  42.828  0.00  0.00    -0.019 A 
ATOM     23  C   UNL     1      88.116  47.295  42.749  0.00  0.00    +0.131 A 
BRANCH  23  24
ATOM     24  O   UNL     1      87.977  46.011  42.193  0.00  0.00    -0.494 OA
ATOM     25  C   UNL     1      88.574  44.825  42.708  0.00  0.00    +0.079 C 
ENDBRANCH  23  24
BRANCH  17  26
ATOM     26  O   UNL     1      85.501  46.131  42.630  0.00  0.00    -0.494 OA
ATOM     27  C   UNL     1      84.633  45.126  43.147  0.00  0.00    +0.079 C 
ENDBRANCH  17  26
ENDBRANCH   6  13
BRANCH   1  29
ATOM     28  C   UNL     1      87.533  50.035  47.980  0.00  0.00    +0.079 C 
ATOM     29  O   UNL     1      86.508  50.297  47.026  0.00  0.00    -0.494 OA
ENDBRANCH   1  29
BRANCH   3  30
ATOM     30  O   UNL     1      86.587  55.181  46.621  0.00  0.00    -0.494 OA
ATOM     31  C   UNL     1      85.591  55.808  47.423  0.00  0.00    +0.079 C 
ENDBRANCH   3  30
TORSDOF 5
ENDMDL
MODEL 5
REMARK VINA RESULT:    -8.974      2.416      7.117
REMARK INTER + INTRA:         -12.762
REMARK INTER:                 -11.262
REMARK INTRA:                  -1.500
REMARK UNBOUND:                -1.164
REMARK  Name = 
REMARK  12 active torsions:
REMARK  status: ('A' for Active; 'I' for Inactive)
REMARK    1  A    between atoms: C_1  and  O_2
REMARK    2  A    between atoms: O_2  and  C_3
REMARK    3  A    between atoms: C_5  and  O_6
REMARK    4  A    between atoms: O_6  and  C_7
REMARK    5  A    between atoms: C_10  and  C_11
REMARK    6  A    between atoms: C_12  and  C_13
REMARK    7  A    between atoms: C_15  and  O_24
REMARK    8  A    between atoms: C_21  and  O_22
REMARK    9  A    between atoms: O_22  and  C_23
REMARK   10  A    between atoms: O_24  and  C_25
REMARK   11  A    between atoms: C_27  and  C_31
REMARK   12  A    between atoms: C_29  and  C_30
REMARK                            x       y       z     vdW  Elec       q    Type
REMARK                         _______ _______ _______ _____ _____    ______ ____
ROOT
ATOM      1  C   UNL     1      87.354  50.312  43.404  0.00  0.00    +0.132 A 
ATOM      2  C   UNL     1      87.800  49.017  43.102  0.00  0.00    +0.023 A 
ATOM      3  C   UNL     1      86.953  47.904  43.242  0.00  0.00    +0.133 A 
ATOM      4  C   UNL     1      85.631  48.091  43.707  0.00  0.00    +0.041 A 
ATOM      5  C   UNL     1      85.158  49.402  43.960  0.00  0.00    -0.022 A 
ATOM      6  C   UNL     1      86.034  50.504  43.837  0.00  0.00    +0.029 A 
ATOM      7  C   UNL     1      83.729  49.584  44.436  0.00  0.00    -0.004 C 
ATOM      8  C   UNL     1      82.828  48.513  43.804  0.00  0.00    +0.052 C 
ATOM      9  N   UNL     1      83.404  47.187  44.014  0.00  0.00    -0.284 NA
ATOM     10  C   UNL     1      84.682  46.952  43.937  0.00  0.00    +0.044 C 
ATOM     11  C   UNL     1      85.151  45.548  44.177  0.00  0.00    -0.022 C 
ATOM     12  C   UNL     1      81.418  48.560  44.392  0.00  0.00    -0.042 C 
ENDROOT
BRANCH   6  13
ATOM     13  C   UNL     1      85.579  51.884  44.158  0.00  0.00    -0.003 A 
ATOM     14  C   UNL     1      85.093  52.707  43.124  0.00  0.00    -0.039 A 
ATOM     15  C   UNL     1      85.022  52.211  41.701  0.00  0.00    -0.039 C 
ATOM     16  C   UNL     1      84.660  54.004  43.415  0.00  0.00    -0.016 A 
ATOM     17  C   UNL     1      84.698  54.513  44.724  0.00  0.00    +0.132 A 
ATOM     18  C   UNL     1      85.184  53.699  45.780  0.00  0.00    +0.066 A 
ATOM     19  C   UNL     1      85.623  52.372  45.489  0.00  0.00    -0.003 A 
ATOM     20  C   UNL     1      86.108  51.562  46.538  0.00  0.00    -0.053 A 
ATOM     21  C   UNL     1      86.159  52.039  47.841  0.00  0.00    -0.058 A 
ATOM     22  C   UNL     1      85.732  53.327  48.134  0.00  0.00    -0.019 A 
ATOM     23  C   UNL     1      85.242  54.172  47.121  0.00  0.00    +0.131 A 
BRANCH  23  24
ATOM     24  O   UNL     1      84.811  55.476  47.427  0.00  0.00    -0.494 OA
ATOM     25  C   UNL     1      83.783  55.803  48.356  0.00  0.00    +0.079 C 
ENDBRANCH  23  24
BRANCH  17  26
ATOM     26  O   UNL     1      84.260  55.821  44.995  0.00  0.00    -0.494 OA
ATOM     27  C   UNL     1      84.602  56.977  44.235  0.00  0.00    +0.079 C 
ENDBRANCH  17  26
ENDBRANCH   6  13
BRANCH   1  29
ATOM     28  C   UNL     1      88.707  51.932  42.050  0.00  0.00    +0.079 C 
ATOM     29  O   UNL     1      88.192  51.434  43.281  0.00  0.00    -0.494 OA
ENDBRANCH   1  29
BRANCH   3  30
ATOM     30  O   UNL     1      87.395  46.612  42.906  0.00  0.00    -0.494 OA
ATOM     31  C   UNL     1      88.718  46.279  42.500  0.00  0.00    +0.079 C 
ENDBRANCH   3  30
TORSDOF 5
ENDMDL
MODEL 6
REMARK VINA RESULT:    -8.839      1.729      7.190
REMARK INTER + INTRA:         -12.586
REMARK INTER:                 -11.200
REMARK INTRA:                  -1.386
REMARK UNBOUND:                -1.164
REMARK  Name = 
REMARK  12 active torsions:
REMARK  status: ('A' for Active; 'I' for Inactive)
REMARK    1  A    between atoms: C_1  and  O_2
REMARK    2  A    between atoms: O_2  and  C_3
REMARK    3  A    between atoms: C_5  and  O_6
REMARK    4  A    between atoms: O_6  and  C_7
REMARK    5  A    between atoms: C_10  and  C_11
REMARK    6  A    between atoms: C_12  and  C_13
REMARK    7  A    between atoms: C_15  and  O_24
REMARK    8  A    between atoms: C_21  and  O_22
REMARK    9  A    between atoms: O_22  and  C_23
REMARK   10  A    between atoms: O_24  and  C_25
REMARK   11  A    between atoms: C_27  and  C_31
REMARK   12  A    between atoms: C_29  and  C_30
REMARK                            x       y       z     vdW  Elec       q    Type
REMARK                         _______ _______ _______ _____ _____    ______ ____
ROOT
ATOM      1  C   UNL     1      86.298  50.495  45.301  0.00  0.00    +0.132 A 
ATOM      2  C   UNL     1      86.090  49.109  45.234  0.00  0.00    +0.023 A 
ATOM      3  C   UNL     1      84.922  48.575  44.663  0.00  0.00    +0.133 A 
ATOM      4  C   UNL     1      83.932  49.451  44.159  0.00  0.00    +0.041 A 
ATOM      5  C   UNL     1      84.161  50.848  44.174  0.00  0.00    -0.022 A 
ATOM      6  C   UNL     1      85.332  51.365  44.774  0.00  0.00    +0.029 A 
ATOM      7  C   UNL     1      83.098  51.770  43.607  0.00  0.00    -0.004 C 
ATOM      8  C   UNL     1      82.387  51.086  42.430  0.00  0.00    +0.052 C 
ATOM      9  N   UNL     1      81.931  49.755  42.826  0.00  0.00    -0.284 NA
ATOM     10  C   UNL     1      82.634  48.965  43.586  0.00  0.00    +0.044 C 
ATOM     11  C   UNL     1      82.054  47.624  43.925  0.00  0.00    -0.022 C 
ATOM     12  C   UNL     1      81.198  51.913  41.945  0.00  0.00    -0.042 C 
ENDROOT
BRANCH   6  13
ATOM     13  C   UNL     1      85.565  52.832  44.860  0.00  0.00    -0.003 A 
ATOM     14  C   UNL     1      86.320  53.469  43.854  0.00  0.00    -0.039 A 
ATOM     15  C   UNL     1      86.887  52.689  42.694  0.00  0.00    -0.039 C 
ATOM     16  C   UNL     1      86.542  54.846  43.923  0.00  0.00    -0.016 A 
ATOM     17  C   UNL     1      86.031  55.621  44.978  0.00  0.00    +0.132 A 
ATOM     18  C   UNL     1      85.269  54.998  46.000  0.00  0.00    +0.066 A 
ATOM     19  C   UNL     1      85.034  53.592  45.933  0.00  0.00    -0.003 A 
ATOM     20  C   UNL     1      84.278  52.971  46.949  0.00  0.00    -0.053 A 
ATOM     21  C   UNL     1      83.761  53.710  48.005  0.00  0.00    -0.058 A 
ATOM     22  C   UNL     1      83.982  55.079  48.078  0.00  0.00    -0.019 A 
ATOM     23  C   UNL     1      84.732  55.742  47.088  0.00  0.00    +0.131 A 
BRANCH  23  24
ATOM     24  O   UNL     1      84.952  57.128  47.170  0.00  0.00    -0.494 OA
ATOM     25  C   UNL     1      83.945  58.127  47.042  0.00  0.00    +0.079 C 
ENDBRANCH  23  24
BRANCH  17  26
ATOM     26  O   UNL     1      86.270  57.006  45.029  0.00  0.00    -0.494 OA
ATOM     27  C   UNL     1      85.878  57.945  44.031  0.00  0.00    +0.079 C 
ENDBRANCH  17  26
ENDBRANCH   6  13
BRANCH   1  29
ATOM     28  C   UNL     1      87.841  50.876  47.240  0.00  0.00    +0.079 C 
ATOM     29  O   UNL     1      87.455  51.046  45.880  0.00  0.00    -0.494 OA
ENDBRANCH   1  29
BRANCH   3  30
ATOM     30  O   UNL     1      84.734  47.186  44.567  0.00  0.00    -0.494 OA
ATOM     31  C   UNL     1      85.610  46.286  43.897  0.00  0.00    +0.079 C 
ENDBRANCH   3  30
TORSDOF 5
ENDMDL
MODEL 7
REMARK VINA RESULT:    -8.663      1.910      3.357
REMARK INTER + INTRA:         -12.360
REMARK INTER:                 -11.013
REMARK INTRA:                  -1.347
REMARK UNBOUND:                -1.164
REMARK  Name = 
REMARK  12 active torsions:
REMARK  status: ('A' for Active; 'I' for Inactive)
REMARK    1  A    between atoms: C_1  and  O_2
REMARK    2  A    between atoms: O_2  and  C_3
REMARK    3  A    between atoms: C_5  and  O_6
REMARK    4  A    between atoms: O_6  and  C_7
REMARK    5  A    between atoms: C_10  and  C_11
REMARK    6  A    between atoms: C_12  and  C_13
REMARK    7  A    between atoms: C_15  and  O_24
REMARK    8  A    between atoms: C_21  and  O_22
REMARK    9  A    between atoms: O_22  and  C_23
REMARK   10  A    between atoms: O_24  and  C_25
REMARK   11  A    between atoms: C_27  and  C_31
REMARK   12  A    between atoms: C_29  and  C_30
REMARK                            x       y       z     vdW  Elec       q    Type
REMARK                         _______ _______ _______ _____ _____    ______ ____
ROOT
ATOM      1  C   UNL     1      84.830  53.214  46.571  0.00  0.00    +0.132 A 
ATOM      2  C   UNL     1      84.629  54.575  46.843  0.00  0.00    +0.023 A 
ATOM      3  C   UNL     1      84.668  55.536  45.817  0.00  0.00    +0.133 A 
ATOM      4  C   UNL     1      84.928  55.125  44.489  0.00  0.00    +0.041 A 
ATOM      5  C   UNL     1      85.077  53.746  44.201  0.00  0.00    -0.022 A 
ATOM      6  C   UNL     1      85.058  52.800  45.250  0.00  0.00    +0.029 A 
ATOM      7  C   UNL     1      85.331  53.323  42.767  0.00  0.00    -0.004 C 
ATOM      8  C   UNL     1      84.598  54.270  41.804  0.00  0.00    +0.052 C 
ATOM      9  N   UNL     1      84.922  55.658  42.126  0.00  0.00    -0.284 NA
ATOM     10  C   UNL     1      85.041  56.091  43.348  0.00  0.00    +0.044 C 
ATOM     11  C   UNL     1      85.381  57.538  43.547  0.00  0.00    -0.022 C 
ATOM     12  C   UNL     1      84.969  53.979  40.351  0.00  0.00    -0.042 C 
ENDROOT
BRANCH   6  13
ATOM     13  C   UNL     1      85.276  51.353  44.980  0.00  0.00    -0.003 A 
ATOM     14  C   UNL     1      86.553  50.798  45.192  0.00  0.00    -0.039 A 
ATOM     15  C   UNL     1      87.697  51.644  45.692  0.00  0.00    -0.039 C 
ATOM     16  C   UNL     1      86.768  49.439  44.944  0.00  0.00    -0.016 A 
ATOM     17  C   UNL     1      85.736  48.605  44.484  0.00  0.00    +0.132 A 
ATOM     18  C   UNL     1      84.442  49.145  44.264  0.00  0.00    +0.066 A 
ATOM     19  C   UNL     1      84.215  50.531  44.519  0.00  0.00    -0.003 A 
ATOM     20  C   UNL     1      82.930  51.070  44.300  0.00  0.00    -0.053 A 
ATOM     21  C   UNL     1      81.891  50.270  43.844  0.00  0.00    -0.058 A 
ATOM     22  C   UNL     1      82.101  48.921  43.595  0.00  0.00    -0.019 A 
ATOM     23  C   UNL     1      83.366  48.339  43.798  0.00  0.00    +0.131 A 
BRANCH  23  24
ATOM     24  O   UNL     1      83.571  46.971  43.542  0.00  0.00    -0.494 OA
ATOM     25  C   UNL     1      82.726  45.918  43.993  0.00  0.00    +0.079 C 
ENDBRANCH  23  24
BRANCH  17  26
ATOM     26  O   UNL     1      85.975  47.241  44.238  0.00  0.00    -0.494 OA
ATOM     27  C   UNL     1      86.829  46.726  43.220  0.00  0.00    +0.079 C 
ENDBRANCH  17  26
ENDBRANCH   6  13
BRANCH   1  29
ATOM     28  C   UNL     1      85.598  52.286  48.770  0.00  0.00    +0.079 C 
ATOM     29  O   UNL     1      84.807  52.242  47.586  0.00  0.00    -0.494 OA
ENDBRANCH   1  29
BRANCH   3  30
ATOM     30  O   UNL     1      84.432  56.894  46.090  0.00  0.00    -0.494 OA
ATOM     31  C   UNL     1      83.508  57.387  47.055  0.00  0.00    +0.079 C 
ENDBRANCH   3  30
TORSDOF 5
ENDMDL
MODEL 8
REMARK VINA RESULT:    -8.235      2.920      7.925
REMARK INTER + INTRA:         -11.807
REMARK INTER:                 -10.848
REMARK INTRA:                  -0.959
REMARK UNBOUND:                -1.164
REMARK  Name = 
REMARK  12 active torsions:
REMARK  status: ('A' for Active; 'I' for Inactive)
REMARK    1  A    between atoms: C_1  and  O_2
REMARK    2  A    between atoms: O_2  and  C_3
REMARK    3  A    between atoms: C_5  and  O_6
REMARK    4  A    between atoms: O_6  and  C_7
REMARK    5  A    between atoms: C_10  and  C_11
REMARK    6  A    between atoms: C_12  and  C_13
REMARK    7  A    between atoms: C_15  and  O_24
REMARK    8  A    between atoms: C_21  and  O_22
REMARK    9  A    between atoms: O_22  and  C_23
REMARK   10  A    between atoms: O_24  and  C_25
REMARK   11  A    between atoms: C_27  and  C_31
REMARK   12  A    between atoms: C_29  and  C_30
REMARK                            x       y       z     vdW  Elec       q    Type
REMARK                         _______ _______ _______ _____ _____    ______ ____
ROOT
ATOM      1  C   UNL     1      85.106  49.100  43.907  0.00  0.00    +0.132 A 
ATOM      2  C   UNL     1      85.009  47.708  43.765  0.00  0.00    +0.023 A 
ATOM      3  C   UNL     1      86.128  46.932  43.418  0.00  0.00    +0.133 A 
ATOM      4  C   UNL     1      87.372  47.566  43.197  0.00  0.00    +0.041 A 
ATOM      5  C   UNL     1      87.489  48.964  43.393  0.00  0.00    -0.022 A 
ATOM      6  C   UNL     1      86.346  49.729  43.717  0.00  0.00    +0.029 A 
ATOM      7  C   UNL     1      88.837  49.623  43.173  0.00  0.00    -0.004 C 
ATOM      8  C   UNL     1      89.962  48.659  43.578  0.00  0.00    +0.052 C 
ATOM      9  N   UNL     1      89.771  47.365  42.926  0.00  0.00    -0.284 NA
ATOM     10  C   UNL     1      88.600  46.818  42.771  0.00  0.00    +0.044 C 
ATOM     11  C   UNL     1      88.536  45.488  42.080  0.00  0.00    -0.022 C 
ATOM     12  C   UNL     1      91.334  49.223  43.211  0.00  0.00    -0.042 C 
ENDROOT
BRANCH   6  13
ATOM     13  C   UNL     1      86.430  51.207  43.865  0.00  0.00    -0.003 A 
ATOM     14  C   UNL     1      86.494  52.012  42.711  0.00  0.00    -0.039 A 
ATOM     15  C   UNL     1      86.473  51.401  41.332  0.00  0.00    -0.039 C 
ATOM     16  C   UNL     1      86.571  53.402  42.838  0.00  0.00    -0.016 A 
ATOM     17  C   UNL     1      86.588  54.023  44.098  0.00  0.00    +0.132 A 
ATOM     18  C   UNL     1      86.524  53.229  45.273  0.00  0.00    +0.066 A 
ATOM     19  C   UNL     1      86.441  51.810  45.149  0.00  0.00    -0.003 A 
ATOM     20  C   UNL     1      86.379  51.020  46.316  0.00  0.00    -0.053 A 
ATOM     21  C   UNL     1      86.395  51.606  47.575  0.00  0.00    -0.058 A 
ATOM     22  C   UNL     1      86.473  52.986  47.705  0.00  0.00    -0.019 A 
ATOM     23  C   UNL     1      86.539  53.815  46.570  0.00  0.00    +0.131 A 
BRANCH  23  24
ATOM     24  O   UNL     1      86.618  55.212  46.711  0.00  0.00    -0.494 OA
ATOM     25  C   UNL     1      85.709  56.013  47.458  0.00  0.00    +0.079 C 
ENDBRANCH  23  24
BRANCH  17  26
ATOM     26  O   UNL     1      86.668  55.423  44.204  0.00  0.00    -0.494 OA
ATOM     27  C   UNL     1      85.687  56.341  43.727  0.00  0.00    +0.079 C 
ENDBRANCH  17  26
ENDBRANCH   6  13
BRANCH   1  29
ATOM     28  C   UNL     1      82.650  49.424  44.297  0.00  0.00    +0.079 C 
ATOM     29  O   UNL     1      83.994  49.893  44.240  0.00  0.00    -0.494 OA
ENDBRANCH   1  29
BRANCH   3  30
ATOM     30  O   UNL     1      86.033  45.534  43.311  0.00  0.00    -0.494 OA
ATOM     31  C   UNL     1      85.494  44.671  44.308  0.00  0.00    +0.079 C 
ENDBRANCH   3  30
TORSDOF 5
ENDMDL
MODEL 9
REMARK VINA RESULT:    -7.347      2.112      7.055
REMARK INTER + INTRA:         -10.658
REMARK INTER:                  -9.494
REMARK INTRA:                  -1.164
REMARK UNBOUND:                -1.164
REMARK  Name = 
REMARK  12 active torsions:
REMARK  status: ('A' for Active; 'I' for Inactive)
REMARK    1  A    between atoms: C_1  and  O_2
REMARK    2  A    between atoms: O_2  and  C_3
REMARK    3  A    between atoms: C_5  and  O_6
REMARK    4  A    between atoms: O_6  and  C_7
REMARK    5  A    between atoms: C_10  and  C_11
REMARK    6  A    between atoms: C_12  and  C_13
REMARK    7  A    between atoms: C_15  and  O_24
REMARK    8  A    between atoms: C_21  and  O_22
REMARK    9  A    between atoms: O_22  and  C_23
REMARK   10  A    between atoms: O_24  and  C_25
REMARK   11  A    between atoms: C_27  and  C_31
REMARK   12  A    between atoms: C_29  and  C_30
REMARK                            x       y       z     vdW  Elec       q    Type
REMARK                         _______ _______ _______ _____ _____    ______ ____
ROOT
ATOM      1  C   UNL     1      86.261  50.306  44.839  0.00  0.00    +0.132 A 
ATOM      2  C   UNL     1      86.439  48.945  44.550  0.00  0.00    +0.023 A 
ATOM      3  C   UNL     1      85.358  48.137  44.158  0.00  0.00    +0.133 A 
ATOM      4  C   UNL     1      84.065  48.702  44.066  0.00  0.00    +0.041 A 
ATOM      5  C   UNL     1      83.890  50.087  44.302  0.00  0.00    -0.022 A 
ATOM      6  C   UNL     1      84.986  50.877  44.719  0.00  0.00    +0.029 A 
ATOM      7  C   UNL     1      82.499  50.680  44.174  0.00  0.00    -0.004 C 
ATOM      8  C   UNL     1      81.719  49.949  43.072  0.00  0.00    +0.052 C 
ATOM      9  N   UNL     1      81.778  48.505  43.292  0.00  0.00    -0.284 NA
ATOM     10  C   UNL     1      82.851  47.898  43.709  0.00  0.00    +0.044 C 
ATOM     11  C   UNL     1      82.784  46.411  43.899  0.00  0.00    -0.022 C 
ATOM     12  C   UNL     1      80.260  50.403  43.032  0.00  0.00    -0.042 C 
ENDROOT
BRANCH   6  13
ATOM     13  C   UNL     1      84.813  52.320  45.035  0.00  0.00    -0.003 A 
ATOM     14  C   UNL     1      84.662  52.717  46.379  0.00  0.00    -0.039 A 
ATOM     15  C   UNL     1      84.678  51.705  47.497  0.00  0.00    -0.039 C 
ATOM     16  C   UNL     1      84.502  54.071  46.687  0.00  0.00    -0.016 A 
ATOM     17  C   UNL     1      84.486  55.055  45.685  0.00  0.00    +0.132 A 
ATOM     18  C   UNL     1      84.637  54.675  44.326  0.00  0.00    +0.066 A 
ATOM     19  C   UNL     1      84.805  53.295  44.005  0.00  0.00    -0.003 A 
ATOM     20  C   UNL     1      84.954  52.915  42.654  0.00  0.00    -0.053 A 
ATOM     21  C   UNL     1      84.941  53.866  41.642  0.00  0.00    -0.058 A 
ATOM     22  C   UNL     1      84.780  55.211  41.945  0.00  0.00    -0.019 A 
ATOM     23  C   UNL     1      84.627  55.637  43.277  0.00  0.00    +0.131 A 
BRANCH  23  24
ATOM     24  O   UNL     1      84.464  57.002  43.575  0.00  0.00    -0.494 OA
ATOM     25  C   UNL     1      85.507  57.971  43.575  0.00  0.00    +0.079 C 
ENDBRANCH  23  24
BRANCH  17  26
ATOM     26  O   UNL     1      84.322  56.412  46.018  0.00  0.00    -0.494 OA
ATOM     27  C   UNL     1      85.097  57.122  46.979  0.00  0.00    +0.079 C 
ENDBRANCH  17  26
ENDBRANCH   6  13
BRANCH   1  29
ATOM     28  C   UNL     1      88.013  51.010  46.489  0.00  0.00    +0.079 C 
ATOM     29  O   UNL     1      87.329  51.125  45.245  0.00  0.00    -0.494 OA
ENDBRANCH   1  29
BRANCH   3  30
ATOM     30  O   UNL     1      85.548  46.782  43.837  0.00  0.00    -0.494 OA
ATOM     31  C   UNL     1      86.429  46.295  42.830  0.00  0.00    +0.079 C 
ENDBRANCH   3  30
TORSDOF 5
ENDMDL
