MODEL 1
REMARK VINA RESULT:    -9.520      0.000      0.000
REMARK INTER + INTRA:         -13.312
REMARK INTER:                 -11.920
REMARK INTRA:                  -1.391
REMARK UNBOUND:                -1.009
REMARK  Name = 
REMARK  12 active torsions:
REMARK  status: ('A' for Active; 'I' for Inactive)
REMARK    1  A    between atoms: C_1  and  O_2
REMARK    2  A    between atoms: O_2  and  C_3
REMARK    3  A    between atoms: C_5  and  O_6
REMARK    4  A    between atoms: O_6  and  C_7
REMARK    5  A    between atoms: C_10  and  C_11
REMARK    6  A    between atoms: C_12  and  C_13
REMARK    7  A    between atoms: C_15  and  O_24
REMARK    8  A    between atoms: C_21  and  O_22
REMARK    9  A    between atoms: O_22  and  C_23
REMARK   10  A    between atoms: O_24  and  C_25
REMARK   11  A    between atoms: C_27  and  C_31
REMARK   12  A    between atoms: C_29  and  C_30
REMARK                            x       y       z     vdW  Elec       q    Type
REMARK                         _______ _______ _______ _____ _____    ______ ____
ROOT
ATOM      1  C   UNL     1      85.300  53.474  42.769  0.00  0.00    +0.132 A 
ATOM      2  C   UNL     1      85.286  54.876  42.756  0.00  0.00    +0.023 A 
ATOM      3  C   UNL     1      85.020  55.613  43.923  0.00  0.00    +0.133 A 
ATOM      4  C   UNL     1      84.750  54.928  45.131  0.00  0.00    +0.041 A 
ATOM      5  C   UNL     1      84.818  53.514  45.162  0.00  0.00    -0.022 A 
ATOM      6  C   UNL     1      85.063  52.792  43.971  0.00  0.00    +0.029 A 
ATOM      7  C   UNL     1      84.549  52.798  46.472  0.00  0.00    -0.004 C 
ATOM      8  C   UNL     1      85.049  53.652  47.646  0.00  0.00    +0.052 C 
ATOM      9  N   UNL     1      84.516  55.009  47.540  0.00  0.00    -0.284 NA
ATOM     10  C   UNL     1      84.403  55.637  46.406  0.00  0.00    +0.044 C 
ATOM     11  C   UNL     1      83.838  57.026  46.428  0.00  0.00    -0.022 C 
ATOM     12  C   UNL     1      84.641  53.043  48.987  0.00  0.00    -0.042 C 
ENDROOT
BRANCH   6  13
ATOM     13  C   UNL     1      85.075  51.304  43.967  0.00  0.00    -0.003 A 
ATOM     14  C   UNL     1      86.261  50.625  44.308  0.00  0.00    -0.039 A 
ATOM     15  C   UNL     1      87.512  51.380  44.683  0.00  0.00    -0.039 C 
ATOM     16  C   UNL     1      86.283  49.227  44.310  0.00  0.00    -0.016 A 
ATOM     17  C   UNL     1      85.144  48.475  43.976  0.00  0.00    +0.132 A 
ATOM     18  C   UNL     1      83.940  49.141  43.629  0.00  0.00    +0.066 A 
ATOM     19  C   UNL     1      83.911  50.568  43.629  0.00  0.00    -0.003 A 
ATOM     20  C   UNL     1      82.715  51.232  43.283  0.00  0.00    -0.053 A 
ATOM     21  C   UNL     1      81.574  50.515  42.946  0.00  0.00    -0.058 A 
ATOM     22  C   UNL     1      81.593  49.127  42.945  0.00  0.00    -0.019 A 
ATOM     23  C   UNL     1      82.763  48.421  43.282  0.00  0.00    +0.131 A 
BRANCH  23  24
ATOM     24  O   UNL     1      82.774  47.015  43.277  0.00  0.00    -0.494 OA
ATOM     25  C   UNL     1      81.804  46.186  43.909  0.00  0.00    +0.079 C 
ENDBRANCH  23  24
BRANCH  17  26
ATOM     26  O   UNL     1      85.189  47.069  43.981  0.00  0.00    -0.494 OA
ATOM     27  C   UNL     1      86.166  46.276  43.313  0.00  0.00    +0.079 C 
ENDBRANCH  17  26
ENDBRANCH   6  13
BRANCH   1  29
ATOM     28  C   UNL     1      86.835  52.550  41.013  0.00  0.00    +0.079 C 
ATOM     29  O   UNL     1      85.551  52.722  41.608  0.00  0.00    -0.494 OA
ENDBRANCH   1  29
BRANCH   3  30
ATOM     30  O   UNL     1      85.041  57.018  43.912  0.00  0.00    -0.494 OA
ATOM     31  C   UNL     1      86.213  57.821  44.019  0.00  0.00    +0.079 C 
ENDBRANCH   3  30
TORSDOF 5
ENDMDL
MODEL 2
REMARK VINA RESULT:    -9.346      2.549      7.171
REMARK INTER + INTRA:         -13.086
REMARK INTER:                 -11.551
REMARK INTRA:                  -1.535
REMARK UNBOUND:                -1.009
REMARK  Name = 
REMARK  12 active torsions:
REMARK  status: ('A' for Active; 'I' for Inactive)
REMARK    1  A    between atoms: C_1  and  O_2
REMARK    2  A    between atoms: O_2  and  C_3
REMARK    3  A    between atoms: C_5  and  O_6
REMARK    4  A    between atoms: O_6  and  C_7
REMARK    5  A    between atoms: C_10  and  C_11
REMARK    6  A    between atoms: C_12  and  C_13
REMARK    7  A    between atoms: C_15  and  O_24
REMARK    8  A    between atoms: C_21  and  O_22
REMARK    9  A    between atoms: O_22  and  C_23
REMARK   10  A    between atoms: O_24  and  C_25
REMARK   11  A    between atoms: C_27  and  C_31
REMARK   12  A    between atoms: C_29  and  C_30
REMARK                            x       y       z     vdW  Elec       q    Type
REMARK                         _______ _______ _______ _____ _____    ______ ____
ROOT
ATOM      1  C   UNL     1      87.864  49.310  43.028  0.00  0.00    +0.132 A 
ATOM      2  C   UNL     1      87.943  47.984  42.576  0.00  0.00    +0.023 A 
ATOM      3  C   UNL     1      86.838  47.120  42.659  0.00  0.00    +0.133 A 
ATOM      4  C   UNL     1      85.627  47.590  43.219  0.00  0.00    +0.041 A 
ATOM      5  C   UNL     1      85.525  48.943  43.626  0.00  0.00    -0.022 A 
ATOM      6  C   UNL     1      86.656  49.789  43.557  0.00  0.00    +0.029 A 
ATOM      7  C   UNL     1      84.211  49.436  44.202  0.00  0.00    -0.004 C 
ATOM      8  C   UNL     1      83.039  48.710  43.525  0.00  0.00    +0.052 C 
ATOM      9  N   UNL     1      83.253  47.265  43.571  0.00  0.00    -0.284 NA
ATOM     10  C   UNL     1      84.420  46.718  43.394  0.00  0.00    +0.044 C 
ATOM     11  C   UNL     1      84.510  45.222  43.468  0.00  0.00    -0.022 C 
ATOM     12  C   UNL     1      81.711  49.055  44.199  0.00  0.00    -0.042 C 
ENDROOT
BRANCH   6  13
ATOM     13  C   UNL     1      86.591  51.195  44.037  0.00  0.00    -0.003 A 
ATOM     14  C   UNL     1      87.001  51.493  45.352  0.00  0.00    -0.039 A 
ATOM     15  C   UNL     1      87.509  50.412  46.273  0.00  0.00    -0.039 C 
ATOM     16  C   UNL     1      86.947  52.811  45.813  0.00  0.00    -0.016 A 
ATOM     17  C   UNL     1      86.489  53.856  44.993  0.00  0.00    +0.132 A 
ATOM     18  C   UNL     1      86.071  53.577  43.667  0.00  0.00    +0.066 A 
ATOM     19  C   UNL     1      86.128  52.233  43.189  0.00  0.00    -0.003 A 
ATOM     20  C   UNL     1      85.711  51.953  41.870  0.00  0.00    -0.053 A 
ATOM     21  C   UNL     1      85.252  52.966  41.039  0.00  0.00    -0.058 A 
ATOM     22  C   UNL     1      85.195  54.276  41.494  0.00  0.00    -0.019 A 
ATOM     23  C   UNL     1      85.599  54.603  42.802  0.00  0.00    +0.131 A 
BRANCH  23  24
ATOM     24  O   UNL     1      85.537  55.933  43.255  0.00  0.00    -0.494 OA
ATOM     25  C   UNL     1      84.408  56.791  43.126  0.00  0.00    +0.079 C 
ENDBRANCH  23  24
BRANCH  17  26
ATOM     26  O   UNL     1      86.440  55.176  45.479  0.00  0.00    -0.494 OA
ATOM     27  C   UNL     1      85.899  55.570  46.737  0.00  0.00    +0.079 C 
ENDBRANCH  17  26
ENDBRANCH   6  13
BRANCH   1  29
ATOM     28  C   UNL     1      89.536  50.682  41.760  0.00  0.00    +0.079 C 
ATOM     29  O   UNL     1      88.963  50.183  42.965  0.00  0.00    -0.494 OA
ENDBRANCH   1  29
BRANCH   3  30
ATOM     30  O   UNL     1      86.912  45.803  42.173  0.00  0.00    -0.494 OA
ATOM     31  C   UNL     1      88.017  44.924  42.355  0.00  0.00    +0.079 C 
ENDBRANCH   3  30
TORSDOF 5
ENDMDL
MODEL 3
REMARK VINA RESULT:    -9.328      2.709      7.374
REMARK INTER + INTRA:         -13.063
REMARK INTER:                 -11.601
REMARK INTRA:                  -1.462
REMARK UNBOUND:                -1.009
REMARK  Name = 
REMARK  12 active torsions:
REMARK  status: ('A' for Active; 'I' for Inactive)
REMARK    1  A    between atoms: C_1  and  O_2
REMARK    2  A    between atoms: O_2  and  C_3
REMARK    3  A    between atoms: C_5  and  O_6
REMARK    4  A    between atoms: O_6  and  C_7
REMARK    5  A    between atoms: C_10  and  C_11
REMARK    6  A    between atoms: C_12  and  C_13
REMARK    7  A    between atoms: C_15  and  O_24
REMARK    8  A    between atoms: C_21  and  O_22
REMARK    9  A    between atoms: O_22  and  C_23
REMARK   10  A    between atoms: O_24  and  C_25
REMARK   11  A    between atoms: C_27  and  C_31
REMARK   12  A    between atoms: C_29  and  C_30
REMARK                            x       y       z     vdW  Elec       q    Type
REMARK                         _______ _______ _______ _____ _____    ______ ____
ROOT
ATOM      1  C   UNL     1      87.574  49.429  43.190  0.00  0.00    +0.132 A 
ATOM      2  C   UNL     1      87.951  48.191  42.649  0.00  0.00    +0.023 A 
ATOM      3  C   UNL     1      87.033  47.131  42.546  0.00  0.00    +0.133 A 
ATOM      4  C   UNL     1      85.709  47.312  43.008  0.00  0.00    +0.041 A 
ATOM      5  C   UNL     1      85.308  48.576  43.504  0.00  0.00    -0.022 A 
ATOM      6  C   UNL     1      86.253  49.621  43.621  0.00  0.00    +0.029 A 
ATOM      7  C   UNL     1      83.876  48.757  43.972  0.00  0.00    -0.004 C 
ATOM      8  C   UNL     1      82.934  47.893  43.120  0.00  0.00    +0.052 C 
ATOM      9  N   UNL     1      83.422  46.516  43.077  0.00  0.00    -0.284 NA
ATOM     10  C   UNL     1      84.685  46.216  42.986  0.00  0.00    +0.044 C 
ATOM     11  C   UNL     1      85.058  44.764  42.954  0.00  0.00    -0.022 C 
ATOM     12  C   UNL     1      81.510  47.918  43.673  0.00  0.00    -0.042 C 
ENDROOT
BRANCH   6  13
ATOM     13  C   UNL     1      85.871  50.938  44.198  0.00  0.00    -0.003 A 
ATOM     14  C   UNL     1      85.364  51.941  43.349  0.00  0.00    -0.039 A 
ATOM     15  C   UNL     1      85.197  51.698  41.869  0.00  0.00    -0.039 C 
ATOM     16  C   UNL     1      84.999  53.180  43.881  0.00  0.00    -0.016 A 
ATOM     17  C   UNL     1      85.128  53.457  45.253  0.00  0.00    +0.132 A 
ATOM     18  C   UNL     1      85.637  52.459  46.124  0.00  0.00    +0.066 A 
ATOM     19  C   UNL     1      86.007  51.190  45.587  0.00  0.00    -0.003 A 
ATOM     20  C   UNL     1      86.515  50.198  46.453  0.00  0.00    -0.053 A 
ATOM     21  C   UNL     1      86.655  50.443  47.812  0.00  0.00    -0.058 A 
ATOM     22  C   UNL     1      86.296  51.674  48.344  0.00  0.00    -0.019 A 
ATOM     23  C   UNL     1      85.786  52.695  47.520  0.00  0.00    +0.131 A 
BRANCH  23  24
ATOM     24  O   UNL     1      85.425  53.939  48.067  0.00  0.00    -0.494 OA
ATOM     25  C   UNL     1      84.389  54.146  49.021  0.00  0.00    +0.079 C 
ENDBRANCH  23  24
BRANCH  17  26
ATOM     26  O   UNL     1      84.757  54.712  45.767  0.00  0.00    -0.494 OA
ATOM     27  C   UNL     1      84.760  55.934  45.033  0.00  0.00    +0.079 C 
ENDBRANCH  17  26
ENDBRANCH   6  13
BRANCH   1  29
ATOM     28  C   UNL     1      88.955  51.287  42.226  0.00  0.00    +0.079 C 
ATOM     29  O   UNL     1      88.482  50.495  43.311  0.00  0.00    -0.494 OA
ENDBRANCH   1  29
BRANCH   3  30
ATOM     30  O   UNL     1      87.407  45.904  41.971  0.00  0.00    -0.494 OA
ATOM     31  C   UNL     1      88.547  45.138  42.346  0.00  0.00    +0.079 C 
ENDBRANCH   3  30
TORSDOF 5
ENDMDL
MODEL 4
REMARK VINA RESULT:    -9.173      2.365      4.712
REMARK INTER + INTRA:         -12.863
REMARK INTER:                 -11.385
REMARK INTRA:                  -1.478
REMARK UNBOUND:                -1.009
REMARK  Name = 
REMARK  12 active torsions:
REMARK  status: ('A' for Active; 'I' for Inactive)
REMARK    1  A    between atoms: C_1  and  O_2
REMARK    2  A    between atoms: O_2  and  C_3
REMARK    3  A    between atoms: C_5  and  O_6
REMARK    4  A    between atoms: O_6  and  C_7
REMARK    5  A    between atoms: C_10  and  C_11
REMARK    6  A    between atoms: C_12  and  C_13
REMARK    7  A    between atoms: C_15  and  O_24
REMARK    8  A    between atoms: C_21  and  O_22
REMARK    9  A    between atoms: O_22  and  C_23
REMARK   10  A    between atoms: O_24  and  C_25
REMARK   11  A    between atoms: C_27  and  C_31
REMARK   12  A    between atoms: C_29  and  C_30
REMARK                            x       y       z     vdW  Elec       q    Type
REMARK                         _______ _______ _______ _____ _____    ______ ____
ROOT
ATOM      1  C   UNL     1      86.340  51.570  46.014  0.00  0.00    +0.132 A 
ATOM      2  C   UNL     1      86.429  52.836  46.610  0.00  0.00    +0.023 A 
ATOM      3  C   UNL     1      86.331  54.010  45.843  0.00  0.00    +0.133 A 
ATOM      4  C   UNL     1      86.152  53.913  44.443  0.00  0.00    +0.041 A 
ATOM      5  C   UNL     1      86.007  52.638  43.844  0.00  0.00    -0.022 A 
ATOM      6  C   UNL     1      86.133  51.470  44.630  0.00  0.00    +0.029 A 
ATOM      7  C   UNL     1      85.792  52.556  42.345  0.00  0.00    -0.004 C 
ATOM      8  C   UNL     1      84.975  53.765  41.866  0.00  0.00    +0.052 C 
ATOM      9  N   UNL     1      85.581  55.002  42.356  0.00  0.00    -0.284 NA
ATOM     10  C   UNL     1      86.094  55.114  43.547  0.00  0.00    +0.044 C 
ATOM     11  C   UNL     1      86.690  56.436  43.930  0.00  0.00    -0.022 C 
ATOM     12  C   UNL     1      84.886  53.805  40.341  0.00  0.00    -0.042 C 
ENDROOT
BRANCH   6  13
ATOM     13  C   UNL     1      86.048  50.119  44.013  0.00  0.00    -0.003 A 
ATOM     14  C   UNL     1      84.790  49.494  43.895  0.00  0.00    -0.039 A 
ATOM     15  C   UNL     1      83.534  50.174  44.378  0.00  0.00    -0.039 C 
ATOM     16  C   UNL     1      84.698  48.226  43.315  0.00  0.00    -0.016 A 
ATOM     17  C   UNL     1      85.837  47.551  42.842  0.00  0.00    +0.132 A 
ATOM     18  C   UNL     1      87.112  48.164  42.951  0.00  0.00    +0.066 A 
ATOM     19  C   UNL     1      87.211  49.460  43.540  0.00  0.00    -0.003 A 
ATOM     20  C   UNL     1      88.479  50.071  43.651  0.00  0.00    -0.053 A 
ATOM     21  C   UNL     1      89.621  49.427  43.194  0.00  0.00    -0.058 A 
ATOM     22  C   UNL     1      89.534  48.166  42.619  0.00  0.00    -0.019 A 
ATOM     23  C   UNL     1      88.292  47.518  42.488  0.00  0.00    +0.131 A 
BRANCH  23  24
ATOM     24  O   UNL     1      88.213  46.241  41.904  0.00  0.00    -0.494 OA
ATOM     25  C   UNL     1      88.759  45.050  42.461  0.00  0.00    +0.079 C 
ENDBRANCH  23  24
BRANCH  17  26
ATOM     26  O   UNL     1      85.722  46.275  42.263  0.00  0.00    -0.494 OA
ATOM     27  C   UNL     1      84.843  45.245  42.711  0.00  0.00    +0.079 C 
ENDBRANCH  17  26
ENDBRANCH   6  13
BRANCH   1  29
ATOM     28  C   UNL     1      87.473  50.121  47.719  0.00  0.00    +0.079 C 
ATOM     29  O   UNL     1      86.450  50.386  46.764  0.00  0.00    -0.494 OA
ENDBRANCH   1  29
BRANCH   3  30
ATOM     30  O   UNL     1      86.386  55.277  46.449  0.00  0.00    -0.494 OA
ATOM     31  C   UNL     1      85.390  55.815  47.313  0.00  0.00    +0.079 C 
ENDBRANCH   3  30
TORSDOF 5
ENDMDL
MODEL 5
REMARK VINA RESULT:    -8.923      2.776      7.619
REMARK INTER + INTRA:         -12.540
REMARK INTER:                 -11.013
REMARK INTRA:                  -1.526
REMARK UNBOUND:                -1.009
REMARK  Name = 
REMARK  12 active torsions:
REMARK  status: ('A' for Active; 'I' for Inactive)
REMARK    1  A    between atoms: C_1  and  O_2
REMARK    2  A    between atoms: O_2  and  C_3
REMARK    3  A    between atoms: C_5  and  O_6
REMARK    4  A    between atoms: O_6  and  C_7
REMARK    5  A    between atoms: C_10  and  C_11
REMARK    6  A    between atoms: C_12  and  C_13
REMARK    7  A    between atoms: C_15  and  O_24
REMARK    8  A    between atoms: C_21  and  O_22
REMARK    9  A    between atoms: O_22  and  C_23
REMARK   10  A    between atoms: O_24  and  C_25
REMARK   11  A    between atoms: C_27  and  C_31
REMARK   12  A    between atoms: C_29  and  C_30
REMARK                            x       y       z     vdW  Elec       q    Type
REMARK                         _______ _______ _______ _____ _____    ______ ____
ROOT
ATOM      1  C   UNL     1      85.250  48.928  44.051  0.00  0.00    +0.132 A 
ATOM      2  C   UNL     1      85.189  47.572  43.695  0.00  0.00    +0.023 A 
ATOM      3  C   UNL     1      86.297  46.918  43.128  0.00  0.00    +0.133 A 
ATOM      4  C   UNL     1      87.490  47.642  42.900  0.00  0.00    +0.041 A 
ATOM      5  C   UNL     1      87.575  48.996  43.308  0.00  0.00    -0.022 A 
ATOM      6  C   UNL     1      86.442  49.641  43.854  0.00  0.00    +0.029 A 
ATOM      7  C   UNL     1      88.871  49.749  43.076  0.00  0.00    -0.004 C 
ATOM      8  C   UNL     1      90.064  48.792  43.217  0.00  0.00    +0.052 C 
ATOM      9  N   UNL     1      89.856  47.609  42.384  0.00  0.00    -0.284 NA
ATOM     10  C   UNL     1      88.696  47.034  42.249  0.00  0.00    +0.044 C 
ATOM     11  C   UNL     1      88.612  45.828  41.362  0.00  0.00    -0.022 C 
ATOM     12  C   UNL     1      91.372  49.476  42.822  0.00  0.00    -0.042 C 
ENDROOT
BRANCH   6  13
ATOM     13  C   UNL     1      86.487  51.080  44.230  0.00  0.00    -0.003 A 
ATOM     14  C   UNL     1      86.972  51.443  45.502  0.00  0.00    -0.039 A 
ATOM     15  C   UNL     1      87.449  50.400  46.482  0.00  0.00    -0.039 C 
ATOM     16  C   UNL     1      87.022  52.792  45.865  0.00  0.00    -0.016 A 
ATOM     17  C   UNL     1      86.596  53.804  44.988  0.00  0.00    +0.132 A 
ATOM     18  C   UNL     1      86.105  53.458  43.703  0.00  0.00    +0.066 A 
ATOM     19  C   UNL     1      86.055  52.083  43.325  0.00  0.00    -0.003 A 
ATOM     20  C   UNL     1      85.566  51.737  42.048  0.00  0.00    -0.053 A 
ATOM     21  C   UNL     1      85.137  52.715  41.161  0.00  0.00    -0.058 A 
ATOM     22  C   UNL     1      85.183  54.056  41.519  0.00  0.00    -0.019 A 
ATOM     23  C   UNL     1      85.662  54.449  42.782  0.00  0.00    +0.131 A 
BRANCH  23  24
ATOM     24  O   UNL     1      85.705  55.809  43.137  0.00  0.00    -0.494 OA
ATOM     25  C   UNL     1      84.587  56.691  43.137  0.00  0.00    +0.079 C 
ENDBRANCH  23  24
BRANCH  17  26
ATOM     26  O   UNL     1      86.653  55.155  45.375  0.00  0.00    -0.494 OA
ATOM     27  C   UNL     1      86.216  55.670  46.631  0.00  0.00    +0.079 C 
ENDBRANCH  17  26
ENDBRANCH   6  13
BRANCH   1  29
ATOM     28  C   UNL     1      82.897  49.788  43.953  0.00  0.00    +0.079 C 
ATOM     29  O   UNL     1      84.148  49.601  44.607  0.00  0.00    -0.494 OA
ENDBRANCH   1  29
BRANCH   3  30
ATOM     30  O   UNL     1      86.242  45.551  42.806  0.00  0.00    -0.494 OA
ATOM     31  C   UNL     1      86.070  44.495  43.745  0.00  0.00    +0.079 C 
ENDBRANCH   3  30
TORSDOF 5
ENDMDL
MODEL 6
REMARK VINA RESULT:    -8.847      1.550      3.263
REMARK INTER + INTRA:         -12.442
REMARK INTER:                 -11.046
REMARK INTRA:                  -1.395
REMARK UNBOUND:                -1.009
REMARK  Name = 
REMARK  12 active torsions:
REMARK  status: ('A' for Active; 'I' for Inactive)
REMARK    1  A    between atoms: C_1  and  O_2
REMARK    2  A    between atoms: O_2  and  C_3
REMARK    3  A    between atoms: C_5  and  O_6
REMARK    4  A    between atoms: O_6  and  C_7
REMARK    5  A    between atoms: C_10  and  C_11
REMARK    6  A    between atoms: C_12  and  C_13
REMARK    7  A    between atoms: C_15  and  O_24
REMARK    8  A    between atoms: C_21  and  O_22
REMARK    9  A    between atoms: O_22  and  C_23
REMARK   10  A    between atoms: O_24  and  C_25
REMARK   11  A    between atoms: C_27  and  C_31
REMARK   12  A    between atoms: C_29  and  C_30
REMARK                            x       y       z     vdW  Elec       q    Type
REMARK                         _______ _______ _______ _____ _____    ______ ____
ROOT
ATOM      1  C   UNL     1      84.917  53.372  42.716  0.00  0.00    +0.132 A 
ATOM      2  C   UNL     1      84.716  54.744  42.927  0.00  0.00    +0.023 A 
ATOM      3  C   UNL     1      84.673  55.282  44.225  0.00  0.00    +0.133 A 
ATOM      4  C   UNL     1      84.822  54.423  45.339  0.00  0.00    +0.041 A 
ATOM      5  C   UNL     1      85.080  53.046  45.130  0.00  0.00    -0.022 A 
ATOM      6  C   UNL     1      85.095  52.522  43.817  0.00  0.00    +0.029 A 
ATOM      7  C   UNL     1      85.261  52.146  46.337  0.00  0.00    -0.004 C 
ATOM      8  C   UNL     1      85.936  52.926  47.475  0.00  0.00    +0.052 C 
ATOM      9  N   UNL     1      85.221  54.177  47.715  0.00  0.00    -0.284 NA
ATOM     10  C   UNL     1      84.733  54.908  46.755  0.00  0.00    +0.044 C 
ATOM     11  C   UNL     1      84.016  56.170  47.132  0.00  0.00    -0.022 C 
ATOM     12  C   UNL     1      85.979  52.102  48.761  0.00  0.00    -0.042 C 
ENDROOT
BRANCH   6  13
ATOM     13  C   UNL     1      85.301  51.068  43.576  0.00  0.00    -0.003 A 
ATOM     14  C   UNL     1      84.196  50.196  43.642  0.00  0.00    -0.039 A 
ATOM     15  C   UNL     1      82.812  50.714  43.946  0.00  0.00    -0.039 C 
ATOM     16  C   UNL     1      84.377  48.830  43.414  0.00  0.00    -0.016 A 
ATOM     17  C   UNL     1      85.644  48.296  43.120  0.00  0.00    +0.132 A 
ATOM     18  C   UNL     1      86.768  49.158  43.049  0.00  0.00    +0.066 A 
ATOM     19  C   UNL     1      86.589  50.555  43.277  0.00  0.00    -0.003 A 
ATOM     20  C   UNL     1      87.707  51.413  43.208  0.00  0.00    -0.053 A 
ATOM     21  C   UNL     1      88.971  50.915  42.921  0.00  0.00    -0.058 A 
ATOM     22  C   UNL     1      89.155  49.557  42.696  0.00  0.00    -0.019 A 
ATOM     23  C   UNL     1      88.070  48.663  42.755  0.00  0.00    +0.131 A 
BRANCH  23  24
ATOM     24  O   UNL     1      88.265  47.289  42.527  0.00  0.00    -0.494 OA
ATOM     25  C   UNL     1      89.507  46.685  42.178  0.00  0.00    +0.079 C 
ENDBRANCH  23  24
BRANCH  17  26
ATOM     26  O   UNL     1      85.804  46.917  42.896  0.00  0.00    -0.494 OA
ATOM     27  C   UNL     1      84.764  46.020  42.513  0.00  0.00    +0.079 C 
ENDBRANCH  17  26
ENDBRANCH   6  13
BRANCH   1  29
ATOM     28  C   UNL     1      84.849  53.562  40.216  0.00  0.00    +0.079 C 
ATOM     29  O   UNL     1      84.950  52.815  41.425  0.00  0.00    -0.494 OA
ENDBRANCH   1  29
BRANCH   3  30
ATOM     30  O   UNL     1      84.506  56.662  44.430  0.00  0.00    -0.494 OA
ATOM     31  C   UNL     1      85.388  57.673  43.954  0.00  0.00    +0.079 C 
ENDBRANCH   3  30
TORSDOF 5
ENDMDL
MODEL 7
REMARK VINA RESULT:    -8.468      2.066      7.272
REMARK INTER + INTRA:         -11.952
REMARK INTER:                 -10.740
REMARK INTRA:                  -1.212
REMARK UNBOUND:                -1.009
REMARK  Name = 
REMARK  12 active torsions:
REMARK  status: ('A' for Active; 'I' for Inactive)
REMARK    1  A    between atoms: C_1  and  O_2
REMARK    2  A    between atoms: O_2  and  C_3
REMARK    3  A    between atoms: C_5  and  O_6
REMARK    4  A    between atoms: O_6  and  C_7
REMARK    5  A    between atoms: C_10  and  C_11
REMARK    6  A    between atoms: C_12  and  C_13
REMARK    7  A    between atoms: C_15  and  O_24
REMARK    8  A    between atoms: C_21  and  O_22
REMARK    9  A    between atoms: O_22  and  C_23
REMARK   10  A    between atoms: O_24  and  C_25
REMARK   11  A    between atoms: C_27  and  C_31
REMARK   12  A    between atoms: C_29  and  C_30
REMARK                            x       y       z     vdW  Elec       q    Type
REMARK                         _______ _______ _______ _____ _____    ______ ____
ROOT
ATOM      1  C   UNL     1      86.125  49.974  43.570  0.00  0.00    +0.132 A 
ATOM      2  C   UNL     1      86.229  48.583  43.426  0.00  0.00    +0.023 A 
ATOM      3  C   UNL     1      85.086  47.766  43.407  0.00  0.00    +0.133 A 
ATOM      4  C   UNL     1      83.808  48.355  43.547  0.00  0.00    +0.041 A 
ATOM      5  C   UNL     1      83.694  49.764  43.637  0.00  0.00    -0.022 A 
ATOM      6  C   UNL     1      84.858  50.565  43.679  0.00  0.00    +0.029 A 
ATOM      7  C   UNL     1      82.313  50.379  43.763  0.00  0.00    -0.004 C 
ATOM      8  C   UNL     1      81.294  49.540  42.979  0.00  0.00    +0.052 C 
ATOM      9  N   UNL     1      81.402  48.134  43.364  0.00  0.00    -0.284 NA
ATOM     10  C   UNL     1      82.543  47.550  43.592  0.00  0.00    +0.044 C 
ATOM     11  C   UNL     1      82.522  46.103  43.984  0.00  0.00    -0.022 C 
ATOM     12  C   UNL     1      79.868  50.031  43.224  0.00  0.00    -0.042 C 
ENDROOT
BRANCH   6  13
ATOM     13  C   UNL     1      84.766  52.041  43.838  0.00  0.00    -0.003 A 
ATOM     14  C   UNL     1      84.528  52.842  42.703  0.00  0.00    -0.039 A 
ATOM     15  C   UNL     1      84.359  52.227  41.337  0.00  0.00    -0.039 C 
ATOM     16  C   UNL     1      84.437  54.230  42.841  0.00  0.00    -0.016 A 
ATOM     17  C   UNL     1      84.579  54.854  44.092  0.00  0.00    +0.132 A 
ATOM     18  C   UNL     1      84.819  54.064  45.247  0.00  0.00    +0.066 A 
ATOM     19  C   UNL     1      84.909  52.647  45.113  0.00  0.00    -0.003 A 
ATOM     20  C   UNL     1      85.150  51.860  46.260  0.00  0.00    -0.053 A 
ATOM     21  C   UNL     1      85.296  52.449  47.508  0.00  0.00    -0.058 A 
ATOM     22  C   UNL     1      85.209  53.828  47.649  0.00  0.00    -0.019 A 
ATOM     23  C   UNL     1      84.971  54.653  46.534  0.00  0.00    +0.131 A 
BRANCH  23  24
ATOM     24  O   UNL     1      84.884  56.048  46.685  0.00  0.00    -0.494 OA
ATOM     25  C   UNL     1      85.984  56.914  46.949  0.00  0.00    +0.079 C 
ENDBRANCH  23  24
BRANCH  17  26
ATOM     26  O   UNL     1      84.486  56.252  44.208  0.00  0.00    -0.494 OA
ATOM     27  C   UNL     1      84.836  57.186  43.190  0.00  0.00    +0.079 C 
ENDBRANCH  17  26
ENDBRANCH   6  13
BRANCH   1  29
ATOM     28  C   UNL     1      88.592  50.371  43.346  0.00  0.00    +0.079 C 
ATOM     29  O   UNL     1      87.260  50.805  43.605  0.00  0.00    -0.494 OA
ENDBRANCH   1  29
BRANCH   3  30
ATOM     30  O   UNL     1      85.193  46.376  43.228  0.00  0.00    -0.494 OA
ATOM     31  C   UNL     1      86.036  45.515  43.987  0.00  0.00    +0.079 C 
ENDBRANCH   3  30
TORSDOF 5
ENDMDL
MODEL 8
REMARK VINA RESULT:    -8.176      2.831      7.805
REMARK INTER + INTRA:         -11.574
REMARK INTER:                 -10.732
REMARK INTRA:                  -0.842
REMARK UNBOUND:                -1.009
REMARK  Name = 
REMARK  12 active torsions:
REMARK  status: ('A' for Active; 'I' for Inactive)
REMARK    1  A    between atoms: C_1  and  O_2
REMARK    2  A    between atoms: O_2  and  C_3
REMARK    3  A    between atoms: C_5  and  O_6
REMARK    4  A    between atoms: O_6  and  C_7
REMARK    5  A    between atoms: C_10  and  C_11
REMARK    6  A    between atoms: C_12  and  C_13
REMARK    7  A    between atoms: C_15  and  O_24
REMARK    8  A    between atoms: C_21  and  O_22
REMARK    9  A    between atoms: O_22  and  C_23
REMARK   10  A    between atoms: O_24  and  C_25
REMARK   11  A    between atoms: C_27  and  C_31
REMARK   12  A    between atoms: C_29  and  C_30
REMARK                            x       y       z     vdW  Elec       q    Type
REMARK                         _______ _______ _______ _____ _____    ______ ____
ROOT
ATOM      1  C   UNL     1      85.099  49.122  43.617  0.00  0.00    +0.132 A 
ATOM      2  C   UNL     1      85.007  47.733  43.447  0.00  0.00    +0.023 A 
ATOM      3  C   UNL     1      86.125  46.971  43.067  0.00  0.00    +0.133 A 
ATOM      4  C   UNL     1      87.363  47.617  42.839  0.00  0.00    +0.041 A 
ATOM      5  C   UNL     1      87.474  49.011  43.062  0.00  0.00    -0.022 A 
ATOM      6  C   UNL     1      86.332  49.763  43.421  0.00  0.00    +0.029 A 
ATOM      7  C   UNL     1      88.815  49.682  42.835  0.00  0.00    -0.004 C 
ATOM      8  C   UNL     1      89.952  48.717  43.202  0.00  0.00    +0.052 C 
ATOM      9  N   UNL     1      89.758  47.436  42.525  0.00  0.00    -0.284 NA
ATOM     10  C   UNL     1      88.588  46.886  42.377  0.00  0.00    +0.044 C 
ATOM     11  C   UNL     1      88.519  45.570  41.660  0.00  0.00    -0.022 C 
ATOM     12  C   UNL     1      91.314  49.297  42.824  0.00  0.00    -0.042 C 
ENDROOT
BRANCH   6  13
ATOM     13  C   UNL     1      86.410  51.237  43.599  0.00  0.00    -0.003 A 
ATOM     14  C   UNL     1      86.479  52.066  42.461  0.00  0.00    -0.039 A 
ATOM     15  C   UNL     1      86.467  51.481  41.070  0.00  0.00    -0.039 C 
ATOM     16  C   UNL     1      86.550  53.452  42.617  0.00  0.00    -0.016 A 
ATOM     17  C   UNL     1      86.557  54.049  43.889  0.00  0.00    +0.132 A 
ATOM     18  C   UNL     1      86.489  53.232  45.047  0.00  0.00    +0.066 A 
ATOM     19  C   UNL     1      86.412  51.815  44.894  0.00  0.00    -0.003 A 
ATOM     20  C   UNL     1      86.346  51.001  46.045  0.00  0.00    -0.053 A 
ATOM     21  C   UNL     1      86.353  51.562  47.315  0.00  0.00    -0.058 A 
ATOM     22  C   UNL     1      86.426  52.939  47.474  0.00  0.00    -0.019 A 
ATOM     23  C   UNL     1      86.494  53.791  46.356  0.00  0.00    +0.131 A 
BRANCH  23  24
ATOM     24  O   UNL     1      86.568  55.185  46.525  0.00  0.00    -0.494 OA
ATOM     25  C   UNL     1      85.639  55.972  47.264  0.00  0.00    +0.079 C 
ENDBRANCH  23  24
BRANCH  17  26
ATOM     26  O   UNL     1      86.632  55.447  44.023  0.00  0.00    -0.494 OA
ATOM     27  C   UNL     1      85.657  56.371  43.547  0.00  0.00    +0.079 C 
ENDBRANCH  17  26
ENDBRANCH   6  13
BRANCH   1  29
ATOM     28  C   UNL     1      82.630  49.492  43.851  0.00  0.00    +0.079 C 
ATOM     29  O   UNL     1      83.988  49.901  43.985  0.00  0.00    -0.494 OA
ENDBRANCH   1  29
BRANCH   3  30
ATOM     30  O   UNL     1      86.036  45.575  42.932  0.00  0.00    -0.494 OA
ATOM     31  C   UNL     1      85.854  44.658  44.006  0.00  0.00    +0.079 C 
ENDBRANCH   3  30
TORSDOF 5
ENDMDL
MODEL 9
REMARK VINA RESULT:    -7.672      2.073      7.176
REMARK INTER + INTRA:         -10.924
REMARK INTER:                  -9.915
REMARK INTRA:                  -1.009
REMARK UNBOUND:                -1.009
REMARK  Name = 
REMARK  12 active torsions:
REMARK  status: ('A' for Active; 'I' for Inactive)
REMARK    1  A    between atoms: C_1  and  O_2
REMARK    2  A    between atoms: O_2  and  C_3
REMARK    3  A    between atoms: C_5  and  O_6
REMARK    4  A    between atoms: O_6  and  C_7
REMARK    5  A    between atoms: C_10  and  C_11
REMARK    6  A    between atoms: C_12  and  C_13
REMARK    7  A    between atoms: C_15  and  O_24
REMARK    8  A    between atoms: C_21  and  O_22
REMARK    9  A    between atoms: O_22  and  C_23
REMARK   10  A    between atoms: O_24  and  C_25
REMARK   11  A    between atoms: C_27  and  C_31
REMARK   12  A    between atoms: C_29  and  C_30
REMARK                            x       y       z     vdW  Elec       q    Type
REMARK                         _______ _______ _______ _____ _____    ______ ____
ROOT
ATOM      1  C   UNL     1      86.510  50.130  44.411  0.00  0.00    +0.132 A 
ATOM      2  C   UNL     1      86.708  48.780  44.085  0.00  0.00    +0.023 A 
ATOM      3  C   UNL     1      85.631  47.953  43.723  0.00  0.00    +0.133 A 
ATOM      4  C   UNL     1      84.322  48.488  43.698  0.00  0.00    +0.041 A 
ATOM      5  C   UNL     1      84.123  49.863  43.972  0.00  0.00    -0.022 A 
ATOM      6  C   UNL     1      85.217  50.671  44.359  0.00  0.00    +0.029 A 
ATOM      7  C   UNL     1      82.715  50.423  43.918  0.00  0.00    -0.004 C 
ATOM      8  C   UNL     1      81.905  49.695  42.834  0.00  0.00    +0.052 C 
ATOM      9  N   UNL     1      82.009  48.249  43.020  0.00  0.00    -0.284 NA
ATOM     10  C   UNL     1      83.113  47.660  43.376  0.00  0.00    +0.044 C 
ATOM     11  C   UNL     1      83.091  46.169  43.537  0.00  0.00    -0.022 C 
ATOM     12  C   UNL     1      80.435  50.113  42.867  0.00  0.00    -0.042 C 
ENDROOT
BRANCH   6  13
ATOM     13  C   UNL     1      85.023  52.103  44.714  0.00  0.00    -0.003 A 
ATOM     14  C   UNL     1      84.933  52.469  46.071  0.00  0.00    -0.039 A 
ATOM     15  C   UNL     1      85.035  51.436  47.166  0.00  0.00    -0.039 C 
ATOM     16  C   UNL     1      84.754  53.811  46.416  0.00  0.00    -0.016 A 
ATOM     17  C   UNL     1      84.659  54.814  45.436  0.00  0.00    +0.132 A 
ATOM     18  C   UNL     1      84.747  54.465  44.064  0.00  0.00    +0.066 A 
ATOM     19  C   UNL     1      84.934  53.097  43.706  0.00  0.00    -0.003 A 
ATOM     20  C   UNL     1      85.021  52.748  42.341  0.00  0.00    -0.053 A 
ATOM     21  C   UNL     1      84.929  53.717  41.351  0.00  0.00    -0.058 A 
ATOM     22  C   UNL     1      84.749  55.051  41.690  0.00  0.00    -0.019 A 
ATOM     23  C   UNL     1      84.656  55.447  43.038  0.00  0.00    +0.131 A 
BRANCH  23  24
ATOM     24  O   UNL     1      84.472  56.800  43.372  0.00  0.00    -0.494 OA
ATOM     25  C   UNL     1      85.514  57.764  43.489  0.00  0.00    +0.079 C 
ENDBRANCH  23  24
BRANCH  17  26
ATOM     26  O   UNL     1      84.476  56.159  45.806  0.00  0.00    -0.494 OA
ATOM     27  C   UNL     1      83.543  56.625  46.777  0.00  0.00    +0.079 C 
ENDBRANCH  17  26
ENDBRANCH   6  13
BRANCH   1  29
ATOM     28  C   UNL     1      88.268  50.890  46.031  0.00  0.00    +0.079 C 
ATOM     29  O   UNL     1      87.574  50.968  44.789  0.00  0.00    -0.494 OA
ENDBRANCH   1  29
BRANCH   3  30
ATOM     30  O   UNL     1      85.840  46.611  43.363  0.00  0.00    -0.494 OA
ATOM     31  C   UNL     1      86.860  46.147  42.485  0.00  0.00    +0.079 C 
ENDBRANCH   3  30
TORSDOF 5
ENDMDL
