MODEL 1
REMARK VINA RESULT:    -6.749      0.000      0.000
REMARK INTER + INTRA:         -15.186
REMARK INTER:                 -12.392
REMARK INTRA:                  -2.794
REMARK UNBOUND:                -2.322
REMARK  Name = 
REMARK  17 active torsions:
REMARK  status: ('A' for Active; 'I' for Inactive)
REMARK    1  A    between atoms: C_1  and  C_2
REMARK    2  A    between atoms: C_2  and  C_3
REMARK    3  A    between atoms: C_3  and  C_4
REMARK    4  A    between atoms: C_4  and  C_5
REMARK    5  A    between atoms: C_5  and  C_6
REMARK    6  A    between atoms: C_6  and  C_7
REMARK    7  A    between atoms: C_7  and  C_8
REMARK    8  A    between atoms: C_8  and  C_9
REMARK    9  A    between atoms: C_9  and  C_10
REMARK   10  A    between atoms: C_10  and  C_11
REMARK   11  A    between atoms: C_11  and  C_12
REMARK   12  A    between atoms: C_12  and  C_13
REMARK   13  A    between atoms: C_13  and  C_14
REMARK   14  A    between atoms: C_14  and  C_15
REMARK   15  A    between atoms: C_15  and  C_16
REMARK   16  A    between atoms: C_20  and  O_25
REMARK   17  A    between atoms: C_21  and  C_22
REMARK                            x       y       z     vdW  Elec       q    Type
REMARK                         _______ _______ _______ _____ _____    ______ ____
ROOT
ATOM      1  C   UNL     1      86.881  52.235  46.587  0.00  0.00    -0.053 C 
ENDROOT
BRANCH   1   2
ATOM      2  C   UNL     1      87.503  51.301  45.537  0.00  0.00    -0.049 C 
BRANCH   2   3
ATOM      3  C   UNL     1      87.588  51.955  44.150  0.00  0.00    -0.027 C 
BRANCH   3   4
ATOM      4  C   UNL     1      88.205  51.029  43.118  0.00  0.00    -0.030 A 
ATOM      5  C   UNL     1      88.537  49.725  43.522  0.00  0.00    -0.058 A 
ATOM      6  C   UNL     1      89.161  48.840  42.645  0.00  0.00    -0.058 A 
ATOM      7  C   UNL     1      89.471  49.248  41.350  0.00  0.00    -0.019 A 
ATOM      8  C   UNL     1      89.150  50.537  40.912  0.00  0.00    +0.131 A 
ATOM      9  C   UNL     1      88.519  51.446  41.796  0.00  0.00    +0.103 A 
BRANCH   9  10
ATOM     10  C   UNL     1      88.225  52.816  41.336  0.00  0.00    +0.341 C 
ATOM     11  O   UNL     1      87.236  53.036  40.588  0.00  0.00    -0.245 OA
ATOM     12  O   UNL     1      89.055  53.865  41.711  0.00  0.00    -0.477 OA
ENDBRANCH   9  10
BRANCH   8  13
ATOM     13  O   UNL     1      89.459  50.878  39.592  0.00  0.00    -0.506 OA
ATOM     14  H   UNL     1      89.114  50.369  38.884  0.00  0.00    +0.000 HD
ENDBRANCH   8  13
ENDBRANCH   3   4
ENDBRANCH   2   3
ENDBRANCH   1   2
BRANCH   1  15
ATOM     15  C   UNL     1      86.581  51.521  47.914  0.00  0.00    -0.053 C 
BRANCH  15  16
ATOM     16  C   UNL     1      85.563  52.281  48.781  0.00  0.00    -0.053 C 
BRANCH  16  17
ATOM     17  C   UNL     1      85.670  53.808  48.610  0.00  0.00    -0.053 C 
BRANCH  17  18
ATOM     18  C   UNL     1      84.414  54.472  48.014  0.00  0.00    -0.053 C 
BRANCH  18  19
ATOM     19  C   UNL     1      84.666  55.925  47.571  0.00  0.00    -0.053 C 
BRANCH  19  20
ATOM     20  C   UNL     1      86.018  56.099  46.859  0.00  0.00    -0.053 C 
BRANCH  20  21
ATOM     21  C   UNL     1      85.854  56.615  45.419  0.00  0.00    -0.053 C 
BRANCH  21  22
ATOM     22  C   UNL     1      86.726  55.853  44.408  0.00  0.00    -0.053 C 
BRANCH  22  23
ATOM     23  C   UNL     1      85.894  55.016  43.421  0.00  0.00    -0.053 C 
BRANCH  23  24
ATOM     24  C   UNL     1      84.683  54.334  44.084  0.00  0.00    -0.053 C 
BRANCH  24  26
ATOM     25  C   UNL     1      83.865  51.928  44.396  0.00  0.00    -0.065 C 
ATOM     26  C   UNL     1      84.212  53.035  43.403  0.00  0.00    -0.056 C 
ENDBRANCH  24  26
ENDBRANCH  23  24
ENDBRANCH  22  23
ENDBRANCH  21  22
ENDBRANCH  20  21
ENDBRANCH  19  20
ENDBRANCH  18  19
ENDBRANCH  17  18
ENDBRANCH  16  17
ENDBRANCH  15  16
ENDBRANCH   1  15
TORSDOF 16
ENDMDL
MODEL 2
REMARK VINA RESULT:    -6.739      2.276      4.484
REMARK INTER + INTRA:         -15.167
REMARK INTER:                 -12.122
REMARK INTRA:                  -3.045
REMARK UNBOUND:                -2.322
REMARK  Name = 
REMARK  17 active torsions:
REMARK  status: ('A' for Active; 'I' for Inactive)
REMARK    1  A    between atoms: C_1  and  C_2
REMARK    2  A    between atoms: C_2  and  C_3
REMARK    3  A    between atoms: C_3  and  C_4
REMARK    4  A    between atoms: C_4  and  C_5
REMARK    5  A    between atoms: C_5  and  C_6
REMARK    6  A    between atoms: C_6  and  C_7
REMARK    7  A    between atoms: C_7  and  C_8
REMARK    8  A    between atoms: C_8  and  C_9
REMARK    9  A    between atoms: C_9  and  C_10
REMARK   10  A    between atoms: C_10  and  C_11
REMARK   11  A    between atoms: C_11  and  C_12
REMARK   12  A    between atoms: C_12  and  C_13
REMARK   13  A    between atoms: C_13  and  C_14
REMARK   14  A    between atoms: C_14  and  C_15
REMARK   15  A    between atoms: C_15  and  C_16
REMARK   16  A    between atoms: C_20  and  O_25
REMARK   17  A    between atoms: C_21  and  C_22
REMARK                            x       y       z     vdW  Elec       q    Type
REMARK                         _______ _______ _______ _____ _____    ______ ____
ROOT
ATOM      1  C   UNL     1      85.701  53.060  44.876  0.00  0.00    -0.053 C 
ENDROOT
BRANCH   1   2
ATOM      2  C   UNL     1      84.228  52.658  44.697  0.00  0.00    -0.049 C 
BRANCH   2   3
ATOM      3  C   UNL     1      83.966  51.986  43.342  0.00  0.00    -0.027 C 
BRANCH   3   4
ATOM      4  C   UNL     1      83.807  52.998  42.223  0.00  0.00    -0.030 A 
ATOM      5  C   UNL     1      82.553  53.610  42.064  0.00  0.00    -0.058 A 
ATOM      6  C   UNL     1      82.318  54.504  41.022  0.00  0.00    -0.058 A 
ATOM      7  C   UNL     1      83.334  54.797  40.115  0.00  0.00    -0.019 A 
ATOM      8  C   UNL     1      84.597  54.211  40.246  0.00  0.00    +0.131 A 
ATOM      9  C   UNL     1      84.846  53.297  41.299  0.00  0.00    +0.103 A 
BRANCH   9  10
ATOM     10  C   UNL     1      86.169  52.653  41.401  0.00  0.00    +0.341 C 
ATOM     11  O   UNL     1      86.272  51.400  41.330  0.00  0.00    -0.245 OA
ATOM     12  O   UNL     1      87.303  53.431  41.596  0.00  0.00    -0.477 OA
ENDBRANCH   9  10
BRANCH   8  13
ATOM     13  O   UNL     1      85.585  54.567  39.323  0.00  0.00    -0.506 OA
ATOM     14  H   UNL     1      86.450  54.772  39.619  0.00  0.00    +0.000 HD
ENDBRANCH   8  13
ENDBRANCH   3   4
ENDBRANCH   2   3
ENDBRANCH   1   2
BRANCH   1  15
ATOM     15  C   UNL     1      86.590  51.882  45.306  0.00  0.00    -0.053 C 
BRANCH  15  16
ATOM     16  C   UNL     1      87.278  52.121  46.660  0.00  0.00    -0.053 C 
BRANCH  16  17
ATOM     17  C   UNL     1      86.827  51.113  47.735  0.00  0.00    -0.053 C 
BRANCH  17  18
ATOM     18  C   UNL     1      86.035  51.736  48.901  0.00  0.00    -0.053 C 
BRANCH  18  19
ATOM     19  C   UNL     1      85.841  53.254  48.739  0.00  0.00    -0.053 C 
BRANCH  19  20
ATOM     20  C   UNL     1      84.379  53.687  48.941  0.00  0.00    -0.053 C 
BRANCH  20  21
ATOM     21  C   UNL     1      83.829  54.458  47.727  0.00  0.00    -0.053 C 
BRANCH  21  22
ATOM     22  C   UNL     1      84.230  55.942  47.730  0.00  0.00    -0.053 C 
BRANCH  22  23
ATOM     23  C   UNL     1      85.495  56.215  46.898  0.00  0.00    -0.053 C 
BRANCH  23  24
ATOM     24  C   UNL     1      85.215  57.052  45.636  0.00  0.00    -0.053 C 
BRANCH  24  26
ATOM     25  C   UNL     1      84.572  56.660  43.188  0.00  0.00    -0.065 C 
ATOM     26  C   UNL     1      84.205  56.430  44.653  0.00  0.00    -0.056 C 
ENDBRANCH  24  26
ENDBRANCH  23  24
ENDBRANCH  22  23
ENDBRANCH  21  22
ENDBRANCH  20  21
ENDBRANCH  19  20
ENDBRANCH  18  19
ENDBRANCH  17  18
ENDBRANCH  16  17
ENDBRANCH  15  16
ENDBRANCH   1  15
TORSDOF 16
ENDMDL
MODEL 3
REMARK VINA RESULT:    -6.640      2.481      6.068
REMARK INTER + INTRA:         -14.978
REMARK INTER:                 -11.697
REMARK INTRA:                  -3.281
REMARK UNBOUND:                -2.322
REMARK  Name = 
REMARK  17 active torsions:
REMARK  status: ('A' for Active; 'I' for Inactive)
REMARK    1  A    between atoms: C_1  and  C_2
REMARK    2  A    between atoms: C_2  and  C_3
REMARK    3  A    between atoms: C_3  and  C_4
REMARK    4  A    between atoms: C_4  and  C_5
REMARK    5  A    between atoms: C_5  and  C_6
REMARK    6  A    between atoms: C_6  and  C_7
REMARK    7  A    between atoms: C_7  and  C_8
REMARK    8  A    between atoms: C_8  and  C_9
REMARK    9  A    between atoms: C_9  and  C_10
REMARK   10  A    between atoms: C_10  and  C_11
REMARK   11  A    between atoms: C_11  and  C_12
REMARK   12  A    between atoms: C_12  and  C_13
REMARK   13  A    between atoms: C_13  and  C_14
REMARK   14  A    between atoms: C_14  and  C_15
REMARK   15  A    between atoms: C_15  and  C_16
REMARK   16  A    between atoms: C_20  and  O_25
REMARK   17  A    between atoms: C_21  and  C_22
REMARK                            x       y       z     vdW  Elec       q    Type
REMARK                         _______ _______ _______ _____ _____    ______ ____
ROOT
ATOM      1  C   UNL     1      85.460  52.587  46.607  0.00  0.00    -0.053 C 
ENDROOT
BRANCH   1   2
ATOM      2  C   UNL     1      84.829  53.672  45.720  0.00  0.00    -0.049 C 
BRANCH   2   3
ATOM      3  C   UNL     1      85.210  53.512  44.241  0.00  0.00    -0.027 C 
BRANCH   3   4
ATOM      4  C   UNL     1      84.015  53.147  43.380  0.00  0.00    -0.030 A 
ATOM      5  C   UNL     1      83.461  51.865  43.534  0.00  0.00    -0.058 A 
ATOM      6  C   UNL     1      82.402  51.440  42.735  0.00  0.00    -0.058 A 
ATOM      7  C   UNL     1      81.883  52.290  41.761  0.00  0.00    -0.019 A 
ATOM      8  C   UNL     1      82.405  53.574  41.582  0.00  0.00    +0.131 A 
ATOM      9  C   UNL     1      83.485  54.015  42.386  0.00  0.00    +0.103 A 
BRANCH   9  10
ATOM     10  C   UNL     1      84.055  55.356  42.159  0.00  0.00    +0.341 C 
ATOM     11  O   UNL     1      84.798  55.570  41.165  0.00  0.00    -0.245 OA
ATOM     12  O   UNL     1      83.789  56.382  43.057  0.00  0.00    -0.477 OA
ENDBRANCH   9  10
BRANCH   8  13
ATOM     13  O   UNL     1      81.822  54.391  40.609  0.00  0.00    -0.506 OA
ATOM     14  H   UNL     1      82.171  55.245  40.444  0.00  0.00    +0.000 HD
ENDBRANCH   8  13
ENDBRANCH   3   4
ENDBRANCH   2   3
ENDBRANCH   1   2
BRANCH   1  15
ATOM     15  C   UNL     1      86.996  52.603  46.564  0.00  0.00    -0.053 C 
BRANCH  15  16
ATOM     16  C   UNL     1      87.604  51.192  46.516  0.00  0.00    -0.053 C 
BRANCH  16  17
ATOM     17  C   UNL     1      86.713  50.193  45.755  0.00  0.00    -0.053 C 
BRANCH  17  18
ATOM     18  C   UNL     1      87.374  49.568  44.511  0.00  0.00    -0.053 C 
BRANCH  18  19
ATOM     19  C   UNL     1      86.479  49.648  43.262  0.00  0.00    -0.053 C 
BRANCH  19  20
ATOM     20  C   UNL     1      86.858  50.818  42.338  0.00  0.00    -0.053 C 
BRANCH  20  21
ATOM     21  C   UNL     1      88.211  51.444  42.719  0.00  0.00    -0.053 C 
BRANCH  21  22
ATOM     22  C   UNL     1      89.262  51.321  41.603  0.00  0.00    -0.053 C 
BRANCH  22  23
ATOM     23  C   UNL     1      89.679  49.863  41.341  0.00  0.00    -0.053 C 
BRANCH  23  24
ATOM     24  C   UNL     1      90.543  49.273  42.470  0.00  0.00    -0.053 C 
BRANCH  24  26
ATOM     25  C   UNL     1      89.095  47.212  42.010  0.00  0.00    -0.065 C 
ATOM     26  C   UNL     1      90.266  47.794  42.800  0.00  0.00    -0.056 C 
ENDBRANCH  24  26
ENDBRANCH  23  24
ENDBRANCH  22  23
ENDBRANCH  21  22
ENDBRANCH  20  21
ENDBRANCH  19  20
ENDBRANCH  18  19
ENDBRANCH  17  18
ENDBRANCH  16  17
ENDBRANCH  15  16
ENDBRANCH   1  15
TORSDOF 16
ENDMDL
MODEL 4
REMARK VINA RESULT:    -6.619      1.080      2.564
REMARK INTER + INTRA:         -14.938
REMARK INTER:                 -12.401
REMARK INTRA:                  -2.537
REMARK UNBOUND:                -2.322
REMARK  Name = 
REMARK  17 active torsions:
REMARK  status: ('A' for Active; 'I' for Inactive)
REMARK    1  A    between atoms: C_1  and  C_2
REMARK    2  A    between atoms: C_2  and  C_3
REMARK    3  A    between atoms: C_3  and  C_4
REMARK    4  A    between atoms: C_4  and  C_5
REMARK    5  A    between atoms: C_5  and  C_6
REMARK    6  A    between atoms: C_6  and  C_7
REMARK    7  A    between atoms: C_7  and  C_8
REMARK    8  A    between atoms: C_8  and  C_9
REMARK    9  A    between atoms: C_9  and  C_10
REMARK   10  A    between atoms: C_10  and  C_11
REMARK   11  A    between atoms: C_11  and  C_12
REMARK   12  A    between atoms: C_12  and  C_13
REMARK   13  A    between atoms: C_13  and  C_14
REMARK   14  A    between atoms: C_14  and  C_15
REMARK   15  A    between atoms: C_15  and  C_16
REMARK   16  A    between atoms: C_20  and  O_25
REMARK   17  A    between atoms: C_21  and  C_22
REMARK                            x       y       z     vdW  Elec       q    Type
REMARK                         _______ _______ _______ _____ _____    ______ ____
ROOT
ATOM      1  C   UNL     1      87.219  51.580  46.870  0.00  0.00    -0.053 C 
ENDROOT
BRANCH   1   2
ATOM      2  C   UNL     1      87.521  50.740  45.618  0.00  0.00    -0.049 C 
BRANCH   2   3
ATOM      3  C   UNL     1      87.628  51.599  44.350  0.00  0.00    -0.027 C 
BRANCH   3   4
ATOM      4  C   UNL     1      88.250  50.837  43.195  0.00  0.00    -0.030 A 
ATOM      5  C   UNL     1      88.667  49.515  43.429  0.00  0.00    -0.058 A 
ATOM      6  C   UNL     1      89.301  48.777  42.433  0.00  0.00    -0.058 A 
ATOM      7  C   UNL     1      89.537  49.350  41.185  0.00  0.00    -0.019 A 
ATOM      8  C   UNL     1      89.131  50.661  40.915  0.00  0.00    +0.131 A 
ATOM      9  C   UNL     1      88.489  51.423  41.922  0.00  0.00    +0.103 A 
BRANCH   9  10
ATOM     10  C   UNL     1      88.104  52.818  41.638  0.00  0.00    +0.341 C 
ATOM     11  O   UNL     1      86.906  53.106  41.376  0.00  0.00    -0.245 OA
ATOM     12  O   UNL     1      89.071  53.815  41.639  0.00  0.00    -0.477 OA
ENDBRANCH   9  10
BRANCH   8  13
ATOM     13  O   UNL     1      89.367  51.171  39.635  0.00  0.00    -0.506 OA
ATOM     14  H   UNL     1      90.146  50.933  39.173  0.00  0.00    +0.000 HD
ENDBRANCH   8  13
ENDBRANCH   3   4
ENDBRANCH   2   3
ENDBRANCH   1   2
BRANCH   1  15
ATOM     15  C   UNL     1      86.440  52.865  46.549  0.00  0.00    -0.053 C 
BRANCH  15  16
ATOM     16  C   UNL     1      84.917  52.673  46.630  0.00  0.00    -0.053 C 
BRANCH  16  17
ATOM     17  C   UNL     1      84.226  52.866  45.267  0.00  0.00    -0.053 C 
BRANCH  17  18
ATOM     18  C   UNL     1      85.006  53.753  44.278  0.00  0.00    -0.053 C 
BRANCH  18  19
ATOM     19  C   UNL     1      84.130  54.855  43.654  0.00  0.00    -0.053 C 
BRANCH  19  20
ATOM     20  C   UNL     1      84.962  56.000  43.051  0.00  0.00    -0.053 C 
BRANCH  20  21
ATOM     21  C   UNL     1      86.072  56.477  44.004  0.00  0.00    -0.053 C 
BRANCH  21  22
ATOM     22  C   UNL     1      85.952  57.967  44.363  0.00  0.00    -0.053 C 
BRANCH  22  23
ATOM     23  C   UNL     1      84.957  58.221  45.510  0.00  0.00    -0.053 C 
BRANCH  23  24
ATOM     24  C   UNL     1      85.067  57.182  46.641  0.00  0.00    -0.053 C 
BRANCH  24  26
ATOM     25  C   UNL     1      83.838  55.668  48.302  0.00  0.00    -0.065 C 
ATOM     26  C   UNL     1      83.748  56.477  47.009  0.00  0.00    -0.056 C 
ENDBRANCH  24  26
ENDBRANCH  23  24
ENDBRANCH  22  23
ENDBRANCH  21  22
ENDBRANCH  20  21
ENDBRANCH  19  20
ENDBRANCH  18  19
ENDBRANCH  17  18
ENDBRANCH  16  17
ENDBRANCH  15  16
ENDBRANCH   1  15
TORSDOF 16
ENDMDL
MODEL 5
REMARK VINA RESULT:    -6.619      1.525      3.493
REMARK INTER + INTRA:         -14.938
REMARK INTER:                 -11.979
REMARK INTRA:                  -2.959
REMARK UNBOUND:                -2.322
REMARK  Name = 
REMARK  17 active torsions:
REMARK  status: ('A' for Active; 'I' for Inactive)
REMARK    1  A    between atoms: C_1  and  C_2
REMARK    2  A    between atoms: C_2  and  C_3
REMARK    3  A    between atoms: C_3  and  C_4
REMARK    4  A    between atoms: C_4  and  C_5
REMARK    5  A    between atoms: C_5  and  C_6
REMARK    6  A    between atoms: C_6  and  C_7
REMARK    7  A    between atoms: C_7  and  C_8
REMARK    8  A    between atoms: C_8  and  C_9
REMARK    9  A    between atoms: C_9  and  C_10
REMARK   10  A    between atoms: C_10  and  C_11
REMARK   11  A    between atoms: C_11  and  C_12
REMARK   12  A    between atoms: C_12  and  C_13
REMARK   13  A    between atoms: C_13  and  C_14
REMARK   14  A    between atoms: C_14  and  C_15
REMARK   15  A    between atoms: C_15  and  C_16
REMARK   16  A    between atoms: C_20  and  O_25
REMARK   17  A    between atoms: C_21  and  C_22
REMARK                            x       y       z     vdW  Elec       q    Type
REMARK                         _______ _______ _______ _____ _____    ______ ____
ROOT
ATOM      1  C   UNL     1      86.890  49.537  45.589  0.00  0.00    -0.053 C 
ENDROOT
BRANCH   1   2
ATOM      2  C   UNL     1      86.923  49.953  44.110  0.00  0.00    -0.049 C 
BRANCH   2   3
ATOM      3  C   UNL     1      87.226  51.447  43.929  0.00  0.00    -0.027 C 
BRANCH   3   4
ATOM      4  C   UNL     1      86.244  52.120  42.989  0.00  0.00    -0.030 A 
ATOM      5  C   UNL     1      84.892  52.161  43.371  0.00  0.00    -0.058 A 
ATOM      6  C   UNL     1      83.926  52.708  42.530  0.00  0.00    -0.058 A 
ATOM      7  C   UNL     1      84.294  53.219  41.288  0.00  0.00    -0.019 A 
ATOM      8  C   UNL     1      85.630  53.200  40.877  0.00  0.00    +0.131 A 
ATOM      9  C   UNL     1      86.621  52.642  41.722  0.00  0.00    +0.103 A 
BRANCH   9  10
ATOM     10  C   UNL     1      88.021  52.589  41.258  0.00  0.00    +0.341 C 
ATOM     11  O   UNL     1      88.863  53.420  41.689  0.00  0.00    -0.245 OA
ATOM     12  O   UNL     1      88.405  51.633  40.327  0.00  0.00    -0.477 OA
ENDBRANCH   9  10
BRANCH   8  13
ATOM     13  O   UNL     1      85.942  53.755  39.632  0.00  0.00    -0.506 OA
ATOM     14  H   UNL     1      86.155  54.665  39.566  0.00  0.00    +0.000 HD
ENDBRANCH   8  13
ENDBRANCH   3   4
ENDBRANCH   2   3
ENDBRANCH   1   2
BRANCH   1  15
ATOM     15  C   UNL     1      87.608  50.541  46.505  0.00  0.00    -0.053 C 
BRANCH  15  16
ATOM     16  C   UNL     1      87.127  50.463  47.964  0.00  0.00    -0.053 C 
BRANCH  16  17
ATOM     17  C   UNL     1      86.323  51.707  48.385  0.00  0.00    -0.053 C 
BRANCH  17  18
ATOM     18  C   UNL     1      85.781  52.544  47.210  0.00  0.00    -0.053 C 
BRANCH  18  19
ATOM     19  C   UNL     1      84.353  53.061  47.462  0.00  0.00    -0.053 C 
BRANCH  19  20
ATOM     20  C   UNL     1      84.301  54.140  48.556  0.00  0.00    -0.053 C 
BRANCH  20  21
ATOM     21  C   UNL     1      83.359  55.299  48.185  0.00  0.00    -0.053 C 
BRANCH  21  22
ATOM     22  C   UNL     1      84.060  56.402  47.374  0.00  0.00    -0.053 C 
BRANCH  22  23
ATOM     23  C   UNL     1      85.588  56.224  47.330  0.00  0.00    -0.053 C 
BRANCH  23  24
ATOM     24  C   UNL     1      86.125  56.005  45.903  0.00  0.00    -0.053 C 
BRANCH  24  26
ATOM     25  C   UNL     1      85.446  56.045  43.434  0.00  0.00    -0.065 C 
ATOM     26  C   UNL     1      85.059  55.636  44.854  0.00  0.00    -0.056 C 
ENDBRANCH  24  26
ENDBRANCH  23  24
ENDBRANCH  22  23
ENDBRANCH  21  22
ENDBRANCH  20  21
ENDBRANCH  19  20
ENDBRANCH  18  19
ENDBRANCH  17  18
ENDBRANCH  16  17
ENDBRANCH  15  16
ENDBRANCH   1  15
TORSDOF 16
ENDMDL
MODEL 6
REMARK VINA RESULT:    -6.618      3.072      6.493
REMARK INTER + INTRA:         -14.937
REMARK INTER:                 -11.895
REMARK INTRA:                  -3.042
REMARK UNBOUND:                -2.322
REMARK  Name = 
REMARK  17 active torsions:
REMARK  status: ('A' for Active; 'I' for Inactive)
REMARK    1  A    between atoms: C_1  and  C_2
REMARK    2  A    between atoms: C_2  and  C_3
REMARK    3  A    between atoms: C_3  and  C_4
REMARK    4  A    between atoms: C_4  and  C_5
REMARK    5  A    between atoms: C_5  and  C_6
REMARK    6  A    between atoms: C_6  and  C_7
REMARK    7  A    between atoms: C_7  and  C_8
REMARK    8  A    between atoms: C_8  and  C_9
REMARK    9  A    between atoms: C_9  and  C_10
REMARK   10  A    between atoms: C_10  and  C_11
REMARK   11  A    between atoms: C_11  and  C_12
REMARK   12  A    between atoms: C_12  and  C_13
REMARK   13  A    between atoms: C_13  and  C_14
REMARK   14  A    between atoms: C_14  and  C_15
REMARK   15  A    between atoms: C_15  and  C_16
REMARK   16  A    between atoms: C_20  and  O_25
REMARK   17  A    between atoms: C_21  and  C_22
REMARK                            x       y       z     vdW  Elec       q    Type
REMARK                         _______ _______ _______ _____ _____    ______ ____
ROOT
ATOM      1  C   UNL     1      84.605  53.165  44.197  0.00  0.00    -0.053 C 
ENDROOT
BRANCH   1   2
ATOM      2  C   UNL     1      86.063  53.247  43.714  0.00  0.00    -0.049 C 
BRANCH   2   3
ATOM      3  C   UNL     1      86.570  54.693  43.629  0.00  0.00    -0.027 C 
BRANCH   3   4
ATOM      4  C   UNL     1      86.231  55.491  44.873  0.00  0.00    -0.030 A 
ATOM      5  C   UNL     1      86.691  55.008  46.110  0.00  0.00    -0.058 A 
ATOM      6  C   UNL     1      86.367  55.656  47.299  0.00  0.00    -0.058 A 
ATOM      7  C   UNL     1      85.570  56.798  47.273  0.00  0.00    -0.019 A 
ATOM      8  C   UNL     1      85.099  57.311  46.061  0.00  0.00    +0.131 A 
ATOM      9  C   UNL     1      85.418  56.658  44.846  0.00  0.00    +0.103 A 
BRANCH   9  10
ATOM     10  C   UNL     1      84.879  57.185  43.578  0.00  0.00    +0.341 C 
ATOM     11  O   UNL     1      85.298  58.280  43.118  0.00  0.00    -0.245 OA
ATOM     12  O   UNL     1      83.892  56.482  42.901  0.00  0.00    -0.477 OA
ENDBRANCH   9  10
BRANCH   8  13
ATOM     13  O   UNL     1      84.328  58.477  46.097  0.00  0.00    -0.506 OA
ATOM     14  H   UNL     1      83.807  58.717  45.356  0.00  0.00    +0.000 HD
ENDBRANCH   8  13
ENDBRANCH   3   4
ENDBRANCH   2   3
ENDBRANCH   1   2
BRANCH   1  15
ATOM     15  C   UNL     1      83.876  51.917  43.677  0.00  0.00    -0.053 C 
BRANCH  15  16
ATOM     16  C   UNL     1      83.902  50.752  44.681  0.00  0.00    -0.053 C 
BRANCH  16  17
ATOM     17  C   UNL     1      84.674  49.531  44.146  0.00  0.00    -0.053 C 
BRANCH  17  18
ATOM     18  C   UNL     1      85.767  49.002  45.095  0.00  0.00    -0.053 C 
BRANCH  18  19
ATOM     19  C   UNL     1      87.134  49.668  44.852  0.00  0.00    -0.053 C 
BRANCH  19  20
ATOM     20  C   UNL     1      87.412  50.820  45.832  0.00  0.00    -0.053 C 
BRANCH  20  21
ATOM     21  C   UNL     1      87.961  50.317  47.179  0.00  0.00    -0.053 C 
BRANCH  21  22
ATOM     22  C   UNL     1      87.090  50.739  48.374  0.00  0.00    -0.053 C 
BRANCH  22  23
ATOM     23  C   UNL     1      86.100  51.863  48.017  0.00  0.00    -0.053 C 
BRANCH  23  24
ATOM     24  C   UNL     1      85.601  52.637  49.251  0.00  0.00    -0.053 C 
BRANCH  24  26
ATOM     25  C   UNL     1      83.726  53.392  47.679  0.00  0.00    -0.065 C 
ATOM     26  C   UNL     1      84.179  53.214  49.128  0.00  0.00    -0.056 C 
ENDBRANCH  24  26
ENDBRANCH  23  24
ENDBRANCH  22  23
ENDBRANCH  21  22
ENDBRANCH  20  21
ENDBRANCH  19  20
ENDBRANCH  18  19
ENDBRANCH  17  18
ENDBRANCH  16  17
ENDBRANCH  15  16
ENDBRANCH   1  15
TORSDOF 16
ENDMDL
MODEL 7
REMARK VINA RESULT:    -6.598      1.552      3.391
REMARK INTER + INTRA:         -14.898
REMARK INTER:                 -11.643
REMARK INTRA:                  -3.255
REMARK UNBOUND:                -2.322
REMARK  Name = 
REMARK  17 active torsions:
REMARK  status: ('A' for Active; 'I' for Inactive)
REMARK    1  A    between atoms: C_1  and  C_2
REMARK    2  A    between atoms: C_2  and  C_3
REMARK    3  A    between atoms: C_3  and  C_4
REMARK    4  A    between atoms: C_4  and  C_5
REMARK    5  A    between atoms: C_5  and  C_6
REMARK    6  A    between atoms: C_6  and  C_7
REMARK    7  A    between atoms: C_7  and  C_8
REMARK    8  A    between atoms: C_8  and  C_9
REMARK    9  A    between atoms: C_9  and  C_10
REMARK   10  A    between atoms: C_10  and  C_11
REMARK   11  A    between atoms: C_11  and  C_12
REMARK   12  A    between atoms: C_12  and  C_13
REMARK   13  A    between atoms: C_13  and  C_14
REMARK   14  A    between atoms: C_14  and  C_15
REMARK   15  A    between atoms: C_15  and  C_16
REMARK   16  A    between atoms: C_20  and  O_25
REMARK   17  A    between atoms: C_21  and  C_22
REMARK                            x       y       z     vdW  Elec       q    Type
REMARK                         _______ _______ _______ _____ _____    ______ ____
ROOT
ATOM      1  C   UNL     1      87.137  49.976  45.907  0.00  0.00    -0.053 C 
ENDROOT
BRANCH   1   2
ATOM      2  C   UNL     1      87.123  50.058  44.372  0.00  0.00    -0.049 C 
BRANCH   2   3
ATOM      3  C   UNL     1      87.585  51.429  43.856  0.00  0.00    -0.027 C 
BRANCH   3   4
ATOM      4  C   UNL     1      86.520  52.112  43.019  0.00  0.00    -0.030 A 
ATOM      5  C   UNL     1      85.220  52.190  43.547  0.00  0.00    -0.058 A 
ATOM      6  C   UNL     1      84.179  52.750  42.809  0.00  0.00    -0.058 A 
ATOM      7  C   UNL     1      84.420  53.236  41.526  0.00  0.00    -0.019 A 
ATOM      8  C   UNL     1      85.702  53.180  40.971  0.00  0.00    +0.131 A 
ATOM      9  C   UNL     1      86.767  52.609  41.710  0.00  0.00    +0.103 A 
BRANCH   9  10
ATOM     10  C   UNL     1      88.105  52.517  41.097  0.00  0.00    +0.341 C 
ATOM     11  O   UNL     1      89.014  53.320  41.435  0.00  0.00    -0.245 OA
ATOM     12  O   UNL     1      88.357  51.555  40.127  0.00  0.00    -0.477 OA
ENDBRANCH   9  10
BRANCH   8  13
ATOM     13  O   UNL     1      85.887  53.711  39.691  0.00  0.00    -0.506 OA
ATOM     14  H   UNL     1      86.293  53.194  39.024  0.00  0.00    +0.000 HD
ENDBRANCH   8  13
ENDBRANCH   3   4
ENDBRANCH   2   3
ENDBRANCH   1   2
BRANCH   1  15
ATOM     15  C   UNL     1      87.239  51.356  46.575  0.00  0.00    -0.053 C 
BRANCH  15  16
ATOM     16  C   UNL     1      86.430  51.446  47.879  0.00  0.00    -0.053 C 
BRANCH  16  17
ATOM     17  C   UNL     1      86.044  52.894  48.234  0.00  0.00    -0.053 C 
BRANCH  17  18
ATOM     18  C   UNL     1      85.430  53.694  47.068  0.00  0.00    -0.053 C 
BRANCH  18  19
ATOM     19  C   UNL     1      86.267  54.930  46.693  0.00  0.00    -0.053 C 
BRANCH  19  20
ATOM     20  C   UNL     1      86.927  54.800  45.311  0.00  0.00    -0.053 C 
BRANCH  20  21
ATOM     21  C   UNL     1      86.840  56.104  44.499  0.00  0.00    -0.053 C 
BRANCH  21  22
ATOM     22  C   UNL     1      85.615  56.150  43.572  0.00  0.00    -0.053 C 
BRANCH  22  23
ATOM     23  C   UNL     1      84.568  57.184  44.024  0.00  0.00    -0.053 C 
BRANCH  23  24
ATOM     24  C   UNL     1      85.154  58.265  44.950  0.00  0.00    -0.053 C 
BRANCH  24  26
ATOM     25  C   UNL     1      83.801  57.348  46.922  0.00  0.00    -0.065 C 
ATOM     26  C   UNL     1      84.301  58.593  46.191  0.00  0.00    -0.056 C 
ENDBRANCH  24  26
ENDBRANCH  23  24
ENDBRANCH  22  23
ENDBRANCH  21  22
ENDBRANCH  20  21
ENDBRANCH  19  20
ENDBRANCH  18  19
ENDBRANCH  17  18
ENDBRANCH  16  17
ENDBRANCH  15  16
ENDBRANCH   1  15
TORSDOF 16
ENDMDL
MODEL 8
REMARK VINA RESULT:    -6.538      4.239      7.036
REMARK INTER + INTRA:         -14.784
REMARK INTER:                 -12.462
REMARK INTRA:                  -2.322
REMARK UNBOUND:                -2.322
REMARK  Name = 
REMARK  17 active torsions:
REMARK  status: ('A' for Active; 'I' for Inactive)
REMARK    1  A    between atoms: C_1  and  C_2
REMARK    2  A    between atoms: C_2  and  C_3
REMARK    3  A    between atoms: C_3  and  C_4
REMARK    4  A    between atoms: C_4  and  C_5
REMARK    5  A    between atoms: C_5  and  C_6
REMARK    6  A    between atoms: C_6  and  C_7
REMARK    7  A    between atoms: C_7  and  C_8
REMARK    8  A    between atoms: C_8  and  C_9
REMARK    9  A    between atoms: C_9  and  C_10
REMARK   10  A    between atoms: C_10  and  C_11
REMARK   11  A    between atoms: C_11  and  C_12
REMARK   12  A    between atoms: C_12  and  C_13
REMARK   13  A    between atoms: C_13  and  C_14
REMARK   14  A    between atoms: C_14  and  C_15
REMARK   15  A    between atoms: C_15  and  C_16
REMARK   16  A    between atoms: C_20  and  O_25
REMARK   17  A    between atoms: C_21  and  C_22
REMARK                            x       y       z     vdW  Elec       q    Type
REMARK                         _______ _______ _______ _____ _____    ______ ____
ROOT
ATOM      1  C   UNL     1      83.044  52.640  41.888  0.00  0.00    -0.053 C 
ENDROOT
BRANCH   1   2
ATOM      2  C   UNL     1      82.335  51.790  42.955  0.00  0.00    -0.049 C 
BRANCH   2   3
ATOM      3  C   UNL     1      81.708  50.518  42.366  0.00  0.00    -0.027 C 
BRANCH   3   4
ATOM      4  C   UNL     1      80.807  49.812  43.361  0.00  0.00    -0.030 A 
ATOM      5  C   UNL     1      79.560  50.394  43.645  0.00  0.00    -0.058 A 
ATOM      6  C   UNL     1      78.706  49.834  44.593  0.00  0.00    -0.058 A 
ATOM      7  C   UNL     1      79.089  48.684  45.280  0.00  0.00    -0.019 A 
ATOM      8  C   UNL     1      80.320  48.074  45.019  0.00  0.00    +0.131 A 
ATOM      9  C   UNL     1      81.198  48.637  44.060  0.00  0.00    +0.103 A 
BRANCH   9  10
ATOM     10  C   UNL     1      82.511  48.009  43.825  0.00  0.00    +0.341 C 
ATOM     11  O   UNL     1      82.598  46.958  43.136  0.00  0.00    -0.245 OA
ATOM     12  O   UNL     1      83.654  48.566  44.384  0.00  0.00    -0.477 OA
ENDBRANCH   9  10
BRANCH   8  13
ATOM     13  O   UNL     1      80.635  46.904  45.717  0.00  0.00    -0.506 OA
ATOM     14  H   UNL     1      80.638  46.906  46.654  0.00  0.00    +0.000 HD
ENDBRANCH   8  13
ENDBRANCH   3   4
ENDBRANCH   2   3
ENDBRANCH   1   2
BRANCH   1  15
ATOM     15  C   UNL     1      82.393  54.019  41.698  0.00  0.00    -0.053 C 
BRANCH  15  16
ATOM     16  C   UNL     1      83.397  55.093  41.248  0.00  0.00    -0.053 C 
BRANCH  16  17
ATOM     17  C   UNL     1      84.451  55.403  42.328  0.00  0.00    -0.053 C 
BRANCH  17  18
ATOM     18  C   UNL     1      83.950  56.315  43.464  0.00  0.00    -0.053 C 
BRANCH  18  19
ATOM     19  C   UNL     1      84.971  57.402  43.845  0.00  0.00    -0.053 C 
BRANCH  19  20
ATOM     20  C   UNL     1      84.644  58.076  45.187  0.00  0.00    -0.053 C 
BRANCH  20  21
ATOM     21  C   UNL     1      84.529  57.059  46.336  0.00  0.00    -0.053 C 
BRANCH  21  22
ATOM     22  C   UNL     1      85.896  56.547  46.819  0.00  0.00    -0.053 C 
BRANCH  22  23
ATOM     23  C   UNL     1      86.006  55.013  46.767  0.00  0.00    -0.053 C 
BRANCH  23  24
ATOM     24  C   UNL     1      84.645  54.320  46.568  0.00  0.00    -0.053 C 
BRANCH  24  26
ATOM     25  C   UNL     1      85.839  53.059  44.686  0.00  0.00    -0.065 C 
ATOM     26  C   UNL     1      84.678  53.064  45.678  0.00  0.00    -0.056 C 
ENDBRANCH  24  26
ENDBRANCH  23  24
ENDBRANCH  22  23
ENDBRANCH  21  22
ENDBRANCH  20  21
ENDBRANCH  19  20
ENDBRANCH  18  19
ENDBRANCH  17  18
ENDBRANCH  16  17
ENDBRANCH  15  16
ENDBRANCH   1  15
TORSDOF 16
ENDMDL
MODEL 9
REMARK VINA RESULT:    -6.517      3.663      5.163
REMARK INTER + INTRA:         -14.745
REMARK INTER:                 -11.761
REMARK INTRA:                  -2.983
REMARK UNBOUND:                -2.322
REMARK  Name = 
REMARK  17 active torsions:
REMARK  status: ('A' for Active; 'I' for Inactive)
REMARK    1  A    between atoms: C_1  and  C_2
REMARK    2  A    between atoms: C_2  and  C_3
REMARK    3  A    between atoms: C_3  and  C_4
REMARK    4  A    between atoms: C_4  and  C_5
REMARK    5  A    between atoms: C_5  and  C_6
REMARK    6  A    between atoms: C_6  and  C_7
REMARK    7  A    between atoms: C_7  and  C_8
REMARK    8  A    between atoms: C_8  and  C_9
REMARK    9  A    between atoms: C_9  and  C_10
REMARK   10  A    between atoms: C_10  and  C_11
REMARK   11  A    between atoms: C_11  and  C_12
REMARK   12  A    between atoms: C_12  and  C_13
REMARK   13  A    between atoms: C_13  and  C_14
REMARK   14  A    between atoms: C_14  and  C_15
REMARK   15  A    between atoms: C_15  and  C_16
REMARK   16  A    between atoms: C_20  and  O_25
REMARK   17  A    between atoms: C_21  and  C_22
REMARK                            x       y       z     vdW  Elec       q    Type
REMARK                         _______ _______ _______ _____ _____    ______ ____
ROOT
ATOM      1  C   UNL     1      87.640  50.321  45.646  0.00  0.00    -0.053 C 
ENDROOT
BRANCH   1   2
ATOM      2  C   UNL     1      86.501  49.289  45.596  0.00  0.00    -0.049 C 
BRANCH   2   3
ATOM      3  C   UNL     1      86.075  48.959  44.158  0.00  0.00    -0.027 C 
BRANCH   3   4
ATOM      4  C   UNL     1      84.566  48.907  44.007  0.00  0.00    -0.030 A 
ATOM      5  C   UNL     1      83.858  50.119  44.062  0.00  0.00    -0.058 A 
ATOM      6  C   UNL     1      82.467  50.141  43.992  0.00  0.00    -0.058 A 
ATOM      7  C   UNL     1      81.758  48.947  43.871  0.00  0.00    -0.019 A 
ATOM      8  C   UNL     1      82.430  47.723  43.807  0.00  0.00    +0.131 A 
ATOM      9  C   UNL     1      83.844  47.688  43.883  0.00  0.00    +0.103 A 
BRANCH   9  10
ATOM     10  C   UNL     1      84.538  46.387  43.858  0.00  0.00    +0.341 C 
ATOM     11  O   UNL     1      85.152  46.015  42.823  0.00  0.00    -0.245 OA
ATOM     12  O   UNL     1      84.495  45.559  44.972  0.00  0.00    -0.477 OA
ENDBRANCH   9  10
BRANCH   8  13
ATOM     13  O   UNL     1      81.666  46.562  43.655  0.00  0.00    -0.506 OA
ATOM     14  H   UNL     1      81.114  46.270  44.354  0.00  0.00    +0.000 HD
ENDBRANCH   8  13
ENDBRANCH   3   4
ENDBRANCH   2   3
ENDBRANCH   1   2
BRANCH   1  15
ATOM     15  C   UNL     1      87.197  51.718  45.186  0.00  0.00    -0.053 C 
BRANCH  15  16
ATOM     16  C   UNL     1      86.880  52.658  46.360  0.00  0.00    -0.053 C 
BRANCH  16  17
ATOM     17  C   UNL     1      85.423  52.528  46.841  0.00  0.00    -0.053 C 
BRANCH  17  18
ATOM     18  C   UNL     1      85.236  52.698  48.361  0.00  0.00    -0.053 C 
BRANCH  18  19
ATOM     19  C   UNL     1      85.085  54.173  48.777  0.00  0.00    -0.053 C 
BRANCH  19  20
ATOM     20  C   UNL     1      83.820  54.825  48.195  0.00  0.00    -0.053 C 
BRANCH  20  21
ATOM     21  C   UNL     1      84.149  56.022  47.286  0.00  0.00    -0.053 C 
BRANCH  21  22
ATOM     22  C   UNL     1      85.658  56.298  47.183  0.00  0.00    -0.053 C 
BRANCH  22  23
ATOM     23  C   UNL     1      86.187  56.173  45.743  0.00  0.00    -0.053 C 
BRANCH  23  24
ATOM     24  C   UNL     1      85.074  55.888  44.718  0.00  0.00    -0.053 C 
BRANCH  24  26
ATOM     25  C   UNL     1      84.282  53.765  43.523  0.00  0.00    -0.065 C 
ATOM     26  C   UNL     1      85.403  54.791  43.688  0.00  0.00    -0.056 C 
ENDBRANCH  24  26
ENDBRANCH  23  24
ENDBRANCH  22  23
ENDBRANCH  21  22
ENDBRANCH  20  21
ENDBRANCH  19  20
ENDBRANCH  18  19
ENDBRANCH  17  18
ENDBRANCH  16  17
ENDBRANCH  15  16
ENDBRANCH   1  15
TORSDOF 16
ENDMDL
