MODEL 1
REMARK VINA RESULT:    -7.109      0.000      0.000
REMARK INTER + INTRA:          -9.961
REMARK INTER:                  -9.211
REMARK INTRA:                  -0.750
REMARK UNBOUND:                -0.774
REMARK  Name = 
REMARK  7 active torsions:
REMARK  status: ('A' for Active; 'I' for Inactive)
REMARK    1  A    between atoms: C_1  and  O_2
REMARK    2  A    between atoms: O_2  and  C_3
REMARK    3  A    between atoms: C_5  and  C_10
REMARK    4  A    between atoms: C_10  and  C_11
REMARK    5  A    between atoms: C_10  and  O_19
REMARK    6  A    between atoms: C_11  and  C_12
REMARK    7  A    between atoms: C_11  and  O_18
REMARK                            x       y       z     vdW  Elec       q    Type
REMARK                         _______ _______ _______ _____ _____    ______ ____
ROOT
ATOM      1  C   UNL     1      86.252  55.660  44.689  0.00  0.00    +0.143 C 
ENDROOT
BRANCH   1   4
ATOM      2  C   UNL     1      83.817  53.448  42.760  0.00  0.00    +0.130 A 
ATOM      3  C   UNL     1      84.613  53.943  43.806  0.00  0.00    +0.021 A 
ATOM      4  C   UNL     1      85.400  55.083  43.584  0.00  0.00    +0.144 A 
ATOM      5  O   UNL     1      85.375  55.685  42.395  0.00  0.00    -0.424 OA
ATOM      6  C   UNL     1      84.636  55.245  41.382  0.00  0.00    +0.340 A 
ATOM      7  O   UNL     1      84.660  55.857  40.282  0.00  0.00    -0.245 OA
ATOM      8  C   UNL     1      83.835  54.111  41.533  0.00  0.00    +0.065 A 
BRANCH   2  10
ATOM      9  C   UNL     1      81.747  52.141  42.254  0.00  0.00    +0.079 C 
ATOM     10  O   UNL     1      83.004  52.314  42.901  0.00  0.00    -0.495 OA
ENDBRANCH   2  10
ENDBRANCH   1   4
BRANCH   1  11
ATOM     11  O   UNL     1      87.298  56.426  44.144  0.00  0.00    -0.381 OA
ATOM     12  H   UNL     1      86.936  57.238  43.754  0.00  0.00    +0.000 HD
ENDBRANCH   1  11
BRANCH   1  13
ATOM     13  C   UNL     1      85.389  56.502  45.666  0.00  0.00    +0.113 C 
BRANCH  13  14
ATOM     14  C   UNL     1      85.003  55.708  46.900  0.00  0.00    -0.016 A 
ATOM     15  C   UNL     1      85.877  54.729  47.410  0.00  0.00    -0.056 A 
ATOM     16  C   UNL     1      85.525  53.987  48.541  0.00  0.00    -0.061 A 
ATOM     17  C   UNL     1      84.299  54.210  49.173  0.00  0.00    -0.062 A 
ATOM     18  C   UNL     1      83.422  55.175  48.674  0.00  0.00    -0.061 A 
ATOM     19  C   UNL     1      83.769  55.921  47.543  0.00  0.00    -0.056 A 
ENDBRANCH  13  14
BRANCH  13  20
ATOM     20  O   UNL     1      84.239  57.013  45.034  0.00  0.00    -0.384 OA
ATOM     21  H   UNL     1      83.939  57.808  45.501  0.00  0.00    +0.000 HD
ENDBRANCH  13  20
ENDBRANCH   1  13
TORSDOF 6
ENDMDL
MODEL 2
REMARK VINA RESULT:    -7.069      1.218      1.558
REMARK INTER + INTRA:          -9.909
REMARK INTER:                  -9.040
REMARK INTRA:                  -0.869
REMARK UNBOUND:                -0.774
REMARK  Name = 
REMARK  7 active torsions:
REMARK  status: ('A' for Active; 'I' for Inactive)
REMARK    1  A    between atoms: C_1  and  O_2
REMARK    2  A    between atoms: O_2  and  C_3
REMARK    3  A    between atoms: C_5  and  C_10
REMARK    4  A    between atoms: C_10  and  C_11
REMARK    5  A    between atoms: C_10  and  O_19
REMARK    6  A    between atoms: C_11  and  C_12
REMARK    7  A    between atoms: C_11  and  O_18
REMARK                            x       y       z     vdW  Elec       q    Type
REMARK                         _______ _______ _______ _____ _____    ______ ____
ROOT
ATOM      1  C   UNL     1      86.266  54.642  43.509  0.00  0.00    +0.143 C 
ENDROOT
BRANCH   1   4
ATOM      2  C   UNL     1      82.924  54.069  41.763  0.00  0.00    +0.130 A 
ATOM      3  C   UNL     1      83.936  54.019  42.736  0.00  0.00    +0.021 A 
ATOM      4  C   UNL     1      85.162  54.652  42.479  0.00  0.00    +0.144 A 
ATOM      5  O   UNL     1      85.348  55.295  41.327  0.00  0.00    -0.424 OA
ATOM      6  C   UNL     1      84.415  55.362  40.382  0.00  0.00    +0.340 A 
ATOM      7  O   UNL     1      84.654  55.982  39.313  0.00  0.00    -0.245 OA
ATOM      8  C   UNL     1      83.174  54.749  40.570  0.00  0.00    +0.065 A 
BRANCH   2  10
ATOM      9  C   UNL     1      81.486  52.108  42.340  0.00  0.00    +0.079 C 
ATOM     10  O   UNL     1      81.673  53.462  41.942  0.00  0.00    -0.495 OA
ENDBRANCH   2  10
ENDBRANCH   1   4
BRANCH   1  11
ATOM     11  O   UNL     1      87.502  54.377  42.891  0.00  0.00    -0.381 OA
ATOM     12  H   UNL     1      88.015  55.199  42.828  0.00  0.00    +0.000 HD
ENDBRANCH   1  11
BRANCH   1  13
ATOM     13  C   UNL     1      86.304  55.983  44.288  0.00  0.00    +0.113 C 
BRANCH  13  14
ATOM     14  C   UNL     1      85.572  55.882  45.613  0.00  0.00    -0.016 A 
ATOM     15  C   UNL     1      85.994  54.953  46.583  0.00  0.00    -0.056 A 
ATOM     16  C   UNL     1      85.319  54.847  47.803  0.00  0.00    -0.061 A 
ATOM     17  C   UNL     1      84.215  55.662  48.066  0.00  0.00    -0.062 A 
ATOM     18  C   UNL     1      83.784  56.584  47.111  0.00  0.00    -0.061 A 
ATOM     19  C   UNL     1      84.456  56.695  45.889  0.00  0.00    -0.056 A 
ENDBRANCH  13  14
BRANCH  13  20
ATOM     20  O   UNL     1      85.784  57.043  43.521  0.00  0.00    -0.384 OA
ATOM     21  H   UNL     1      86.035  57.888  43.924  0.00  0.00    +0.000 HD
ENDBRANCH  13  20
ENDBRANCH   1  13
TORSDOF 6
ENDMDL
MODEL 3
REMARK VINA RESULT:    -6.973      3.850      5.455
REMARK INTER + INTRA:          -9.785
REMARK INTER:                  -8.993
REMARK INTRA:                  -0.793
REMARK UNBOUND:                -0.774
REMARK  Name = 
REMARK  7 active torsions:
REMARK  status: ('A' for Active; 'I' for Inactive)
REMARK    1  A    between atoms: C_1  and  O_2
REMARK    2  A    between atoms: O_2  and  C_3
REMARK    3  A    between atoms: C_5  and  C_10
REMARK    4  A    between atoms: C_10  and  C_11
REMARK    5  A    between atoms: C_10  and  O_19
REMARK    6  A    between atoms: C_11  and  C_12
REMARK    7  A    between atoms: C_11  and  O_18
REMARK                            x       y       z     vdW  Elec       q    Type
REMARK                         _______ _______ _______ _____ _____    ______ ____
ROOT
ATOM      1  C   UNL     1      87.007  52.570  40.601  0.00  0.00    +0.143 C 
ENDROOT
BRANCH   1   4
ATOM      2  C   UNL     1      83.642  52.885  42.369  0.00  0.00    +0.130 A 
ATOM      3  C   UNL     1      84.763  52.310  41.748  0.00  0.00    +0.021 A 
ATOM      4  C   UNL     1      85.774  53.149  41.253  0.00  0.00    +0.144 A 
ATOM      5  O   UNL     1      85.664  54.470  41.386  0.00  0.00    -0.424 OA
ATOM      6  C   UNL     1      84.617  55.050  41.965  0.00  0.00    +0.340 A 
ATOM      7  O   UNL     1      84.571  56.305  42.056  0.00  0.00    -0.245 OA
ATOM      8  C   UNL     1      83.572  54.275  42.473  0.00  0.00    +0.065 A 
BRANCH   2  10
ATOM      9  C   UNL     1      81.852  51.155  42.140  0.00  0.00    +0.079 C 
ATOM     10  O   UNL     1      82.589  52.117  42.887  0.00  0.00    -0.495 OA
ENDBRANCH   2  10
ENDBRANCH   1   4
BRANCH   1  11
ATOM     11  O   UNL     1      87.208  53.159  39.339  0.00  0.00    -0.381 OA
ATOM     12  H   UNL     1      87.943  52.713  38.888  0.00  0.00    +0.000 HD
ENDBRANCH   1  11
BRANCH   1  13
ATOM     13  C   UNL     1      88.249  52.753  41.512  0.00  0.00    +0.113 C 
BRANCH  13  14
ATOM     14  C   UNL     1      88.611  51.468  42.231  0.00  0.00    -0.016 A 
ATOM     15  C   UNL     1      89.564  50.593  41.674  0.00  0.00    -0.056 A 
ATOM     16  C   UNL     1      89.896  49.402  42.327  0.00  0.00    -0.061 A 
ATOM     17  C   UNL     1      89.282  49.069  43.537  0.00  0.00    -0.062 A 
ATOM     18  C   UNL     1      88.333  49.927  44.097  0.00  0.00    -0.061 A 
ATOM     19  C   UNL     1      87.996  51.120  43.449  0.00  0.00    -0.056 A 
ENDBRANCH  13  14
BRANCH  13  20
ATOM     20  O   UNL     1      88.063  53.797  42.439  0.00  0.00    -0.384 OA
ATOM     21  H   UNL     1      87.897  54.626  41.964  0.00  0.00    +0.000 HD
ENDBRANCH  13  20
ENDBRANCH   1  13
TORSDOF 6
ENDMDL
MODEL 4
REMARK VINA RESULT:    -6.795      7.219      9.928
REMARK INTER + INTRA:          -9.555
REMARK INTER:                  -9.150
REMARK INTRA:                  -0.405
REMARK UNBOUND:                -0.774
REMARK  Name = 
REMARK  7 active torsions:
REMARK  status: ('A' for Active; 'I' for Inactive)
REMARK    1  A    between atoms: C_1  and  O_2
REMARK    2  A    between atoms: O_2  and  C_3
REMARK    3  A    between atoms: C_5  and  C_10
REMARK    4  A    between atoms: C_10  and  C_11
REMARK    5  A    between atoms: C_10  and  O_19
REMARK    6  A    between atoms: C_11  and  C_12
REMARK    7  A    between atoms: C_11  and  O_18
REMARK                            x       y       z     vdW  Elec       q    Type
REMARK                         _______ _______ _______ _____ _____    ______ ____
ROOT
ATOM      1  C   UNL     1      83.962  45.657  43.507  0.00  0.00    +0.143 C 
ENDROOT
BRANCH   1   4
ATOM      2  C   UNL     1      81.523  48.588  43.575  0.00  0.00    +0.130 A 
ATOM      3  C   UNL     1      82.635  47.798  43.241  0.00  0.00    +0.021 A 
ATOM      4  C   UNL     1      82.792  46.546  43.856  0.00  0.00    +0.144 A 
ATOM      5  O   UNL     1      81.886  46.120  44.734  0.00  0.00    -0.424 OA
ATOM      6  C   UNL     1      80.822  46.839  45.076  0.00  0.00    +0.340 A 
ATOM      7  O   UNL     1      80.003  46.381  45.916  0.00  0.00    -0.245 OA
ATOM      8  C   UNL     1      80.608  48.097  44.507  0.00  0.00    +0.065 A 
BRANCH   2  10
ATOM      9  C   UNL     1      82.222  50.929  43.048  0.00  0.00    +0.079 C 
ATOM     10  O   UNL     1      81.294  49.850  43.007  0.00  0.00    -0.495 OA
ENDBRANCH   2  10
ENDBRANCH   1   4
BRANCH   1  11
ATOM     11  O   UNL     1      83.905  45.293  42.149  0.00  0.00    -0.381 OA
ATOM     12  H   UNL     1      84.604  44.648  41.957  0.00  0.00    +0.000 HD
ENDBRANCH   1  11
BRANCH   1  13
ATOM     13  C   UNL     1      85.305  46.357  43.845  0.00  0.00    +0.113 C 
BRANCH  13  14
ATOM     14  C   UNL     1      86.484  45.417  43.677  0.00  0.00    -0.016 A 
ATOM     15  C   UNL     1      86.514  44.192  44.371  0.00  0.00    -0.056 A 
ATOM     16  C   UNL     1      87.601  43.325  44.229  0.00  0.00    -0.061 A 
ATOM     17  C   UNL     1      88.670  43.671  43.399  0.00  0.00    -0.062 A 
ATOM     18  C   UNL     1      88.655  44.885  42.710  0.00  0.00    -0.061 A 
ATOM     19  C   UNL     1      87.570  45.757  42.847  0.00  0.00    -0.056 A 
ENDBRANCH  13  14
BRANCH  13  20
ATOM     20  O   UNL     1      85.294  46.902  45.143  0.00  0.00    -0.384 OA
ATOM     21  H   UNL     1      84.492  46.618  45.607  0.00  0.00    +0.000 HD
ENDBRANCH  13  20
ENDBRANCH   1  13
TORSDOF 6
ENDMDL
MODEL 5
REMARK VINA RESULT:    -6.691     14.210     16.349
REMARK INTER + INTRA:          -9.420
REMARK INTER:                  -8.672
REMARK INTRA:                  -0.748
REMARK UNBOUND:                -0.774
REMARK  Name = 
REMARK  7 active torsions:
REMARK  status: ('A' for Active; 'I' for Inactive)
REMARK    1  A    between atoms: C_1  and  O_2
REMARK    2  A    between atoms: O_2  and  C_3
REMARK    3  A    between atoms: C_5  and  C_10
REMARK    4  A    between atoms: C_10  and  C_11
REMARK    5  A    between atoms: C_10  and  O_19
REMARK    6  A    between atoms: C_11  and  C_12
REMARK    7  A    between atoms: C_11  and  O_18
REMARK                            x       y       z     vdW  Elec       q    Type
REMARK                         _______ _______ _______ _____ _____    ______ ____
ROOT
ATOM      1  C   UNL     1      76.832  49.234  34.276  0.00  0.00    +0.143 C 
ENDROOT
BRANCH   1   4
ATOM      2  C   UNL     1      78.257  47.824  31.031  0.00  0.00    +0.130 A 
ATOM      3  C   UNL     1      77.645  47.882  32.294  0.00  0.00    +0.021 A 
ATOM      4  C   UNL     1      77.506  49.127  32.928  0.00  0.00    +0.144 A 
ATOM      5  O   UNL     1      77.943  50.231  32.325  0.00  0.00    -0.424 OA
ATOM      6  C   UNL     1      78.529  50.216  31.132  0.00  0.00    +0.340 A 
ATOM      7  O   UNL     1      78.924  51.294  30.618  0.00  0.00    -0.245 OA
ATOM      8  C   UNL     1      78.705  49.010  30.449  0.00  0.00    +0.065 A 
BRANCH   2  10
ATOM      9  C   UNL     1      77.619  45.467  30.498  0.00  0.00    +0.079 C 
ATOM     10  O   UNL     1      78.436  46.622  30.333  0.00  0.00    -0.495 OA
ENDBRANCH   2  10
ENDBRANCH   1   4
BRANCH   1  11
ATOM     11  O   UNL     1      77.709  49.817  35.210  0.00  0.00    -0.381 OA
ATOM     12  H   UNL     1      77.671  49.320  36.042  0.00  0.00    +0.000 HD
ENDBRANCH   1  11
BRANCH   1  13
ATOM     13  C   UNL     1      75.511  50.040  34.167  0.00  0.00    +0.113 C 
BRANCH  13  14
ATOM     14  C   UNL     1      74.391  49.203  33.578  0.00  0.00    -0.016 A 
ATOM     15  C   UNL     1      73.592  48.403  34.418  0.00  0.00    -0.056 A 
ATOM     16  C   UNL     1      72.564  47.622  33.881  0.00  0.00    -0.061 A 
ATOM     17  C   UNL     1      72.325  47.627  32.505  0.00  0.00    -0.062 A 
ATOM     18  C   UNL     1      73.113  48.412  31.662  0.00  0.00    -0.061 A 
ATOM     19  C   UNL     1      74.143  49.196  32.193  0.00  0.00    -0.056 A 
ENDBRANCH  13  14
BRANCH  13  20
ATOM     20  O   UNL     1      75.683  51.222  33.421  0.00  0.00    -0.384 OA
ATOM     21  H   UNL     1      74.992  51.281  32.745  0.00  0.00    +0.000 HD
ENDBRANCH  13  20
ENDBRANCH   1  13
TORSDOF 6
ENDMDL
MODEL 6
REMARK VINA RESULT:    -6.677     13.774     16.151
REMARK INTER + INTRA:          -9.403
REMARK INTER:                  -8.598
REMARK INTRA:                  -0.805
REMARK UNBOUND:                -0.774
REMARK  Name = 
REMARK  7 active torsions:
REMARK  status: ('A' for Active; 'I' for Inactive)
REMARK    1  A    between atoms: C_1  and  O_2
REMARK    2  A    between atoms: O_2  and  C_3
REMARK    3  A    between atoms: C_5  and  C_10
REMARK    4  A    between atoms: C_10  and  C_11
REMARK    5  A    between atoms: C_10  and  O_19
REMARK    6  A    between atoms: C_11  and  C_12
REMARK    7  A    between atoms: C_11  and  O_18
REMARK                            x       y       z     vdW  Elec       q    Type
REMARK                         _______ _______ _______ _____ _____    ______ ____
ROOT
ATOM      1  C   UNL     1      76.696  49.302  35.010  0.00  0.00    +0.143 C 
ENDROOT
BRANCH   1   4
ATOM      2  C   UNL     1      77.277  45.650  34.075  0.00  0.00    +0.130 A 
ATOM      3  C   UNL     1      76.907  46.786  34.815  0.00  0.00    +0.021 A 
ATOM      4  C   UNL     1      77.102  48.058  34.256  0.00  0.00    +0.144 A 
ATOM      5  O   UNL     1      77.623  48.174  33.035  0.00  0.00    -0.424 OA
ATOM      6  C   UNL     1      77.987  47.123  32.306  0.00  0.00    +0.340 A 
ATOM      7  O   UNL     1      78.477  47.299  31.160  0.00  0.00    -0.245 OA
ATOM      8  C   UNL     1      77.826  45.828  32.805  0.00  0.00    +0.065 A 
BRANCH   2  10
ATOM      9  C   UNL     1      77.928  43.240  34.182  0.00  0.00    +0.079 C 
ATOM     10  O   UNL     1      77.116  44.346  34.563  0.00  0.00    -0.495 OA
ENDBRANCH   2  10
ENDBRANCH   1   4
BRANCH   1  11
ATOM     11  O   UNL     1      77.834  50.061  35.341  0.00  0.00    -0.381 OA
ATOM     12  H   UNL     1      77.729  50.965  35.002  0.00  0.00    +0.000 HD
ENDBRANCH   1  11
BRANCH   1  13
ATOM     13  C   UNL     1      75.683  50.139  34.184  0.00  0.00    +0.113 C 
BRANCH  13  14
ATOM     14  C   UNL     1      74.525  49.291  33.693  0.00  0.00    -0.016 A 
ATOM     15  C   UNL     1      74.304  49.132  32.311  0.00  0.00    -0.056 A 
ATOM     16  C   UNL     1      73.233  48.360  31.851  0.00  0.00    -0.061 A 
ATOM     17  C   UNL     1      72.371  47.743  32.760  0.00  0.00    -0.062 A 
ATOM     18  C   UNL     1      72.577  47.897  34.133  0.00  0.00    -0.061 A 
ATOM     19  C   UNL     1      73.647  48.668  34.600  0.00  0.00    -0.056 A 
ENDBRANCH  13  14
BRANCH  13  20
ATOM     20  O   UNL     1      76.307  50.789  33.102  0.00  0.00    -0.384 OA
ATOM     21  H   UNL     1      75.786  51.565  32.847  0.00  0.00    +0.000 HD
ENDBRANCH  13  20
ENDBRANCH   1  13
TORSDOF 6
ENDMDL
MODEL 7
REMARK VINA RESULT:    -6.647      7.516      9.218
REMARK INTER + INTRA:          -9.364
REMARK INTER:                  -9.121
REMARK INTRA:                  -0.243
REMARK UNBOUND:                -0.774
REMARK  Name = 
REMARK  7 active torsions:
REMARK  status: ('A' for Active; 'I' for Inactive)
REMARK    1  A    between atoms: C_1  and  O_2
REMARK    2  A    between atoms: O_2  and  C_3
REMARK    3  A    between atoms: C_5  and  C_10
REMARK    4  A    between atoms: C_10  and  C_11
REMARK    5  A    between atoms: C_10  and  O_19
REMARK    6  A    between atoms: C_11  and  C_12
REMARK    7  A    between atoms: C_11  and  O_18
REMARK                            x       y       z     vdW  Elec       q    Type
REMARK                         _______ _______ _______ _____ _____    ______ ____
ROOT
ATOM      1  C   UNL     1      88.483  47.751  41.716  0.00  0.00    +0.143 C 
ENDROOT
BRANCH   1   4
ATOM      2  C   UNL     1      87.389  44.443  43.267  0.00  0.00    +0.130 A 
ATOM      3  C   UNL     1      88.097  45.368  42.482  0.00  0.00    +0.021 A 
ATOM      4  C   UNL     1      87.732  46.722  42.527  0.00  0.00    +0.144 A 
ATOM      5  O   UNL     1      86.731  47.114  43.315  0.00  0.00    -0.424 OA
ATOM      6  C   UNL     1      86.037  46.268  44.070  0.00  0.00    +0.340 A 
ATOM      7  O   UNL     1      85.100  46.700  44.790  0.00  0.00    -0.245 OA
ATOM      8  C   UNL     1      86.344  44.905  44.068  0.00  0.00    +0.065 A 
BRANCH   2  10
ATOM      9  C   UNL     1      87.876  42.301  44.459  0.00  0.00    +0.079 C 
ATOM     10  O   UNL     1      87.691  43.074  43.278  0.00  0.00    -0.495 OA
ENDBRANCH   2  10
ENDBRANCH   1   4
BRANCH   1  11
ATOM     11  O   UNL     1      87.581  48.538  40.977  0.00  0.00    -0.381 OA
ATOM     12  H   UNL     1      87.694  49.472  41.217  0.00  0.00    +0.000 HD
ENDBRANCH   1  11
BRANCH   1  13
ATOM     13  C   UNL     1      89.374  48.630  42.634  0.00  0.00    +0.113 C 
BRANCH  13  14
ATOM     14  C   UNL     1      89.012  50.099  42.525  0.00  0.00    -0.016 A 
ATOM     15  C   UNL     1      89.640  50.911  41.562  0.00  0.00    -0.056 A 
ATOM     16  C   UNL     1      89.319  52.268  41.462  0.00  0.00    -0.061 A 
ATOM     17  C   UNL     1      88.372  52.830  42.323  0.00  0.00    -0.062 A 
ATOM     18  C   UNL     1      87.746  52.036  43.285  0.00  0.00    -0.061 A 
ATOM     19  C   UNL     1      88.063  50.677  43.390  0.00  0.00    -0.056 A 
ENDBRANCH  13  14
BRANCH  13  20
ATOM     20  O   UNL     1      90.743  48.442  42.361  0.00  0.00    -0.384 OA
ATOM     21  H   UNL     1      91.241  48.440  43.193  0.00  0.00    +0.000 HD
ENDBRANCH  13  20
ENDBRANCH   1  13
TORSDOF 6
ENDMDL
MODEL 8
REMARK VINA RESULT:    -6.535      0.990      2.253
REMARK INTER + INTRA:          -9.219
REMARK INTER:                  -8.807
REMARK INTRA:                  -0.412
REMARK UNBOUND:                -0.774
REMARK  Name = 
REMARK  7 active torsions:
REMARK  status: ('A' for Active; 'I' for Inactive)
REMARK    1  A    between atoms: C_1  and  O_2
REMARK    2  A    between atoms: O_2  and  C_3
REMARK    3  A    between atoms: C_5  and  C_10
REMARK    4  A    between atoms: C_10  and  C_11
REMARK    5  A    between atoms: C_10  and  O_19
REMARK    6  A    between atoms: C_11  and  C_12
REMARK    7  A    between atoms: C_11  and  O_18
REMARK                            x       y       z     vdW  Elec       q    Type
REMARK                         _______ _______ _______ _____ _____    ______ ____
ROOT
ATOM      1  C   UNL     1      85.951  56.026  44.679  0.00  0.00    +0.143 C 
ENDROOT
BRANCH   1   4
ATOM      2  C   UNL     1      83.872  54.948  41.669  0.00  0.00    +0.130 A 
ATOM      3  C   UNL     1      84.701  55.723  42.497  0.00  0.00    +0.021 A 
ATOM      4  C   UNL     1      85.043  55.235  43.768  0.00  0.00    +0.144 A 
ATOM      5  O   UNL     1      84.588  54.048  44.167  0.00  0.00    -0.424 OA
ATOM      6  C   UNL     1      83.801  53.288  43.412  0.00  0.00    +0.340 A 
ATOM      7  O   UNL     1      83.402  52.177  43.849  0.00  0.00    -0.245 OA
ATOM      8  C   UNL     1      83.417  53.716  42.139  0.00  0.00    +0.065 A 
BRANCH   2  10
ATOM      9  C   UNL     1      84.371  55.492  39.281  0.00  0.00    +0.079 C 
ATOM     10  O   UNL     1      83.484  55.365  40.387  0.00  0.00    -0.495 OA
ENDBRANCH   2  10
ENDBRANCH   1   4
BRANCH   1  11
ATOM     11  O   UNL     1      86.697  56.955  43.931  0.00  0.00    -0.381 OA
ATOM     12  H   UNL     1      86.427  56.912  43.000  0.00  0.00    +0.000 HD
ENDBRANCH   1  11
BRANCH   1  13
ATOM     13  C   UNL     1      85.133  56.731  45.794  0.00  0.00    +0.113 C 
BRANCH  13  14
ATOM     14  C   UNL     1      84.893  55.813  46.978  0.00  0.00    -0.016 A 
ATOM     15  C   UNL     1      85.888  54.900  47.376  0.00  0.00    -0.056 A 
ATOM     16  C   UNL     1      85.670  54.044  48.459  0.00  0.00    -0.061 A 
ATOM     17  C   UNL     1      84.459  54.086  49.154  0.00  0.00    -0.062 A 
ATOM     18  C   UNL     1      83.463  54.984  48.767  0.00  0.00    -0.061 A 
ATOM     19  C   UNL     1      83.675  55.843  47.683  0.00  0.00    -0.056 A 
ENDBRANCH  13  14
BRANCH  13  20
ATOM     20  O   UNL     1      83.910  57.229  45.304  0.00  0.00    -0.384 OA
ATOM     21  H   UNL     1      84.081  57.956  44.687  0.00  0.00    +0.000 HD
ENDBRANCH  13  20
ENDBRANCH   1  13
TORSDOF 6
ENDMDL
MODEL 9
REMARK VINA RESULT:    -6.523      4.219      5.941
REMARK INTER + INTRA:          -9.204
REMARK INTER:                  -8.430
REMARK INTRA:                  -0.774
REMARK UNBOUND:                -0.774
REMARK  Name = 
REMARK  7 active torsions:
REMARK  status: ('A' for Active; 'I' for Inactive)
REMARK    1  A    between atoms: C_1  and  O_2
REMARK    2  A    between atoms: O_2  and  C_3
REMARK    3  A    between atoms: C_5  and  C_10
REMARK    4  A    between atoms: C_10  and  C_11
REMARK    5  A    between atoms: C_10  and  O_19
REMARK    6  A    between atoms: C_11  and  C_12
REMARK    7  A    between atoms: C_11  and  O_18
REMARK                            x       y       z     vdW  Elec       q    Type
REMARK                         _______ _______ _______ _____ _____    ______ ____
ROOT
ATOM      1  C   UNL     1      86.257  53.511  42.230  0.00  0.00    +0.143 C 
ENDROOT
BRANCH   1   4
ATOM      2  C   UNL     1      88.145  50.421  41.033  0.00  0.00    +0.130 A 
ATOM      3  C   UNL     1      87.198  51.222  41.693  0.00  0.00    +0.021 A 
ATOM      4  C   UNL     1      87.270  52.617  41.556  0.00  0.00    +0.144 A 
ATOM      5  O   UNL     1      88.223  53.161  40.801  0.00  0.00    -0.424 OA
ATOM      6  C   UNL     1      89.137  52.437  40.164  0.00  0.00    +0.340 A 
ATOM      7  O   UNL     1      90.015  53.012  39.468  0.00  0.00    -0.245 OA
ATOM      8  C   UNL     1      89.128  51.043  40.262  0.00  0.00    +0.065 A 
BRANCH   2  10
ATOM      9  C   UNL     1      88.104  48.292  42.342  0.00  0.00    +0.079 C 
ATOM     10  O   UNL     1      88.143  49.022  41.120  0.00  0.00    -0.495 OA
ENDBRANCH   2  10
ENDBRANCH   1   4
BRANCH   1  11
ATOM     11  O   UNL     1      86.910  54.547  42.922  0.00  0.00    -0.381 OA
ATOM     12  H   UNL     1      87.156  54.239  43.809  0.00  0.00    +0.000 HD
ENDBRANCH   1  11
BRANCH   1  13
ATOM     13  C   UNL     1      85.248  54.076  41.195  0.00  0.00    +0.113 C 
BRANCH  13  14
ATOM     14  C   UNL     1      83.832  53.614  41.484  0.00  0.00    -0.016 A 
ATOM     15  C   UNL     1      82.740  54.443  41.160  0.00  0.00    -0.056 A 
ATOM     16  C   UNL     1      81.433  54.029  41.432  0.00  0.00    -0.061 A 
ATOM     17  C   UNL     1      81.200  52.789  42.031  0.00  0.00    -0.062 A 
ATOM     18  C   UNL     1      82.274  51.960  42.360  0.00  0.00    -0.061 A 
ATOM     19  C   UNL     1      83.585  52.369  42.091  0.00  0.00    -0.056 A 
ENDBRANCH  13  14
BRANCH  13  20
ATOM     20  O   UNL     1      85.613  53.739  39.877  0.00  0.00    -0.384 OA
ATOM     21  H   UNL     1      84.924  53.184  39.482  0.00  0.00    +0.000 HD
ENDBRANCH  13  20
ENDBRANCH   1  13
TORSDOF 6
ENDMDL
