MODEL 1
REMARK VINA RESULT:    -7.350      0.000      0.000
REMARK INTER + INTRA:          -8.391
REMARK INTER:                  -8.550
REMARK INTRA:                   0.159
REMARK UNBOUND:                 0.249
REMARK  Name = 
REMARK  4 active torsions:
REMARK  status: ('A' for Active; 'I' for Inactive)
REMARK    1  A    between atoms: C_1  and  O_2
REMARK    2  A    between atoms: O_2  and  C_3
REMARK    3  A    between atoms: C_5  and  C_10
REMARK    4  A    between atoms: C_12  and  C_13
REMARK                            x       y       z     vdW  Elec       q    Type
REMARK                         _______ _______ _______ _____ _____    ______ ____
ROOT
ATOM      1  C   UNL     1      81.048  48.765  43.857  0.00  0.00    +0.130 A 
ATOM      2  C   UNL     1      82.238  48.234  43.356  0.00  0.00    +0.021 A 
ATOM      3  C   UNL     1      82.634  46.950  43.751  0.00  0.00    +0.144 A 
ATOM      4  O   UNL     1      81.874  46.243  44.585  0.00  0.00    -0.424 OA
ATOM      5  C   UNL     1      80.734  46.711  45.085  0.00  0.00    +0.340 A 
ATOM      6  O   UNL     1      80.060  45.995  45.872  0.00  0.00    -0.245 OA
ATOM      7  C   UNL     1      80.281  47.988  44.740  0.00  0.00    +0.065 A 
ENDROOT
BRANCH   3   8
ATOM      8  C   UNL     1      83.898  46.353  43.221  0.00  0.00    +0.147 C 
ATOM      9  O   UNL     1      84.937  47.303  43.178  0.00  0.00    -0.355 OA
ATOM     10  C   UNL     1      85.035  46.310  44.175  0.00  0.00    +0.118 C 
BRANCH  10  11
ATOM     11  C   UNL     1      86.110  45.314  43.858  0.00  0.00    -0.016 A 
ATOM     12  C   UNL     1      87.164  45.658  42.997  0.00  0.00    -0.056 A 
ATOM     13  C   UNL     1      88.183  44.738  42.732  0.00  0.00    -0.061 A 
ATOM     14  C   UNL     1      88.160  43.475  43.332  0.00  0.00    -0.062 A 
ATOM     15  C   UNL     1      87.122  43.134  44.204  0.00  0.00    -0.061 A 
ATOM     16  C   UNL     1      86.101  44.052  44.472  0.00  0.00    -0.056 A 
ENDBRANCH  10  11
ENDBRANCH   3   8
BRANCH   1  18
ATOM     17  C   UNL     1      81.319  50.804  42.439  0.00  0.00    +0.079 C 
ATOM     18  O   UNL     1      80.666  50.054  43.457  0.00  0.00    -0.495 OA
ENDBRANCH   1  18
TORSDOF 3
ENDMDL
MODEL 2
REMARK VINA RESULT:    -7.219      1.719      7.183
REMARK INTER + INTRA:          -8.236
REMARK INTER:                  -8.430
REMARK INTRA:                   0.194
REMARK UNBOUND:                 0.249
REMARK  Name = 
REMARK  4 active torsions:
REMARK  status: ('A' for Active; 'I' for Inactive)
REMARK    1  A    between atoms: C_1  and  O_2
REMARK    2  A    between atoms: O_2  and  C_3
REMARK    3  A    between atoms: C_5  and  C_10
REMARK    4  A    between atoms: C_12  and  C_13
REMARK                            x       y       z     vdW  Elec       q    Type
REMARK                         _______ _______ _______ _____ _____    ______ ____
ROOT
ATOM      1  C   UNL     1      86.661  44.312  43.706  0.00  0.00    +0.130 A 
ATOM      2  C   UNL     1      85.338  44.754  43.775  0.00  0.00    +0.021 A 
ATOM      3  C   UNL     1      84.987  45.959  43.153  0.00  0.00    +0.144 A 
ATOM      4  O   UNL     1      85.904  46.664  42.495  0.00  0.00    -0.424 OA
ATOM      5  C   UNL     1      87.174  46.279  42.404  0.00  0.00    +0.340 A 
ATOM      6  O   UNL     1      87.996  46.991  41.770  0.00  0.00    -0.245 OA
ATOM      7  C   UNL     1      87.598  45.091  43.008  0.00  0.00    +0.065 A 
ENDROOT
BRANCH   3   8
ATOM      8  C   UNL     1      83.575  46.449  43.201  0.00  0.00    +0.147 C 
ATOM      9  O   UNL     1      83.026  46.308  44.490  0.00  0.00    -0.355 OA
ATOM     10  C   UNL     1      83.335  47.621  44.079  0.00  0.00    +0.118 C 
BRANCH  10  11
ATOM     11  C   UNL     1      82.097  48.413  43.781  0.00  0.00    -0.016 A 
ATOM     12  C   UNL     1      80.842  47.956  44.212  0.00  0.00    -0.056 A 
ATOM     13  C   UNL     1      79.694  48.713  43.961  0.00  0.00    -0.061 A 
ATOM     14  C   UNL     1      79.794  49.935  43.289  0.00  0.00    -0.062 A 
ATOM     15  C   UNL     1      81.043  50.404  42.873  0.00  0.00    -0.061 A 
ATOM     16  C   UNL     1      82.194  49.648  43.122  0.00  0.00    -0.056 A 
ENDBRANCH  10  11
ENDBRANCH   3   8
BRANCH   1  18
ATOM     17  C   UNL     1      88.328  42.730  44.687  0.00  0.00    +0.079 C 
ATOM     18  O   UNL     1      87.001  43.106  44.337  0.00  0.00    -0.495 OA
ENDBRANCH   1  18
TORSDOF 3
ENDMDL
MODEL 3
REMARK VINA RESULT:    -7.076      6.151      7.476
REMARK INTER + INTRA:          -8.069
REMARK INTER:                  -8.248
REMARK INTRA:                   0.180
REMARK UNBOUND:                 0.249
REMARK  Name = 
REMARK  4 active torsions:
REMARK  status: ('A' for Active; 'I' for Inactive)
REMARK    1  A    between atoms: C_1  and  O_2
REMARK    2  A    between atoms: O_2  and  C_3
REMARK    3  A    between atoms: C_5  and  C_10
REMARK    4  A    between atoms: C_12  and  C_13
REMARK                            x       y       z     vdW  Elec       q    Type
REMARK                         _______ _______ _______ _____ _____    ______ ____
ROOT
ATOM      1  C   UNL     1      83.271  54.011  41.269  0.00  0.00    +0.130 A 
ATOM      2  C   UNL     1      84.288  53.061  41.387  0.00  0.00    +0.021 A 
ATOM      3  C   UNL     1      85.482  53.246  40.678  0.00  0.00    +0.144 A 
ATOM      4  O   UNL     1      85.645  54.323  39.913  0.00  0.00    -0.424 OA
ATOM      5  C   UNL     1      84.703  55.251  39.773  0.00  0.00    +0.340 A 
ATOM      6  O   UNL     1      84.915  56.247  39.032  0.00  0.00    -0.245 OA
ATOM      7  C   UNL     1      83.483  55.128  40.444  0.00  0.00    +0.065 A 
ENDROOT
BRANCH   3   8
ATOM      8  C   UNL     1      86.592  52.251  40.796  0.00  0.00    +0.147 C 
ATOM      9  O   UNL     1      87.848  52.858  40.605  0.00  0.00    -0.355 OA
ATOM     10  C   UNL     1      87.531  52.471  41.924  0.00  0.00    +0.118 C 
BRANCH  10  11
ATOM     11  C   UNL     1      88.322  51.272  42.354  0.00  0.00    -0.016 A 
ATOM     12  C   UNL     1      89.442  50.859  41.615  0.00  0.00    -0.056 A 
ATOM     13  C   UNL     1      90.196  49.761  42.038  0.00  0.00    -0.061 A 
ATOM     14  C   UNL     1      89.844  49.076  43.205  0.00  0.00    -0.062 A 
ATOM     15  C   UNL     1      88.739  49.493  43.953  0.00  0.00    -0.061 A 
ATOM     16  C   UNL     1      87.982  50.592  43.533  0.00  0.00    -0.056 A 
ENDBRANCH  10  11
ENDBRANCH   3   8
BRANCH   1  18
ATOM     17  C   UNL     1      80.788  54.168  41.499  0.00  0.00    +0.079 C 
ATOM     18  O   UNL     1      82.079  53.811  41.980  0.00  0.00    -0.495 OA
ENDBRANCH   1  18
TORSDOF 3
ENDMDL
MODEL 4
REMARK VINA RESULT:    -7.013      6.709      9.023
REMARK INTER + INTRA:          -7.994
REMARK INTER:                  -8.223
REMARK INTRA:                   0.229
REMARK UNBOUND:                 0.249
REMARK  Name = 
REMARK  4 active torsions:
REMARK  status: ('A' for Active; 'I' for Inactive)
REMARK    1  A    between atoms: C_1  and  O_2
REMARK    2  A    between atoms: O_2  and  C_3
REMARK    3  A    between atoms: C_5  and  C_10
REMARK    4  A    between atoms: C_12  and  C_13
REMARK                            x       y       z     vdW  Elec       q    Type
REMARK                         _______ _______ _______ _____ _____    ______ ____
ROOT
ATOM      1  C   UNL     1      89.052  52.361  41.232  0.00  0.00    +0.130 A 
ATOM      2  C   UNL     1      88.169  52.561  42.296  0.00  0.00    +0.021 A 
ATOM      3  C   UNL     1      87.843  51.483  43.127  0.00  0.00    +0.144 A 
ATOM      4  O   UNL     1      88.381  50.285  42.910  0.00  0.00    -0.424 OA
ATOM      5  C   UNL     1      89.226  50.050  41.910  0.00  0.00    +0.340 A 
ATOM      6  O   UNL     1      89.701  48.895  41.754  0.00  0.00    -0.245 OA
ATOM      7  C   UNL     1      89.590  51.079  41.036  0.00  0.00    +0.065 A 
ENDROOT
BRANCH   3   8
ATOM      8  C   UNL     1      86.910  51.673  44.280  0.00  0.00    +0.147 C 
ATOM      9  O   UNL     1      86.942  50.570  45.154  0.00  0.00    -0.355 OA
ATOM     10  C   UNL     1      87.552  51.755  45.616  0.00  0.00    +0.118 C 
BRANCH  10  11
ATOM     11  C   UNL     1      86.737  52.414  46.688  0.00  0.00    -0.016 A 
ATOM     12  C   UNL     1      86.363  51.698  47.836  0.00  0.00    -0.056 A 
ATOM     13  C   UNL     1      85.631  52.327  48.848  0.00  0.00    -0.061 A 
ATOM     14  C   UNL     1      85.280  53.674  48.726  0.00  0.00    -0.062 A 
ATOM     15  C   UNL     1      85.665  54.397  47.593  0.00  0.00    -0.061 A 
ATOM     16  C   UNL     1      86.397  53.771  46.578  0.00  0.00    -0.056 A 
ENDBRANCH  10  11
ENDBRANCH   3   8
BRANCH   1  18
ATOM     17  C   UNL     1      90.642  53.664  39.812  0.00  0.00    +0.079 C 
ATOM     18  O   UNL     1      89.366  53.449  40.405  0.00  0.00    -0.495 OA
ENDBRANCH   1  18
TORSDOF 3
ENDMDL
MODEL 5
REMARK VINA RESULT:    -6.853      6.429      9.466
REMARK INTER + INTRA:          -7.806
REMARK INTER:                  -8.022
REMARK INTRA:                   0.215
REMARK UNBOUND:                 0.249
REMARK  Name = 
REMARK  4 active torsions:
REMARK  status: ('A' for Active; 'I' for Inactive)
REMARK    1  A    between atoms: C_1  and  O_2
REMARK    2  A    between atoms: O_2  and  C_3
REMARK    3  A    between atoms: C_5  and  C_10
REMARK    4  A    between atoms: C_12  and  C_13
REMARK                            x       y       z     vdW  Elec       q    Type
REMARK                         _______ _______ _______ _____ _____    ______ ____
ROOT
ATOM      1  C   UNL     1      88.703  50.063  43.307  0.00  0.00    +0.130 A 
ATOM      2  C   UNL     1      87.830  50.388  44.348  0.00  0.00    +0.021 A 
ATOM      3  C   UNL     1      87.221  51.649  44.362  0.00  0.00    +0.144 A 
ATOM      4  O   UNL     1      87.466  52.520  43.385  0.00  0.00    -0.424 OA
ATOM      5  C   UNL     1      88.289  52.252  42.376  0.00  0.00    +0.340 A 
ATOM      6  O   UNL     1      88.483  53.118  41.484  0.00  0.00    -0.245 OA
ATOM      7  C   UNL     1      88.938  51.016  42.302  0.00  0.00    +0.065 A 
ENDROOT
BRANCH   3   8
ATOM      8  C   UNL     1      86.273  52.017  45.458  0.00  0.00    +0.147 C 
ATOM      9  O   UNL     1      86.764  51.619  46.716  0.00  0.00    -0.355 OA
ATOM     10  C   UNL     1      86.786  53.003  46.442  0.00  0.00    +0.118 C 
BRANCH  10  11
ATOM     11  C   UNL     1      85.742  53.738  47.228  0.00  0.00    -0.016 A 
ATOM     12  C   UNL     1      85.239  54.965  46.766  0.00  0.00    -0.056 A 
ATOM     13  C   UNL     1      84.243  55.631  47.485  0.00  0.00    -0.061 A 
ATOM     14  C   UNL     1      83.735  55.072  48.661  0.00  0.00    -0.062 A 
ATOM     15  C   UNL     1      84.219  53.843  49.117  0.00  0.00    -0.061 A 
ATOM     16  C   UNL     1      85.217  53.173  48.400  0.00  0.00    -0.056 A 
ENDBRANCH  10  11
ENDBRANCH   3   8
BRANCH   1  18
ATOM     17  C   UNL     1      90.702  48.577  43.499  0.00  0.00    +0.079 C 
ATOM     18  O   UNL     1      89.309  48.799  43.308  0.00  0.00    -0.495 OA
ENDBRANCH   1  18
TORSDOF 3
ENDMDL
MODEL 6
REMARK VINA RESULT:    -6.768      6.564      7.434
REMARK INTER + INTRA:          -7.706
REMARK INTER:                  -8.041
REMARK INTRA:                   0.336
REMARK UNBOUND:                 0.249
REMARK  Name = 
REMARK  4 active torsions:
REMARK  status: ('A' for Active; 'I' for Inactive)
REMARK    1  A    between atoms: C_1  and  O_2
REMARK    2  A    between atoms: O_2  and  C_3
REMARK    3  A    between atoms: C_5  and  C_10
REMARK    4  A    between atoms: C_12  and  C_13
REMARK                            x       y       z     vdW  Elec       q    Type
REMARK                         _______ _______ _______ _____ _____    ______ ____
ROOT
ATOM      1  C   UNL     1      84.125  54.977  40.575  0.00  0.00    +0.130 A 
ATOM      2  C   UNL     1      84.845  53.783  40.502  0.00  0.00    +0.021 A 
ATOM      3  C   UNL     1      85.654  53.405  41.581  0.00  0.00    +0.144 A 
ATOM      4  O   UNL     1      85.723  54.173  42.665  0.00  0.00    -0.424 OA
ATOM      5  C   UNL     1      85.054  55.317  42.777  0.00  0.00    +0.340 A 
ATOM      6  O   UNL     1      85.162  56.002  43.828  0.00  0.00    -0.245 OA
ATOM      7  C   UNL     1      84.233  55.760  41.736  0.00  0.00    +0.065 A 
ENDROOT
BRANCH   3   8
ATOM      8  C   UNL     1      86.426  52.125  41.533  0.00  0.00    +0.147 C 
ATOM      9  O   UNL     1      87.395  52.148  40.511  0.00  0.00    -0.355 OA
ATOM     10  C   UNL     1      87.875  52.241  41.834  0.00  0.00    +0.118 C 
BRANCH  10  11
ATOM     11  C   UNL     1      88.551  50.975  42.267  0.00  0.00    -0.016 A 
ATOM     12  C   UNL     1      89.558  50.401  41.474  0.00  0.00    -0.056 A 
ATOM     13  C   UNL     1      90.208  49.239  41.898  0.00  0.00    -0.061 A 
ATOM     14  C   UNL     1      89.867  48.650  43.119  0.00  0.00    -0.062 A 
ATOM     15  C   UNL     1      88.877  49.226  43.921  0.00  0.00    -0.061 A 
ATOM     16  C   UNL     1      88.224  50.390  43.500  0.00  0.00    -0.056 A 
ENDBRANCH  10  11
ENDBRANCH   3   8
BRANCH   1  18
ATOM     17  C   UNL     1      83.824  55.857  38.256  0.00  0.00    +0.079 C 
ATOM     18  O   UNL     1      83.322  55.346  39.486  0.00  0.00    -0.495 OA
ENDBRANCH   1  18
TORSDOF 3
ENDMDL
MODEL 7
REMARK VINA RESULT:    -6.755      7.363      9.137
REMARK INTER + INTRA:          -7.691
REMARK INTER:                  -7.928
REMARK INTRA:                   0.237
REMARK UNBOUND:                 0.249
REMARK  Name = 
REMARK  4 active torsions:
REMARK  status: ('A' for Active; 'I' for Inactive)
REMARK    1  A    between atoms: C_1  and  O_2
REMARK    2  A    between atoms: O_2  and  C_3
REMARK    3  A    between atoms: C_5  and  C_10
REMARK    4  A    between atoms: C_12  and  C_13
REMARK                            x       y       z     vdW  Elec       q    Type
REMARK                         _______ _______ _______ _____ _____    ______ ____
ROOT
ATOM      1  C   UNL     1      84.492  56.644  46.123  0.00  0.00    +0.130 A 
ATOM      2  C   UNL     1      85.163  55.456  45.827  0.00  0.00    +0.021 A 
ATOM      3  C   UNL     1      86.081  55.433  44.769  0.00  0.00    +0.144 A 
ATOM      4  O   UNL     1      86.316  56.539  44.065  0.00  0.00    -0.424 OA
ATOM      5  C   UNL     1      85.700  57.691  44.313  0.00  0.00    +0.340 A 
ATOM      6  O   UNL     1      85.963  58.701  43.611  0.00  0.00    -0.245 OA
ATOM      7  C   UNL     1      84.766  57.784  45.350  0.00  0.00    +0.065 A 
ENDROOT
BRANCH   3   8
ATOM      8  C   UNL     1      86.821  54.177  44.439  0.00  0.00    +0.147 C 
ATOM      9  O   UNL     1      85.938  53.134  44.102  0.00  0.00    -0.355 OA
ATOM     10  C   UNL     1      86.676  53.698  43.041  0.00  0.00    +0.118 C 
BRANCH  10  11
ATOM     11  C   UNL     1      87.749  52.769  42.559  0.00  0.00    -0.016 A 
ATOM     12  C   UNL     1      87.709  51.405  42.891  0.00  0.00    -0.056 A 
ATOM     13  C   UNL     1      88.693  50.536  42.411  0.00  0.00    -0.061 A 
ATOM     14  C   UNL     1      89.716  51.021  41.590  0.00  0.00    -0.062 A 
ATOM     15  C   UNL     1      89.751  52.374  41.242  0.00  0.00    -0.061 A 
ATOM     16  C   UNL     1      88.768  53.247  41.720  0.00  0.00    -0.056 A 
ENDBRANCH  10  11
ENDBRANCH   3   8
BRANCH   1  18
ATOM     17  C   UNL     1      83.472  55.626  48.164  0.00  0.00    +0.079 C 
ATOM     18  O   UNL     1      83.573  56.651  47.182  0.00  0.00    -0.495 OA
ENDBRANCH   1  18
TORSDOF 3
ENDMDL
MODEL 8
REMARK VINA RESULT:    -6.669      7.039     10.587
REMARK INTER + INTRA:          -7.590
REMARK INTER:                  -8.039
REMARK INTRA:                   0.450
REMARK UNBOUND:                 0.249
REMARK  Name = 
REMARK  4 active torsions:
REMARK  status: ('A' for Active; 'I' for Inactive)
REMARK    1  A    between atoms: C_1  and  O_2
REMARK    2  A    between atoms: O_2  and  C_3
REMARK    3  A    between atoms: C_5  and  C_10
REMARK    4  A    between atoms: C_12  and  C_13
REMARK                            x       y       z     vdW  Elec       q    Type
REMARK                         _______ _______ _______ _____ _____    ______ ____
ROOT
ATOM      1  C   UNL     1      88.181  50.959  42.905  0.00  0.00    +0.130 A 
ATOM      2  C   UNL     1      87.281  51.922  43.364  0.00  0.00    +0.021 A 
ATOM      3  C   UNL     1      87.392  53.240  42.902  0.00  0.00    +0.144 A 
ATOM      4  O   UNL     1      88.341  53.562  42.026  0.00  0.00    -0.424 OA
ATOM      5  C   UNL     1      89.218  52.677  41.562  0.00  0.00    +0.340 A 
ATOM      6  O   UNL     1      90.094  53.043  40.735  0.00  0.00    -0.245 OA
ATOM      7  C   UNL     1      89.170  51.345  41.985  0.00  0.00    +0.065 A 
ENDROOT
BRANCH   3   8
ATOM      8  C   UNL     1      86.434  54.287  43.370  0.00  0.00    +0.147 C 
ATOM      9  O   UNL     1      85.589  53.795  44.383  0.00  0.00    -0.355 OA
ATOM     10  C   UNL     1      86.586  54.708  44.785  0.00  0.00    +0.118 C 
BRANCH  10  11
ATOM     11  C   UNL     1      86.003  56.046  45.131  0.00  0.00    -0.016 A 
ATOM     12  C   UNL     1      86.282  57.168  44.335  0.00  0.00    -0.056 A 
ATOM     13  C   UNL     1      85.710  58.406  44.642  0.00  0.00    -0.061 A 
ATOM     14  C   UNL     1      84.849  58.528  45.737  0.00  0.00    -0.062 A 
ATOM     15  C   UNL     1      84.555  57.410  46.523  0.00  0.00    -0.061 A 
ATOM     16  C   UNL     1      85.125  56.169  46.218  0.00  0.00    -0.056 A 
ENDBRANCH  10  11
ENDBRANCH   3   8
BRANCH   1  18
ATOM     17  C   UNL     1      88.869  48.557  42.943  0.00  0.00    +0.079 C 
ATOM     18  O   UNL     1      88.061  49.645  43.379  0.00  0.00    -0.495 OA
ENDBRANCH   1  18
TORSDOF 3
ENDMDL
MODEL 9
REMARK VINA RESULT:    -6.541      4.586      6.366
REMARK INTER + INTRA:          -7.440
REMARK INTER:                  -7.688
REMARK INTRA:                   0.249
REMARK UNBOUND:                 0.249
REMARK  Name = 
REMARK  4 active torsions:
REMARK  status: ('A' for Active; 'I' for Inactive)
REMARK    1  A    between atoms: C_1  and  O_2
REMARK    2  A    between atoms: O_2  and  C_3
REMARK    3  A    between atoms: C_5  and  C_10
REMARK    4  A    between atoms: C_12  and  C_13
REMARK                            x       y       z     vdW  Elec       q    Type
REMARK                         _______ _______ _______ _____ _____    ______ ____
ROOT
ATOM      1  C   UNL     1      87.887  52.556  42.221  0.00  0.00    +0.130 A 
ATOM      2  C   UNL     1      87.695  51.367  42.929  0.00  0.00    +0.021 A 
ATOM      3  C   UNL     1      88.080  50.153  42.347  0.00  0.00    +0.144 A 
ATOM      4  O   UNL     1      88.633  50.139  41.136  0.00  0.00    -0.424 OA
ATOM      5  C   UNL     1      88.834  51.246  40.427  0.00  0.00    +0.340 A 
ATOM      6  O   UNL     1      89.360  51.168  39.286  0.00  0.00    -0.245 OA
ATOM      7  C   UNL     1      88.467  52.493  40.944  0.00  0.00    +0.065 A 
ENDROOT
BRANCH   3   8
ATOM      8  C   UNL     1      87.897  48.868  43.088  0.00  0.00    +0.147 C 
ATOM      9  O   UNL     1      86.642  48.818  43.726  0.00  0.00    -0.355 OA
ATOM     10  C   UNL     1      86.805  47.994  42.593  0.00  0.00    +0.118 C 
BRANCH  10  11
ATOM     11  C   UNL     1      86.909  46.547  42.972  0.00  0.00    -0.016 A 
ATOM     12  C   UNL     1      87.910  45.737  42.413  0.00  0.00    -0.056 A 
ATOM     13  C   UNL     1      88.024  44.397  42.794  0.00  0.00    -0.061 A 
ATOM     14  C   UNL     1      87.147  43.862  43.743  0.00  0.00    -0.062 A 
ATOM     15  C   UNL     1      86.159  44.668  44.315  0.00  0.00    -0.061 A 
ATOM     16  C   UNL     1      86.042  46.009  43.936  0.00  0.00    -0.056 A 
ENDBRANCH  10  11
ENDBRANCH   3   8
BRANCH   1  18
ATOM     17  C   UNL     1      86.146  54.220  42.886  0.00  0.00    +0.079 C 
ATOM     18  O   UNL     1      87.493  53.763  42.815  0.00  0.00    -0.495 OA
ENDBRANCH   1  18
TORSDOF 3
ENDMDL
