MODEL 1
REMARK VINA RESULT:    -7.229      0.000      0.000
REMARK INTER + INTRA:         -10.202
REMARK INTER:                  -9.375
REMARK INTRA:                  -0.827
REMARK UNBOUND:                -0.860
REMARK  Name = 
REMARK  7 active torsions:
REMARK  status: ('A' for Active; 'I' for Inactive)
REMARK    1  A    between atoms: C_1  and  O_2
REMARK    2  A    between atoms: O_2  and  C_3
REMARK    3  A    between atoms: C_5  and  C_10
REMARK    4  A    between atoms: C_10  and  C_11
REMARK    5  A    between atoms: C_10  and  O_19
REMARK    6  A    between atoms: C_11  and  C_12
REMARK    7  A    between atoms: C_11  and  O_18
REMARK                            x       y       z     vdW  Elec       q    Type
REMARK                         _______ _______ _______ _____ _____    ______ ____
ROOT
ATOM      1  C   UNL     1      85.021  56.734  43.639  0.00  0.00    +0.143 C 
ENDROOT
BRANCH   1   4
ATOM      2  C   UNL     1      82.653  54.479  41.673  0.00  0.00    +0.130 A 
ATOM      3  C   UNL     1      83.232  55.171  42.748  0.00  0.00    +0.021 A 
ATOM      4  C   UNL     1      84.372  55.958  42.519  0.00  0.00    +0.144 A 
ATOM      5  O   UNL     1      84.883  56.044  41.293  0.00  0.00    -0.424 OA
ATOM      6  C   UNL     1      84.364  55.404  40.250  0.00  0.00    +0.340 A 
ATOM      7  O   UNL     1      84.895  55.524  39.116  0.00  0.00    -0.245 OA
ATOM      8  C   UNL     1      83.231  54.600  40.408  0.00  0.00    +0.065 A 
BRANCH   2  10
ATOM      9  C   UNL     1      81.548  52.289  42.149  0.00  0.00    +0.079 C 
ATOM     10  O   UNL     1      81.514  53.673  41.817  0.00  0.00    -0.495 OA
ENDBRANCH   2  10
ENDBRANCH   1   4
BRANCH   1  11
ATOM     11  O   UNL     1      85.343  58.031  43.203  0.00  0.00    -0.381 OA
ATOM     12  H   UNL     1      84.717  58.665  43.586  0.00  0.00    +0.000 HD
ENDBRANCH   1  11
BRANCH   1  13
ATOM     13  C   UNL     1      86.301  56.017  44.130  0.00  0.00    +0.113 C 
BRANCH  13  14
ATOM     14  C   UNL     1      86.094  55.365  45.484  0.00  0.00    -0.016 A 
ATOM     15  C   UNL     1      86.415  54.009  45.692  0.00  0.00    -0.056 A 
ATOM     16  C   UNL     1      86.210  53.418  46.942  0.00  0.00    -0.061 A 
ATOM     17  C   UNL     1      85.680  54.168  47.995  0.00  0.00    -0.062 A 
ATOM     18  C   UNL     1      85.354  55.512  47.799  0.00  0.00    -0.061 A 
ATOM     19  C   UNL     1      85.556  56.109  46.551  0.00  0.00    -0.056 A 
ENDBRANCH  13  14
BRANCH  13  20
ATOM     20  O   UNL     1      86.760  55.070  43.195  0.00  0.00    -0.384 OA
ATOM     21  H   UNL     1      87.716  54.945  43.304  0.00  0.00    +0.000 HD
ENDBRANCH  13  20
ENDBRANCH   1  13
TORSDOF 6
ENDMDL
MODEL 2
REMARK VINA RESULT:    -6.994      1.818      5.220
REMARK INTER + INTRA:          -9.898
REMARK INTER:                  -9.027
REMARK INTRA:                  -0.871
REMARK UNBOUND:                -0.860
REMARK  Name = 
REMARK  7 active torsions:
REMARK  status: ('A' for Active; 'I' for Inactive)
REMARK    1  A    between atoms: C_1  and  O_2
REMARK    2  A    between atoms: O_2  and  C_3
REMARK    3  A    between atoms: C_5  and  C_10
REMARK    4  A    between atoms: C_10  and  C_11
REMARK    5  A    between atoms: C_10  and  O_19
REMARK    6  A    between atoms: C_11  and  C_12
REMARK    7  A    between atoms: C_11  and  O_18
REMARK                            x       y       z     vdW  Elec       q    Type
REMARK                         _______ _______ _______ _____ _____    ______ ____
ROOT
ATOM      1  C   UNL     1      85.882  54.278  43.081  0.00  0.00    +0.143 C 
ENDROOT
BRANCH   1   4
ATOM      2  C   UNL     1      84.478  56.478  45.864  0.00  0.00    +0.130 A 
ATOM      3  C   UNL     1      84.777  55.335  45.105  0.00  0.00    +0.021 A 
ATOM      4  C   UNL     1      85.522  55.477  43.922  0.00  0.00    +0.144 A 
ATOM      5  O   UNL     1      85.937  56.683  43.541  0.00  0.00    -0.424 OA
ATOM      6  C   UNL     1      85.673  57.787  44.232  0.00  0.00    +0.340 A 
ATOM      7  O   UNL     1      86.094  58.898  43.817  0.00  0.00    -0.245 OA
ATOM      8  C   UNL     1      84.935  57.719  45.416  0.00  0.00    +0.065 A 
BRANCH   2  10
ATOM      9  C   UNL     1      83.858  55.386  48.024  0.00  0.00    +0.079 C 
ATOM     10  O   UNL     1      83.741  56.422  47.056  0.00  0.00    -0.495 OA
ENDBRANCH   2  10
ENDBRANCH   1   4
BRANCH   1  11
ATOM     11  O   UNL     1      87.259  54.287  42.795  0.00  0.00    -0.381 OA
ATOM     12  H   UNL     1      87.712  53.648  43.368  0.00  0.00    +0.000 HD
ENDBRANCH   1  11
BRANCH   1  13
ATOM     13  C   UNL     1      85.077  54.274  41.760  0.00  0.00    +0.113 C 
BRANCH  13  14
ATOM     14  C   UNL     1      83.743  53.570  41.920  0.00  0.00    -0.016 A 
ATOM     15  C   UNL     1      82.535  54.227  41.613  0.00  0.00    -0.056 A 
ATOM     16  C   UNL     1      81.312  53.570  41.774  0.00  0.00    -0.061 A 
ATOM     17  C   UNL     1      81.278  52.255  42.245  0.00  0.00    -0.062 A 
ATOM     18  C   UNL     1      82.468  51.595  42.557  0.00  0.00    -0.061 A 
ATOM     19  C   UNL     1      83.695  52.247  42.398  0.00  0.00    -0.056 A 
ENDBRANCH  13  14
BRANCH  13  20
ATOM     20  O   UNL     1      84.886  55.577  41.261  0.00  0.00    -0.384 OA
ATOM     21  H   UNL     1      85.627  55.812  40.681  0.00  0.00    +0.000 HD
ENDBRANCH  13  20
ENDBRANCH   1  13
TORSDOF 6
ENDMDL
MODEL 3
REMARK VINA RESULT:    -6.872      1.436      1.625
REMARK INTER + INTRA:          -9.740
REMARK INTER:                  -9.121
REMARK INTRA:                  -0.619
REMARK UNBOUND:                -0.860
REMARK  Name = 
REMARK  7 active torsions:
REMARK  status: ('A' for Active; 'I' for Inactive)
REMARK    1  A    between atoms: C_1  and  O_2
REMARK    2  A    between atoms: O_2  and  C_3
REMARK    3  A    between atoms: C_5  and  C_10
REMARK    4  A    between atoms: C_10  and  C_11
REMARK    5  A    between atoms: C_10  and  O_19
REMARK    6  A    between atoms: C_11  and  C_12
REMARK    7  A    between atoms: C_11  and  O_18
REMARK                            x       y       z     vdW  Elec       q    Type
REMARK                         _______ _______ _______ _____ _____    ______ ____
ROOT
ATOM      1  C   UNL     1      84.965  57.235  44.005  0.00  0.00    +0.143 C 
ENDROOT
BRANCH   1   4
ATOM      2  C   UNL     1      83.332  54.390  42.058  0.00  0.00    +0.130 A 
ATOM      3  C   UNL     1      83.473  55.559  42.821  0.00  0.00    +0.021 A 
ATOM      4  C   UNL     1      84.760  55.976  43.199  0.00  0.00    +0.144 A 
ATOM      5  O   UNL     1      85.823  55.267  42.827  0.00  0.00    -0.424 OA
ATOM      6  C   UNL     1      85.729  54.154  42.105  0.00  0.00    +0.340 A 
ATOM      7  O   UNL     1      86.773  53.527  41.787  0.00  0.00    -0.245 OA
ATOM      8  C   UNL     1      84.479  53.681  41.697  0.00  0.00    +0.065 A 
BRANCH   2  10
ATOM      9  C   UNL     1      81.517  52.672  42.066  0.00  0.00    +0.079 C 
ATOM     10  O   UNL     1      82.084  53.906  41.639  0.00  0.00    -0.495 OA
ENDBRANCH   2  10
ENDBRANCH   1   4
BRANCH   1  11
ATOM     11  O   UNL     1      85.376  58.284  43.165  0.00  0.00    -0.381 OA
ATOM     12  H   UNL     1      84.799  58.319  42.386  0.00  0.00    +0.000 HD
ENDBRANCH   1  11
BRANCH   1  13
ATOM     13  C   UNL     1      86.023  57.009  45.111  0.00  0.00    +0.113 C 
BRANCH  13  14
ATOM     14  C   UNL     1      85.469  56.182  46.256  0.00  0.00    -0.016 A 
ATOM     15  C   UNL     1      86.145  55.034  46.715  0.00  0.00    -0.056 A 
ATOM     16  C   UNL     1      85.618  54.275  47.764  0.00  0.00    -0.061 A 
ATOM     17  C   UNL     1      84.413  54.648  48.364  0.00  0.00    -0.062 A 
ATOM     18  C   UNL     1      83.731  55.781  47.915  0.00  0.00    -0.061 A 
ATOM     19  C   UNL     1      84.253  56.545  46.866  0.00  0.00    -0.056 A 
ENDBRANCH  13  14
BRANCH  13  20
ATOM     20  O   UNL     1      87.194  56.417  44.601  0.00  0.00    -0.384 OA
ATOM     21  H   UNL     1      87.062  55.460  44.518  0.00  0.00    +0.000 HD
ENDBRANCH  13  20
ENDBRANCH   1  13
TORSDOF 6
ENDMDL
MODEL 4
REMARK VINA RESULT:    -6.636      5.152      5.998
REMARK INTER + INTRA:          -9.435
REMARK INTER:                  -8.622
REMARK INTRA:                  -0.813
REMARK UNBOUND:                -0.860
REMARK  Name = 
REMARK  7 active torsions:
REMARK  status: ('A' for Active; 'I' for Inactive)
REMARK    1  A    between atoms: C_1  and  O_2
REMARK    2  A    between atoms: O_2  and  C_3
REMARK    3  A    between atoms: C_5  and  C_10
REMARK    4  A    between atoms: C_10  and  C_11
REMARK    5  A    between atoms: C_10  and  O_19
REMARK    6  A    between atoms: C_11  and  C_12
REMARK    7  A    between atoms: C_11  and  O_18
REMARK                            x       y       z     vdW  Elec       q    Type
REMARK                         _______ _______ _______ _____ _____    ______ ____
ROOT
ATOM      1  C   UNL     1      88.856  52.530  41.689  0.00  0.00    +0.143 C 
ENDROOT
BRANCH   1   4
ATOM      2  C   UNL     1      85.187  52.281  42.702  0.00  0.00    +0.130 A 
ATOM      3  C   UNL     1      86.582  52.136  42.742  0.00  0.00    +0.021 A 
ATOM      4  C   UNL     1      87.352  52.647  41.684  0.00  0.00    +0.144 A 
ATOM      5  O   UNL     1      86.755  53.262  40.666  0.00  0.00    -0.424 OA
ATOM      6  C   UNL     1      85.437  53.418  40.593  0.00  0.00    +0.340 A 
ATOM      7  O   UNL     1      84.933  54.009  39.602  0.00  0.00    -0.245 OA
ATOM      8  C   UNL     1      84.611  52.932  41.609  0.00  0.00    +0.065 A 
BRANCH   2  10
ATOM      9  C   UNL     1      83.235  50.939  43.499  0.00  0.00    +0.079 C 
ATOM     10  O   UNL     1      84.347  51.801  43.717  0.00  0.00    -0.495 OA
ENDBRANCH   2  10
ENDBRANCH   1   4
BRANCH   1  11
ATOM     11  O   UNL     1      89.435  53.755  41.315  0.00  0.00    -0.381 OA
ATOM     12  H   UNL     1      90.401  53.692  41.390  0.00  0.00    +0.000 HD
ENDBRANCH   1  11
BRANCH   1  13
ATOM     13  C   UNL     1      89.322  51.417  40.720  0.00  0.00    +0.113 C 
BRANCH  13  14
ATOM     14  C   UNL     1      89.388  50.067  41.408  0.00  0.00    -0.016 A 
ATOM     15  C   UNL     1      90.536  49.673  42.123  0.00  0.00    -0.056 A 
ATOM     16  C   UNL     1      90.588  48.422  42.744  0.00  0.00    -0.061 A 
ATOM     17  C   UNL     1      89.500  47.550  42.659  0.00  0.00    -0.062 A 
ATOM     18  C   UNL     1      88.358  47.928  41.950  0.00  0.00    -0.061 A 
ATOM     19  C   UNL     1      88.300  49.178  41.325  0.00  0.00    -0.056 A 
ENDBRANCH  13  14
BRANCH  13  20
ATOM     20  O   UNL     1      88.504  51.345  39.577  0.00  0.00    -0.384 OA
ATOM     21  H   UNL     1      89.048  51.129  38.803  0.00  0.00    +0.000 HD
ENDBRANCH  13  20
ENDBRANCH   1  13
TORSDOF 6
ENDMDL
MODEL 5
REMARK VINA RESULT:    -6.621      7.542      9.773
REMARK INTER + INTRA:          -9.417
REMARK INTER:                  -9.190
REMARK INTRA:                  -0.227
REMARK UNBOUND:                -0.860
REMARK  Name = 
REMARK  7 active torsions:
REMARK  status: ('A' for Active; 'I' for Inactive)
REMARK    1  A    between atoms: C_1  and  O_2
REMARK    2  A    between atoms: O_2  and  C_3
REMARK    3  A    between atoms: C_5  and  C_10
REMARK    4  A    between atoms: C_10  and  C_11
REMARK    5  A    between atoms: C_10  and  O_19
REMARK    6  A    between atoms: C_11  and  C_12
REMARK    7  A    between atoms: C_11  and  O_18
REMARK                            x       y       z     vdW  Elec       q    Type
REMARK                         _______ _______ _______ _____ _____    ______ ____
ROOT
ATOM      1  C   UNL     1      84.331  45.485  44.254  0.00  0.00    +0.143 C 
ENDROOT
BRANCH   1   4
ATOM      2  C   UNL     1      81.804  48.249  43.524  0.00  0.00    +0.130 A 
ATOM      3  C   UNL     1      82.993  47.504  43.496  0.00  0.00    +0.021 A 
ATOM      4  C   UNL     1      83.080  46.329  44.262  0.00  0.00    +0.144 A 
ATOM      5  O   UNL     1      82.040  45.936  44.994  0.00  0.00    -0.424 OA
ATOM      6  C   UNL     1      80.899  46.615  45.046  0.00  0.00    +0.340 A 
ATOM      7  O   UNL     1      79.952  46.192  45.759  0.00  0.00    -0.245 OA
ATOM      8  C   UNL     1      80.745  47.794  44.311  0.00  0.00    +0.065 A 
BRANCH   2  10
ATOM      9  C   UNL     1      80.662  50.427  43.083  0.00  0.00    +0.079 C 
ATOM     10  O   UNL     1      81.635  49.431  42.789  0.00  0.00    -0.495 OA
ENDBRANCH   2  10
ENDBRANCH   1   4
BRANCH   1  11
ATOM     11  O   UNL     1      85.317  46.077  45.062  0.00  0.00    -0.381 OA
ATOM     12  H   UNL     1      86.154  45.598  44.954  0.00  0.00    +0.000 HD
ENDBRANCH   1  11
BRANCH   1  13
ATOM     13  C   UNL     1      84.869  45.320  42.813  0.00  0.00    +0.113 C 
BRANCH  13  14
ATOM     14  C   UNL     1      86.360  45.593  42.737  0.00  0.00    -0.016 A 
ATOM     15  C   UNL     1      87.296  44.551  42.893  0.00  0.00    -0.056 A 
ATOM     16  C   UNL     1      88.666  44.817  42.831  0.00  0.00    -0.061 A 
ATOM     17  C   UNL     1      89.120  46.122  42.618  0.00  0.00    -0.062 A 
ATOM     18  C   UNL     1      88.201  47.163  42.467  0.00  0.00    -0.061 A 
ATOM     19  C   UNL     1      86.829  46.903  42.528  0.00  0.00    -0.056 A 
ENDBRANCH  13  14
BRANCH  13  20
ATOM     20  O   UNL     1      84.577  44.047  42.289  0.00  0.00    -0.384 OA
ATOM     21  H   UNL     1      85.381  43.505  42.289  0.00  0.00    +0.000 HD
ENDBRANCH  13  20
ENDBRANCH   1  13
TORSDOF 6
ENDMDL
MODEL 6
REMARK VINA RESULT:    -6.549      5.448      6.675
REMARK INTER + INTRA:          -9.323
REMARK INTER:                  -8.534
REMARK INTRA:                  -0.789
REMARK UNBOUND:                -0.860
REMARK  Name = 
REMARK  7 active torsions:
REMARK  status: ('A' for Active; 'I' for Inactive)
REMARK    1  A    between atoms: C_1  and  O_2
REMARK    2  A    between atoms: O_2  and  C_3
REMARK    3  A    between atoms: C_5  and  C_10
REMARK    4  A    between atoms: C_10  and  C_11
REMARK    5  A    between atoms: C_10  and  O_19
REMARK    6  A    between atoms: C_11  and  C_12
REMARK    7  A    between atoms: C_11  and  O_18
REMARK                            x       y       z     vdW  Elec       q    Type
REMARK                         _______ _______ _______ _____ _____    ______ ____
ROOT
ATOM      1  C   UNL     1      89.251  51.649  41.881  0.00  0.00    +0.143 C 
ENDROOT
BRANCH   1   4
ATOM      2  C   UNL     1      86.290  52.789  44.000  0.00  0.00    +0.130 A 
ATOM      3  C   UNL     1      87.499  52.174  43.640  0.00  0.00    +0.021 A 
ATOM      4  C   UNL     1      87.950  52.279  42.313  0.00  0.00    +0.144 A 
ATOM      5  O   UNL     1      87.235  52.961  41.422  0.00  0.00    -0.424 OA
ATOM      6  C   UNL     1      86.085  53.556  41.725  0.00  0.00    +0.340 A 
ATOM      7  O   UNL     1      85.455  54.184  40.835  0.00  0.00    -0.245 OA
ATOM      8  C   UNL     1      85.577  53.489  43.025  0.00  0.00    +0.065 A 
BRANCH   2  10
ATOM      9  C   UNL     1      84.463  52.272  45.624  0.00  0.00    +0.079 C 
ATOM     10  O   UNL     1      85.771  52.733  45.301  0.00  0.00    -0.495 OA
ENDBRANCH   2  10
ENDBRANCH   1   4
BRANCH   1  11
ATOM     11  O   UNL     1      89.968  52.538  41.061  0.00  0.00    -0.381 OA
ATOM     12  H   UNL     1      89.585  53.427  41.136  0.00  0.00    +0.000 HD
ENDBRANCH   1  11
BRANCH   1  13
ATOM     13  C   UNL     1      88.992  50.329  41.115  0.00  0.00    +0.113 C 
BRANCH  13  14
ATOM     14  C   UNL     1      89.573  49.134  41.847  0.00  0.00    -0.016 A 
ATOM     15  C   UNL     1      89.092  47.832  41.605  0.00  0.00    -0.056 A 
ATOM     16  C   UNL     1      89.630  46.741  42.293  0.00  0.00    -0.061 A 
ATOM     17  C   UNL     1      90.647  46.934  43.231  0.00  0.00    -0.062 A 
ATOM     18  C   UNL     1      91.129  48.220  43.483  0.00  0.00    -0.061 A 
ATOM     19  C   UNL     1      90.595  49.316  42.798  0.00  0.00    -0.056 A 
ENDBRANCH  13  14
BRANCH  13  20
ATOM     20  O   UNL     1      87.621  50.132  40.865  0.00  0.00    -0.384 OA
ATOM     21  H   UNL     1      87.507  49.720  39.994  0.00  0.00    +0.000 HD
ENDBRANCH  13  20
ENDBRANCH   1  13
TORSDOF 6
ENDMDL
MODEL 7
REMARK VINA RESULT:    -6.548      2.624      3.999
REMARK INTER + INTRA:          -9.321
REMARK INTER:                  -8.490
REMARK INTRA:                  -0.832
REMARK UNBOUND:                -0.860
REMARK  Name = 
REMARK  7 active torsions:
REMARK  status: ('A' for Active; 'I' for Inactive)
REMARK    1  A    between atoms: C_1  and  O_2
REMARK    2  A    between atoms: O_2  and  C_3
REMARK    3  A    between atoms: C_5  and  C_10
REMARK    4  A    between atoms: C_10  and  C_11
REMARK    5  A    between atoms: C_10  and  O_19
REMARK    6  A    between atoms: C_11  and  C_12
REMARK    7  A    between atoms: C_11  and  O_18
REMARK                            x       y       z     vdW  Elec       q    Type
REMARK                         _______ _______ _______ _____ _____    ______ ____
ROOT
ATOM      1  C   UNL     1      85.522  54.874  43.116  0.00  0.00    +0.143 C 
ENDROOT
BRANCH   1   4
ATOM      2  C   UNL     1      87.350  51.555  43.561  0.00  0.00    +0.130 A 
ATOM      3  C   UNL     1      86.396  52.571  43.725  0.00  0.00    +0.021 A 
ATOM      4  C   UNL     1      86.531  53.759  42.987  0.00  0.00    +0.144 A 
ATOM      5  O   UNL     1      87.550  53.904  42.144  0.00  0.00    -0.424 OA
ATOM      6  C   UNL     1      88.474  52.965  41.963  0.00  0.00    +0.340 A 
ATOM      7  O   UNL     1      89.415  53.164  41.152  0.00  0.00    -0.245 OA
ATOM      8  C   UNL     1      88.402  51.760  42.667  0.00  0.00    +0.065 A 
BRANCH   2  10
ATOM      9  C   UNL     1      87.578  50.194  45.645  0.00  0.00    +0.079 C 
ATOM     10  O   UNL     1      87.288  50.339  44.258  0.00  0.00    -0.495 OA
ENDBRANCH   2  10
ENDBRANCH   1   4
BRANCH   1  11
ATOM     11  O   UNL     1      85.220  55.398  41.847  0.00  0.00    -0.381 OA
ATOM     12  H   UNL     1      85.962  55.940  41.536  0.00  0.00    +0.000 HD
ENDBRANCH   1  11
BRANCH   1  13
ATOM     13  C   UNL     1      86.065  55.999  44.028  0.00  0.00    +0.113 C 
BRANCH  13  14
ATOM     14  C   UNL     1      85.520  55.887  45.440  0.00  0.00    -0.016 A 
ATOM     15  C   UNL     1      86.196  55.134  46.419  0.00  0.00    -0.056 A 
ATOM     16  C   UNL     1      85.679  55.030  47.714  0.00  0.00    -0.061 A 
ATOM     17  C   UNL     1      84.482  55.672  48.045  0.00  0.00    -0.062 A 
ATOM     18  C   UNL     1      83.801  56.417  47.081  0.00  0.00    -0.061 A 
ATOM     19  C   UNL     1      84.313  56.524  45.784  0.00  0.00    -0.056 A 
ENDBRANCH  13  14
BRANCH  13  20
ATOM     20  O   UNL     1      87.471  56.024  44.046  0.00  0.00    -0.384 OA
ATOM     21  H   UNL     1      87.776  56.517  44.824  0.00  0.00    +0.000 HD
ENDBRANCH  13  20
ENDBRANCH   1  13
TORSDOF 6
ENDMDL
MODEL 8
REMARK VINA RESULT:    -6.402      6.648      7.909
REMARK INTER + INTRA:          -9.134
REMARK INTER:                  -8.279
REMARK INTRA:                  -0.854
REMARK UNBOUND:                -0.860
REMARK  Name = 
REMARK  7 active torsions:
REMARK  status: ('A' for Active; 'I' for Inactive)
REMARK    1  A    between atoms: C_1  and  O_2
REMARK    2  A    between atoms: O_2  and  C_3
REMARK    3  A    between atoms: C_5  and  C_10
REMARK    4  A    between atoms: C_10  and  C_11
REMARK    5  A    between atoms: C_10  and  O_19
REMARK    6  A    between atoms: C_11  and  C_12
REMARK    7  A    between atoms: C_11  and  O_18
REMARK                            x       y       z     vdW  Elec       q    Type
REMARK                         _______ _______ _______ _____ _____    ______ ____
ROOT
ATOM      1  C   UNL     1      87.373  49.092  42.314  0.00  0.00    +0.143 C 
ENDROOT
BRANCH   1   4
ATOM      2  C   UNL     1      85.632  46.116  43.945  0.00  0.00    +0.130 A 
ATOM      3  C   UNL     1      85.895  47.432  43.537  0.00  0.00    +0.021 A 
ATOM      4  C   UNL     1      87.055  47.696  42.790  0.00  0.00    +0.144 A 
ATOM      5  O   UNL     1      87.881  46.702  42.474  0.00  0.00    -0.424 OA
ATOM      6  C   UNL     1      87.666  45.443  42.843  0.00  0.00    +0.340 A 
ATOM      7  O   UNL     1      88.487  44.548  42.513  0.00  0.00    -0.245 OA
ATOM      8  C   UNL     1      86.534  45.110  43.590  0.00  0.00    +0.065 A 
BRANCH   2  10
ATOM      9  C   UNL     1      83.182  45.671  44.157  0.00  0.00    +0.079 C 
ATOM     10  O   UNL     1      84.498  45.768  44.693  0.00  0.00    -0.495 OA
ENDBRANCH   2  10
ENDBRANCH   1   4
BRANCH   1  11
ATOM     11  O   UNL     1      87.772  49.063  40.966  0.00  0.00    -0.381 OA
ATOM     12  H   UNL     1      87.744  49.962  40.601  0.00  0.00    +0.000 HD
ENDBRANCH   1  11
BRANCH   1  13
ATOM     13  C   UNL     1      88.495  49.721  43.174  0.00  0.00    +0.113 C 
BRANCH  13  14
ATOM     14  C   UNL     1      87.931  50.480  44.361  0.00  0.00    -0.016 A 
ATOM     15  C   UNL     1      87.940  49.916  45.652  0.00  0.00    -0.056 A 
ATOM     16  C   UNL     1      87.409  50.622  46.735  0.00  0.00    -0.061 A 
ATOM     17  C   UNL     1      86.861  51.894  46.544  0.00  0.00    -0.062 A 
ATOM     18  C   UNL     1      86.843  52.461  45.268  0.00  0.00    -0.061 A 
ATOM     19  C   UNL     1      87.373  51.759  44.181  0.00  0.00    -0.056 A 
ENDBRANCH  13  14
BRANCH  13  20
ATOM     20  O   UNL     1      89.424  48.756  43.606  0.00  0.00    -0.384 OA
ATOM     21  H   UNL     1      89.549  48.093  42.909  0.00  0.00    +0.000 HD
ENDBRANCH  13  20
ENDBRANCH   1  13
TORSDOF 6
ENDMDL
MODEL 9
REMARK VINA RESULT:    -6.300      2.481      2.782
REMARK INTER + INTRA:          -9.002
REMARK INTER:                  -8.142
REMARK INTRA:                  -0.860
REMARK UNBOUND:                -0.860
REMARK  Name = 
REMARK  7 active torsions:
REMARK  status: ('A' for Active; 'I' for Inactive)
REMARK    1  A    between atoms: C_1  and  O_2
REMARK    2  A    between atoms: O_2  and  C_3
REMARK    3  A    between atoms: C_5  and  C_10
REMARK    4  A    between atoms: C_10  and  C_11
REMARK    5  A    between atoms: C_10  and  O_19
REMARK    6  A    between atoms: C_11  and  C_12
REMARK    7  A    between atoms: C_11  and  O_18
REMARK                            x       y       z     vdW  Elec       q    Type
REMARK                         _______ _______ _______ _____ _____    ______ ____
ROOT
ATOM      1  C   UNL     1      84.730  55.583  43.184  0.00  0.00    +0.143 C 
ENDROOT
BRANCH   1   4
ATOM      2  C   UNL     1      85.195  51.801  42.985  0.00  0.00    +0.130 A 
ATOM      3  C   UNL     1      84.761  53.058  43.434  0.00  0.00    +0.021 A 
ATOM      4  C   UNL     1      85.182  54.210  42.750  0.00  0.00    +0.144 A 
ATOM      5  O   UNL     1      85.976  54.098  41.688  0.00  0.00    -0.424 OA
ATOM      6  C   UNL     1      86.408  52.926  41.233  0.00  0.00    +0.340 A 
ATOM      7  O   UNL     1      87.159  52.887  40.224  0.00  0.00    -0.245 OA
ATOM      8  C   UNL     1      86.031  51.740  41.868  0.00  0.00    +0.065 A 
BRANCH   2  10
ATOM      9  C   UNL     1      83.520  50.339  44.125  0.00  0.00    +0.079 C 
ATOM     10  O   UNL     1      84.821  50.603  43.610  0.00  0.00    -0.495 OA
ENDBRANCH   2  10
ENDBRANCH   1   4
BRANCH   1  11
ATOM     11  O   UNL     1      84.590  56.421  42.065  0.00  0.00    -0.381 OA
ATOM     12  H   UNL     1      84.854  57.324  42.303  0.00  0.00    +0.000 HD
ENDBRANCH   1  11
BRANCH   1  13
ATOM     13  C   UNL     1      85.741  56.203  44.177  0.00  0.00    +0.113 C 
BRANCH  13  14
ATOM     14  C   UNL     1      85.372  55.899  45.616  0.00  0.00    -0.016 A 
ATOM     15  C   UNL     1      84.236  56.481  46.211  0.00  0.00    -0.056 A 
ATOM     16  C   UNL     1      83.912  56.200  47.542  0.00  0.00    -0.061 A 
ATOM     17  C   UNL     1      84.718  55.340  48.294  0.00  0.00    -0.062 A 
ATOM     18  C   UNL     1      85.849  54.761  47.716  0.00  0.00    -0.061 A 
ATOM     19  C   UNL     1      86.178  55.039  46.386  0.00  0.00    -0.056 A 
ENDBRANCH  13  14
BRANCH  13  20
ATOM     20  O   UNL     1      87.058  55.785  43.909  0.00  0.00    -0.384 OA
ATOM     21  H   UNL     1      87.197  55.749  42.950  0.00  0.00    +0.000 HD
ENDBRANCH  13  20
ENDBRANCH   1  13
TORSDOF 6
ENDMDL
