MODEL 1
REMARK VINA RESULT:    -6.919      0.000      0.000
REMARK INTER + INTRA:          -9.740
REMARK INTER:                  -8.941
REMARK INTRA:                  -0.799
REMARK UNBOUND:                -0.798
REMARK  Name = 
REMARK  7 active torsions:
REMARK  status: ('A' for Active; 'I' for Inactive)
REMARK    1  A    between atoms: C_1  and  O_2
REMARK    2  A    between atoms: O_2  and  C_3
REMARK    3  A    between atoms: C_5  and  C_10
REMARK    4  A    between atoms: C_10  and  C_11
REMARK    5  A    between atoms: C_10  and  O_19
REMARK    6  A    between atoms: C_11  and  C_12
REMARK    7  A    between atoms: C_11  and  O_18
REMARK                            x       y       z     vdW  Elec       q    Type
REMARK                         _______ _______ _______ _____ _____    ______ ____
ROOT
ATOM      1  C   UNL     1      86.319  55.476  44.454  0.00  0.00    +0.143 C 
ENDROOT
BRANCH   1   4
ATOM      2  C   UNL     1      83.902  53.282  42.482  0.00  0.00    +0.130 A 
ATOM      3  C   UNL     1      84.706  53.755  43.532  0.00  0.00    +0.021 A 
ATOM      4  C   UNL     1      85.460  54.923  43.342  0.00  0.00    +0.144 A 
ATOM      5  O   UNL     1      85.398  55.571  42.179  0.00  0.00    -0.424 OA
ATOM      6  C   UNL     1      84.650  55.153  41.163  0.00  0.00    +0.340 A 
ATOM      7  O   UNL     1      84.638  55.809  40.088  0.00  0.00    -0.245 OA
ATOM      8  C   UNL     1      83.880  53.994  41.282  0.00  0.00    +0.065 A 
BRANCH   2  10
ATOM      9  C   UNL     1      82.046  51.793  41.717  0.00  0.00    +0.079 C 
ATOM     10  O   UNL     1      83.120  52.123  42.592  0.00  0.00    -0.495 OA
ENDBRANCH   2  10
ENDBRANCH   1   4
BRANCH   1  11
ATOM     11  O   UNL     1      87.381  56.227  43.918  0.00  0.00    -0.381 OA
ATOM     12  H   UNL     1      87.813  56.728  44.628  0.00  0.00    +0.000 HD
ENDBRANCH   1  11
BRANCH   1  13
ATOM     13  C   UNL     1      85.468  56.327  45.435  0.00  0.00    +0.113 C 
BRANCH  13  14
ATOM     14  C   UNL     1      85.068  55.532  46.663  0.00  0.00    -0.016 A 
ATOM     15  C   UNL     1      86.022  54.745  47.336  0.00  0.00    -0.056 A 
ATOM     16  C   UNL     1      85.659  54.002  48.463  0.00  0.00    -0.061 A 
ATOM     17  C   UNL     1      84.343  54.034  48.930  0.00  0.00    -0.062 A 
ATOM     18  C   UNL     1      83.386  54.807  48.269  0.00  0.00    -0.061 A 
ATOM     19  C   UNL     1      83.744  55.552  47.140  0.00  0.00    -0.056 A 
ENDBRANCH  13  14
BRANCH  13  20
ATOM     20  O   UNL     1      84.328  56.860  44.804  0.00  0.00    -0.384 OA
ATOM     21  H   UNL     1      83.813  56.142  44.404  0.00  0.00    +0.000 HD
ENDBRANCH  13  20
ENDBRANCH   1  13
TORSDOF 6
ENDMDL
MODEL 2
REMARK VINA RESULT:    -6.895      3.847      5.451
REMARK INTER + INTRA:          -9.709
REMARK INTER:                  -8.910
REMARK INTRA:                  -0.800
REMARK UNBOUND:                -0.798
REMARK  Name = 
REMARK  7 active torsions:
REMARK  status: ('A' for Active; 'I' for Inactive)
REMARK    1  A    between atoms: C_1  and  O_2
REMARK    2  A    between atoms: O_2  and  C_3
REMARK    3  A    between atoms: C_5  and  C_10
REMARK    4  A    between atoms: C_10  and  C_11
REMARK    5  A    between atoms: C_10  and  O_19
REMARK    6  A    between atoms: C_11  and  C_12
REMARK    7  A    between atoms: C_11  and  O_18
REMARK                            x       y       z     vdW  Elec       q    Type
REMARK                         _______ _______ _______ _____ _____    ______ ____
ROOT
ATOM      1  C   UNL     1      87.172  52.542  40.313  0.00  0.00    +0.143 C 
ENDROOT
BRANCH   1   4
ATOM      2  C   UNL     1      83.856  52.670  42.193  0.00  0.00    +0.130 A 
ATOM      3  C   UNL     1      84.997  52.159  41.552  0.00  0.00    +0.021 A 
ATOM      4  C   UNL     1      85.922  53.052  40.990  0.00  0.00    +0.144 A 
ATOM      5  O   UNL     1      85.715  54.365  41.078  0.00  0.00    -0.424 OA
ATOM      6  C   UNL     1      84.647  54.886  41.675  0.00  0.00    +0.340 A 
ATOM      7  O   UNL     1      84.507  56.136  41.722  0.00  0.00    -0.245 OA
ATOM      8  C   UNL     1      83.684  54.054  42.250  0.00  0.00    +0.065 A 
BRANCH   2  10
ATOM      9  C   UNL     1      81.932  51.082  42.046  0.00  0.00    +0.079 C 
ATOM     10  O   UNL     1      82.885  51.846  42.778  0.00  0.00    -0.495 OA
ENDBRANCH   2  10
ENDBRANCH   1   4
BRANCH   1  11
ATOM     11  O   UNL     1      87.326  53.155  39.056  0.00  0.00    -0.381 OA
ATOM     12  H   UNL     1      87.845  53.969  39.154  0.00  0.00    +0.000 HD
ENDBRANCH   1  11
BRANCH   1  13
ATOM     13  C   UNL     1      88.417  52.778  41.209  0.00  0.00    +0.113 C 
BRANCH  13  14
ATOM     14  C   UNL     1      88.831  51.513  41.937  0.00  0.00    -0.016 A 
ATOM     15  C   UNL     1      89.834  50.685  41.397  0.00  0.00    -0.056 A 
ATOM     16  C   UNL     1      90.215  49.513  42.057  0.00  0.00    -0.061 A 
ATOM     17  C   UNL     1      89.599  49.153  43.258  0.00  0.00    -0.062 A 
ATOM     18  C   UNL     1      88.600  49.963  43.801  0.00  0.00    -0.061 A 
ATOM     19  C   UNL     1      88.215  51.137  43.145  0.00  0.00    -0.056 A 
ENDBRANCH  13  14
BRANCH  13  20
ATOM     20  O   UNL     1      88.205  53.824  42.127  0.00  0.00    -0.384 OA
ATOM     21  H   UNL     1      87.436  53.619  42.681  0.00  0.00    +0.000 HD
ENDBRANCH  13  20
ENDBRANCH   1  13
TORSDOF 6
ENDMDL
MODEL 3
REMARK VINA RESULT:    -6.857      6.948      9.698
REMARK INTER + INTRA:          -9.660
REMARK INTER:                  -9.196
REMARK INTRA:                  -0.464
REMARK UNBOUND:                -0.798
REMARK  Name = 
REMARK  7 active torsions:
REMARK  status: ('A' for Active; 'I' for Inactive)
REMARK    1  A    between atoms: C_1  and  O_2
REMARK    2  A    between atoms: O_2  and  C_3
REMARK    3  A    between atoms: C_5  and  C_10
REMARK    4  A    between atoms: C_10  and  C_11
REMARK    5  A    between atoms: C_10  and  O_19
REMARK    6  A    between atoms: C_11  and  C_12
REMARK    7  A    between atoms: C_11  and  O_18
REMARK                            x       y       z     vdW  Elec       q    Type
REMARK                         _______ _______ _______ _____ _____    ______ ____
ROOT
ATOM      1  C   UNL     1      84.874  46.869  43.551  0.00  0.00    +0.143 C 
ENDROOT
BRANCH   1   4
ATOM      2  C   UNL     1      81.693  48.956  43.284  0.00  0.00    +0.130 A 
ATOM      3  C   UNL     1      83.039  48.573  43.168  0.00  0.00    +0.021 A 
ATOM      4  C   UNL     1      83.441  47.328  43.678  0.00  0.00    +0.144 A 
ATOM      5  O   UNL     1      82.546  46.527  44.253  0.00  0.00    -0.424 OA
ATOM      6  C   UNL     1      81.265  46.856  44.383  0.00  0.00    +0.340 A 
ATOM      7  O   UNL     1      80.469  46.056  44.941  0.00  0.00    -0.245 OA
ATOM      8  C   UNL     1      80.799  48.082  43.904  0.00  0.00    +0.065 A 
BRANCH   2  10
ATOM      9  C   UNL     1      81.821  50.928  41.754  0.00  0.00    +0.079 C 
ATOM     10  O   UNL     1      81.212  50.182  42.803  0.00  0.00    -0.495 OA
ENDBRANCH   2  10
ENDBRANCH   1   4
BRANCH   1  11
ATOM     11  O   UNL     1      85.572  47.126  44.745  0.00  0.00    -0.381 OA
ATOM     12  H   UNL     1      86.508  46.895  44.629  0.00  0.00    +0.000 HD
ENDBRANCH   1  11
BRANCH   1  13
ATOM     13  C   UNL     1      84.939  45.365  43.174  0.00  0.00    +0.113 C 
BRANCH  13  14
ATOM     14  C   UNL     1      86.360  44.837  43.219  0.00  0.00    -0.016 A 
ATOM     15  C   UNL     1      87.373  45.473  42.476  0.00  0.00    -0.056 A 
ATOM     16  C   UNL     1      88.683  44.987  42.504  0.00  0.00    -0.061 A 
ATOM     17  C   UNL     1      88.997  43.861  43.270  0.00  0.00    -0.062 A 
ATOM     18  C   UNL     1      88.000  43.219  44.008  0.00  0.00    -0.061 A 
ATOM     19  C   UNL     1      86.687  43.701  43.984  0.00  0.00    -0.056 A 
ENDBRANCH  13  14
BRANCH  13  20
ATOM     20  O   UNL     1      84.365  45.122  41.911  0.00  0.00    -0.384 OA
ATOM     21  H   UNL     1      84.845  44.404  41.471  0.00  0.00    +0.000 HD
ENDBRANCH  13  20
ENDBRANCH   1  13
TORSDOF 6
ENDMDL
MODEL 4
REMARK VINA RESULT:    -6.811      1.653      2.269
REMARK INTER + INTRA:          -9.601
REMARK INTER:                  -9.408
REMARK INTRA:                  -0.193
REMARK UNBOUND:                -0.798
REMARK  Name = 
REMARK  7 active torsions:
REMARK  status: ('A' for Active; 'I' for Inactive)
REMARK    1  A    between atoms: C_1  and  O_2
REMARK    2  A    between atoms: O_2  and  C_3
REMARK    3  A    between atoms: C_5  and  C_10
REMARK    4  A    between atoms: C_10  and  C_11
REMARK    5  A    between atoms: C_10  and  O_19
REMARK    6  A    between atoms: C_11  and  C_12
REMARK    7  A    between atoms: C_11  and  O_18
REMARK                            x       y       z     vdW  Elec       q    Type
REMARK                         _______ _______ _______ _____ _____    ______ ____
ROOT
ATOM      1  C   UNL     1      86.236  57.791  44.276  0.00  0.00    +0.143 C 
ENDROOT
BRANCH   1   4
ATOM      2  C   UNL     1      84.293  55.257  42.190  0.00  0.00    +0.130 A 
ATOM      3  C   UNL     1      84.654  56.466  42.806  0.00  0.00    +0.021 A 
ATOM      4  C   UNL     1      85.800  56.504  43.615  0.00  0.00    +0.144 A 
ATOM      5  O   UNL     1      86.534  55.404  43.779  0.00  0.00    -0.424 OA
ATOM      6  C   UNL     1      86.223  54.242  43.214  0.00  0.00    +0.340 A 
ATOM      7  O   UNL     1      86.955  53.237  43.412  0.00  0.00    -0.245 OA
ATOM      8  C   UNL     1      85.091  54.132  42.403  0.00  0.00    +0.065 A 
BRANCH   2  10
ATOM      9  C   UNL     1      82.300  54.002  41.352  0.00  0.00    +0.079 C 
ATOM     10  O   UNL     1      83.162  55.135  41.370  0.00  0.00    -0.495 OA
ENDBRANCH   2  10
ENDBRANCH   1   4
BRANCH   1  11
ATOM     11  O   UNL     1      86.236  58.840  43.338  0.00  0.00    -0.381 OA
ATOM     12  H   UNL     1      85.653  59.551  43.649  0.00  0.00    +0.000 HD
ENDBRANCH   1  11
BRANCH   1  13
ATOM     13  C   UNL     1      85.326  58.121  45.489  0.00  0.00    +0.113 C 
BRANCH  13  14
ATOM     14  C   UNL     1      85.059  56.893  46.339  0.00  0.00    -0.016 A 
ATOM     15  C   UNL     1      86.134  56.178  46.902  0.00  0.00    -0.056 A 
ATOM     16  C   UNL     1      85.897  55.041  47.680  0.00  0.00    -0.061 A 
ATOM     17  C   UNL     1      84.588  54.603  47.901  0.00  0.00    -0.062 A 
ATOM     18  C   UNL     1      83.515  55.301  47.344  0.00  0.00    -0.061 A 
ATOM     19  C   UNL     1      83.746  56.440  46.566  0.00  0.00    -0.056 A 
ENDBRANCH  13  14
BRANCH  13  20
ATOM     20  O   UNL     1      84.113  58.708  45.083  0.00  0.00    -0.384 OA
ATOM     21  H   UNL     1      84.226  59.668  45.011  0.00  0.00    +0.000 HD
ENDBRANCH  13  20
ENDBRANCH   1  13
TORSDOF 6
ENDMDL
MODEL 5
REMARK VINA RESULT:    -6.806      1.822      2.252
REMARK INTER + INTRA:          -9.593
REMARK INTER:                  -8.928
REMARK INTRA:                  -0.665
REMARK UNBOUND:                -0.798
REMARK  Name = 
REMARK  7 active torsions:
REMARK  status: ('A' for Active; 'I' for Inactive)
REMARK    1  A    between atoms: C_1  and  O_2
REMARK    2  A    between atoms: O_2  and  C_3
REMARK    3  A    between atoms: C_5  and  C_10
REMARK    4  A    between atoms: C_10  and  C_11
REMARK    5  A    between atoms: C_10  and  O_19
REMARK    6  A    between atoms: C_11  and  C_12
REMARK    7  A    between atoms: C_11  and  O_18
REMARK                            x       y       z     vdW  Elec       q    Type
REMARK                         _______ _______ _______ _____ _____    ______ ____
ROOT
ATOM      1  C   UNL     1      86.272  57.762  44.343  0.00  0.00    +0.143 C 
ENDROOT
BRANCH   1   4
ATOM      2  C   UNL     1      86.239  54.217  42.936  0.00  0.00    +0.130 A 
ATOM      3  C   UNL     1      86.681  55.378  43.593  0.00  0.00    +0.021 A 
ATOM      4  C   UNL     1      85.844  56.503  43.626  0.00  0.00    +0.144 A 
ATOM      5  O   UNL     1      84.644  56.456  43.048  0.00  0.00    -0.424 OA
ATOM      6  C   UNL     1      84.193  55.377  42.416  0.00  0.00    +0.340 A 
ATOM      7  O   UNL     1      83.051  55.397  41.887  0.00  0.00    -0.245 OA
ATOM      8  C   UNL     1      84.977  54.224  42.339  0.00  0.00    +0.065 A 
BRANCH   2  10
ATOM      9  C   UNL     1      86.896  52.076  41.827  0.00  0.00    +0.079 C 
ATOM     10  O   UNL     1      87.015  53.052  42.856  0.00  0.00    -0.495 OA
ENDBRANCH   2  10
ENDBRANCH   1   4
BRANCH   1  11
ATOM     11  O   UNL     1      86.340  58.835  43.435  0.00  0.00    -0.381 OA
ATOM     12  H   UNL     1      85.618  58.761  42.791  0.00  0.00    +0.000 HD
ENDBRANCH   1  11
BRANCH   1  13
ATOM     13  C   UNL     1      85.310  58.081  45.518  0.00  0.00    +0.113 C 
BRANCH  13  14
ATOM     14  C   UNL     1      85.060  56.860  46.384  0.00  0.00    -0.016 A 
ATOM     15  C   UNL     1      86.143  56.183  46.978  0.00  0.00    -0.056 A 
ATOM     16  C   UNL     1      85.921  55.052  47.769  0.00  0.00    -0.061 A 
ATOM     17  C   UNL     1      84.621  54.583  47.973  0.00  0.00    -0.062 A 
ATOM     18  C   UNL     1      83.540  55.243  47.386  0.00  0.00    -0.061 A 
ATOM     19  C   UNL     1      83.756  56.375  46.593  0.00  0.00    -0.056 A 
ENDBRANCH  13  14
BRANCH  13  20
ATOM     20  O   UNL     1      84.091  58.615  45.060  0.00  0.00    -0.384 OA
ATOM     21  H   UNL     1      84.260  59.232  44.333  0.00  0.00    +0.000 HD
ENDBRANCH  13  20
ENDBRANCH   1  13
TORSDOF 6
ENDMDL
MODEL 6
REMARK VINA RESULT:    -6.596      3.952      5.754
REMARK INTER + INTRA:          -9.322
REMARK INTER:                  -8.505
REMARK INTRA:                  -0.817
REMARK UNBOUND:                -0.798
REMARK  Name = 
REMARK  7 active torsions:
REMARK  status: ('A' for Active; 'I' for Inactive)
REMARK    1  A    between atoms: C_1  and  O_2
REMARK    2  A    between atoms: O_2  and  C_3
REMARK    3  A    between atoms: C_5  and  C_10
REMARK    4  A    between atoms: C_10  and  C_11
REMARK    5  A    between atoms: C_10  and  O_19
REMARK    6  A    between atoms: C_11  and  C_12
REMARK    7  A    between atoms: C_11  and  O_18
REMARK                            x       y       z     vdW  Elec       q    Type
REMARK                         _______ _______ _______ _____ _____    ______ ____
ROOT
ATOM      1  C   UNL     1      86.548  53.702  42.829  0.00  0.00    +0.143 C 
ENDROOT
BRANCH   1   4
ATOM      2  C   UNL     1      89.180  51.054  42.051  0.00  0.00    +0.130 A 
ATOM      3  C   UNL     1      88.043  51.671  42.599  0.00  0.00    +0.021 A 
ATOM      4  C   UNL     1      87.773  53.010  42.280  0.00  0.00    +0.144 A 
ATOM      5  O   UNL     1      88.586  53.674  41.459  0.00  0.00    -0.424 OA
ATOM      6  C   UNL     1      89.672  53.125  40.923  0.00  0.00    +0.340 A 
ATOM      7  O   UNL     1      90.402  53.807  40.158  0.00  0.00    -0.245 OA
ATOM      8  C   UNL     1      90.003  51.797  41.204  0.00  0.00    +0.065 A 
BRANCH   2  10
ATOM      9  C   UNL     1      90.595  49.024  41.700  0.00  0.00    +0.079 C 
ATOM     10  O   UNL     1      89.521  49.721  42.322  0.00  0.00    -0.495 OA
ENDBRANCH   2  10
ENDBRANCH   1   4
BRANCH   1  11
ATOM     11  O   UNL     1      86.873  55.009  43.238  0.00  0.00    -0.381 OA
ATOM     12  H   UNL     1      86.735  55.623  42.499  0.00  0.00    +0.000 HD
ENDBRANCH   1  11
BRANCH   1  13
ATOM     13  C   UNL     1      85.404  53.710  41.780  0.00  0.00    +0.113 C 
BRANCH  13  14
ATOM     14  C   UNL     1      84.308  52.725  42.140  0.00  0.00    -0.016 A 
ATOM     15  C   UNL     1      83.150  52.638  41.344  0.00  0.00    -0.056 A 
ATOM     16  C   UNL     1      82.131  51.739  41.674  0.00  0.00    -0.061 A 
ATOM     17  C   UNL     1      82.254  50.922  42.800  0.00  0.00    -0.062 A 
ATOM     18  C   UNL     1      83.396  51.002  43.600  0.00  0.00    -0.061 A 
ATOM     19  C   UNL     1      84.419  51.899  43.275  0.00  0.00    -0.056 A 
ENDBRANCH  13  14
BRANCH  13  20
ATOM     20  O   UNL     1      85.888  53.453  40.483  0.00  0.00    -0.384 OA
ATOM     21  H   UNL     1      86.139  52.519  40.410  0.00  0.00    +0.000 HD
ENDBRANCH  13  20
ENDBRANCH   1  13
TORSDOF 6
ENDMDL
MODEL 7
REMARK VINA RESULT:    -6.543      4.035      5.272
REMARK INTER + INTRA:          -9.254
REMARK INTER:                  -8.495
REMARK INTRA:                  -0.759
REMARK UNBOUND:                -0.798
REMARK  Name = 
REMARK  7 active torsions:
REMARK  status: ('A' for Active; 'I' for Inactive)
REMARK    1  A    between atoms: C_1  and  O_2
REMARK    2  A    between atoms: O_2  and  C_3
REMARK    3  A    between atoms: C_5  and  C_10
REMARK    4  A    between atoms: C_10  and  C_11
REMARK    5  A    between atoms: C_10  and  O_19
REMARK    6  A    between atoms: C_11  and  C_12
REMARK    7  A    between atoms: C_11  and  O_18
REMARK                            x       y       z     vdW  Elec       q    Type
REMARK                         _______ _______ _______ _____ _____    ______ ____
ROOT
ATOM      1  C   UNL     1      86.194  52.039  43.557  0.00  0.00    +0.143 C 
ENDROOT
BRANCH   1   4
ATOM      2  C   UNL     1      89.181  52.885  41.342  0.00  0.00    +0.130 A 
ATOM      3  C   UNL     1      88.011  53.039  42.104  0.00  0.00    +0.021 A 
ATOM      4  C   UNL     1      87.438  51.911  42.710  0.00  0.00    +0.144 A 
ATOM      5  O   UNL     1      88.010  50.716  42.565  0.00  0.00    -0.424 OA
ATOM      6  C   UNL     1      89.115  50.531  41.850  0.00  0.00    +0.340 A 
ATOM      7  O   UNL     1      89.605  49.376  41.747  0.00  0.00    -0.245 OA
ATOM      8  C   UNL     1      89.734  51.610  41.214  0.00  0.00    +0.065 A 
BRANCH   2  10
ATOM      9  C   UNL     1      90.814  53.824  39.699  0.00  0.00    +0.079 C 
ATOM     10  O   UNL     1      89.814  53.961  40.704  0.00  0.00    -0.495 OA
ENDBRANCH   2  10
ENDBRANCH   1   4
BRANCH   1  11
ATOM     11  O   UNL     1      85.213  51.131  43.117  0.00  0.00    -0.381 OA
ATOM     12  H   UNL     1      85.216  50.349  43.691  0.00  0.00    +0.000 HD
ENDBRANCH   1  11
BRANCH   1  13
ATOM     13  C   UNL     1      86.526  51.823  45.058  0.00  0.00    +0.113 C 
BRANCH  13  14
ATOM     14  C   UNL     1      86.328  53.093  45.864  0.00  0.00    -0.016 A 
ATOM     15  C   UNL     1      85.896  53.018  47.202  0.00  0.00    -0.056 A 
ATOM     16  C   UNL     1      85.702  54.184  47.949  0.00  0.00    -0.061 A 
ATOM     17  C   UNL     1      85.932  55.434  47.369  0.00  0.00    -0.062 A 
ATOM     18  C   UNL     1      86.355  55.522  46.042  0.00  0.00    -0.061 A 
ATOM     19  C   UNL     1      86.552  54.358  45.290  0.00  0.00    -0.056 A 
ENDBRANCH  13  14
BRANCH  13  20
ATOM     20  O   UNL     1      87.834  51.331  45.234  0.00  0.00    -0.384 OA
ATOM     21  H   UNL     1      88.209  51.695  46.050  0.00  0.00    +0.000 HD
ENDBRANCH  13  20
ENDBRANCH   1  13
TORSDOF 6
ENDMDL
MODEL 8
REMARK VINA RESULT:    -6.453      4.796      6.791
REMARK INTER + INTRA:          -9.137
REMARK INTER:                  -8.610
REMARK INTRA:                  -0.528
REMARK UNBOUND:                -0.798
REMARK  Name = 
REMARK  7 active torsions:
REMARK  status: ('A' for Active; 'I' for Inactive)
REMARK    1  A    between atoms: C_1  and  O_2
REMARK    2  A    between atoms: O_2  and  C_3
REMARK    3  A    between atoms: C_5  and  C_10
REMARK    4  A    between atoms: C_10  and  C_11
REMARK    5  A    between atoms: C_10  and  O_19
REMARK    6  A    between atoms: C_11  and  C_12
REMARK    7  A    between atoms: C_11  and  O_18
REMARK                            x       y       z     vdW  Elec       q    Type
REMARK                         _______ _______ _______ _____ _____    ______ ____
ROOT
ATOM      1  C   UNL     1      87.903  52.082  42.212  0.00  0.00    +0.143 C 
ENDROOT
BRANCH   1   4
ATOM      2  C   UNL     1      85.607  55.068  42.810  0.00  0.00    +0.130 A 
ATOM      3  C   UNL     1      86.607  54.104  43.017  0.00  0.00    +0.021 A 
ATOM      4  C   UNL     1      86.821  53.122  42.038  0.00  0.00    +0.144 A 
ATOM      5  O   UNL     1      86.086  53.121  40.927  0.00  0.00    -0.424 OA
ATOM      6  C   UNL     1      85.130  54.015  40.697  0.00  0.00    +0.340 A 
ATOM      7  O   UNL     1      84.467  53.958  39.628  0.00  0.00    -0.245 OA
ATOM      8  C   UNL     1      84.860  55.016  41.633  0.00  0.00    +0.065 A 
BRANCH   2  10
ATOM      9  C   UNL     1      86.311  56.943  44.305  0.00  0.00    +0.079 C 
ATOM     10  O   UNL     1      85.330  56.081  43.739  0.00  0.00    -0.495 OA
ENDBRANCH   2  10
ENDBRANCH   1   4
BRANCH   1  11
ATOM     11  O   UNL     1      87.784  51.467  43.472  0.00  0.00    -0.381 OA
ATOM     12  H   UNL     1      86.847  51.304  43.666  0.00  0.00    +0.000 HD
ENDBRANCH   1  11
BRANCH   1  13
ATOM     13  C   UNL     1      87.848  51.034  41.069  0.00  0.00    +0.113 C 
BRANCH  13  14
ATOM     14  C   UNL     1      88.686  49.811  41.389  0.00  0.00    -0.016 A 
ATOM     15  C   UNL     1      88.086  48.539  41.441  0.00  0.00    -0.056 A 
ATOM     16  C   UNL     1      88.850  47.408  41.744  0.00  0.00    -0.061 A 
ATOM     17  C   UNL     1      90.217  47.534  42.002  0.00  0.00    -0.062 A 
ATOM     18  C   UNL     1      90.823  48.791  41.957  0.00  0.00    -0.061 A 
ATOM     19  C   UNL     1      90.064  49.926  41.654  0.00  0.00    -0.056 A 
ENDBRANCH  13  14
BRANCH  13  20
ATOM     20  O   UNL     1      88.243  51.590  39.837  0.00  0.00    -0.384 OA
ATOM     21  H   UNL     1      88.182  52.556  39.883  0.00  0.00    +0.000 HD
ENDBRANCH  13  20
ENDBRANCH   1  13
TORSDOF 6
ENDMDL
MODEL 9
REMARK VINA RESULT:    -6.390      5.374      7.283
REMARK INTER + INTRA:          -9.056
REMARK INTER:                  -8.257
REMARK INTRA:                  -0.798
REMARK UNBOUND:                -0.798
REMARK  Name = 
REMARK  7 active torsions:
REMARK  status: ('A' for Active; 'I' for Inactive)
REMARK    1  A    between atoms: C_1  and  O_2
REMARK    2  A    between atoms: O_2  and  C_3
REMARK    3  A    between atoms: C_5  and  C_10
REMARK    4  A    between atoms: C_10  and  C_11
REMARK    5  A    between atoms: C_10  and  O_19
REMARK    6  A    between atoms: C_11  and  C_12
REMARK    7  A    between atoms: C_11  and  O_18
REMARK                            x       y       z     vdW  Elec       q    Type
REMARK                         _______ _______ _______ _____ _____    ______ ____
ROOT
ATOM      1  C   UNL     1      85.882  49.427  44.503  0.00  0.00    +0.143 C 
ENDROOT
BRANCH   1   4
ATOM      2  C   UNL     1      82.456  49.774  42.865  0.00  0.00    +0.130 A 
ATOM      3  C   UNL     1      83.723  50.110  43.369  0.00  0.00    +0.021 A 
ATOM      4  C   UNL     1      84.505  49.112  43.970  0.00  0.00    +0.144 A 
ATOM      5  O   UNL     1      84.044  47.864  44.048  0.00  0.00    -0.424 OA
ATOM      6  C   UNL     1      82.850  47.508  43.584  0.00  0.00    +0.340 A 
ATOM      7  O   UNL     1      82.470  46.313  43.691  0.00  0.00    -0.245 OA
ATOM      8  C   UNL     1      82.018  48.454  42.979  0.00  0.00    +0.065 A 
BRANCH   2  10
ATOM      9  C   UNL     1      82.045  51.972  41.750  0.00  0.00    +0.079 C 
ATOM     10  O   UNL     1      81.613  50.712  42.251  0.00  0.00    -0.495 OA
ENDBRANCH   2  10
ENDBRANCH   1   4
BRANCH   1  11
ATOM     11  O   UNL     1      85.986  49.022  45.846  0.00  0.00    -0.381 OA
ATOM     12  H   UNL     1      86.105  48.060  45.885  0.00  0.00    +0.000 HD
ENDBRANCH   1  11
BRANCH   1  13
ATOM     13  C   UNL     1      86.977  48.760  43.628  0.00  0.00    +0.113 C 
BRANCH  13  14
ATOM     14  C   UNL     1      87.841  49.792  42.929  0.00  0.00    -0.016 A 
ATOM     15  C   UNL     1      87.549  51.163  43.060  0.00  0.00    -0.056 A 
ATOM     16  C   UNL     1      88.335  52.119  42.411  0.00  0.00    -0.061 A 
ATOM     17  C   UNL     1      89.417  51.720  41.622  0.00  0.00    -0.062 A 
ATOM     18  C   UNL     1      89.715  50.363  41.481  0.00  0.00    -0.061 A 
ATOM     19  C   UNL     1      88.931  49.401  42.128  0.00  0.00    -0.056 A 
ENDBRANCH  13  14
BRANCH  13  20
ATOM     20  O   UNL     1      86.419  47.870  42.690  0.00  0.00    -0.384 OA
ATOM     21  H   UNL     1      85.891  47.202  43.151  0.00  0.00    +0.000 HD
ENDBRANCH  13  20
ENDBRANCH   1  13
TORSDOF 6
ENDMDL
