MODEL 1
REMARK VINA RESULT:    -7.311      0.000      0.000
REMARK INTER + INTRA:          -9.966
REMARK INTER:                  -9.173
REMARK INTRA:                  -0.793
REMARK UNBOUND:                -0.517
REMARK  Name = 
REMARK  7 active torsions:
REMARK  status: ('A' for Active; 'I' for Inactive)
REMARK    1  A    between atoms: C_1  and  O_2
REMARK    2  A    between atoms: O_2  and  C_3
REMARK    3  A    between atoms: C_5  and  C_10
REMARK    4  A    between atoms: C_10  and  C_11
REMARK    5  A    between atoms: C_10  and  O_19
REMARK    6  A    between atoms: C_11  and  C_12
REMARK    7  A    between atoms: C_11  and  O_18
REMARK                            x       y       z     vdW  Elec       q    Type
REMARK                         _______ _______ _______ _____ _____    ______ ____
ROOT
ATOM      1  C   UNL     1      85.017  56.462  43.496  0.00  0.00    +0.143 C 
ENDROOT
BRANCH   1   4
ATOM      2  C   UNL     1      82.758  54.244  41.367  0.00  0.00    +0.130 A 
ATOM      3  C   UNL     1      83.311  54.874  42.492  0.00  0.00    +0.021 A 
ATOM      4  C   UNL     1      84.397  55.748  42.319  0.00  0.00    +0.144 A 
ATOM      5  O   UNL     1      84.881  55.972  41.100  0.00  0.00    -0.424 OA
ATOM      6  C   UNL     1      84.384  55.394  40.011  0.00  0.00    +0.340 A 
ATOM      7  O   UNL     1      84.888  55.645  38.886  0.00  0.00    -0.245 OA
ATOM      8  C   UNL     1      83.306  54.511  40.111  0.00  0.00    +0.065 A 
BRANCH   2  10
ATOM      9  C   UNL     1      81.777  52.000  41.862  0.00  0.00    +0.079 C 
ATOM     10  O   UNL     1      81.673  53.359  41.453  0.00  0.00    -0.495 OA
ENDBRANCH   2  10
ENDBRANCH   1   4
BRANCH   1  11
ATOM     11  O   UNL     1      85.304  57.795  43.154  0.00  0.00    -0.381 OA
ATOM     12  H   UNL     1      84.476  58.266  42.968  0.00  0.00    +0.000 HD
ENDBRANCH   1  11
BRANCH   1  13
ATOM     13  C   UNL     1      86.314  55.750  43.946  0.00  0.00    +0.113 C 
BRANCH  13  14
ATOM     14  C   UNL     1      86.149  55.093  45.304  0.00  0.00    -0.016 A 
ATOM     15  C   UNL     1      85.920  55.866  46.460  0.00  0.00    -0.056 A 
ATOM     16  C   UNL     1      85.780  55.249  47.706  0.00  0.00    -0.061 A 
ATOM     17  C   UNL     1      85.870  53.859  47.816  0.00  0.00    -0.062 A 
ATOM     18  C   UNL     1      86.101  53.083  46.678  0.00  0.00    -0.061 A 
ATOM     19  C   UNL     1      86.242  53.694  45.428  0.00  0.00    -0.056 A 
ENDBRANCH  13  14
BRANCH  13  20
ATOM     20  O   UNL     1      86.749  54.808  42.996  0.00  0.00    -0.384 OA
ATOM     21  H   UNL     1      86.121  54.779  42.257  0.00  0.00    +0.000 HD
ENDBRANCH  13  20
ENDBRANCH   1  13
TORSDOF 6
ENDMDL
MODEL 2
REMARK VINA RESULT:    -7.276      1.828      5.210
REMARK INTER + INTRA:          -9.920
REMARK INTER:                  -9.076
REMARK INTRA:                  -0.844
REMARK UNBOUND:                -0.517
REMARK  Name = 
REMARK  7 active torsions:
REMARK  status: ('A' for Active; 'I' for Inactive)
REMARK    1  A    between atoms: C_1  and  O_2
REMARK    2  A    between atoms: O_2  and  C_3
REMARK    3  A    between atoms: C_5  and  C_10
REMARK    4  A    between atoms: C_10  and  C_11
REMARK    5  A    between atoms: C_10  and  O_19
REMARK    6  A    between atoms: C_11  and  C_12
REMARK    7  A    between atoms: C_11  and  O_18
REMARK                            x       y       z     vdW  Elec       q    Type
REMARK                         _______ _______ _______ _____ _____    ______ ____
ROOT
ATOM      1  C   UNL     1      85.994  54.254  42.929  0.00  0.00    +0.143 C 
ENDROOT
BRANCH   1   4
ATOM      2  C   UNL     1      84.683  56.383  45.810  0.00  0.00    +0.130 A 
ATOM      3  C   UNL     1      84.955  55.260  45.013  0.00  0.00    +0.021 A 
ATOM      4  C   UNL     1      85.663  55.431  43.812  0.00  0.00    +0.144 A 
ATOM      5  O   UNL     1      86.071  56.645  43.449  0.00  0.00    -0.424 OA
ATOM      6  C   UNL     1      85.832  57.732  44.177  0.00  0.00    +0.340 A 
ATOM      7  O   UNL     1      86.242  58.853  43.778  0.00  0.00    -0.245 OA
ATOM      8  C   UNL     1      85.130  57.635  45.381  0.00  0.00    +0.065 A 
BRANCH   2  10
ATOM      9  C   UNL     1      84.052  55.190  47.913  0.00  0.00    +0.079 C 
ATOM     10  O   UNL     1      83.984  56.299  47.023  0.00  0.00    -0.495 OA
ENDBRANCH   2  10
ENDBRANCH   1   4
BRANCH   1  11
ATOM     11  O   UNL     1      87.363  54.261  42.609  0.00  0.00    -0.381 OA
ATOM     12  H   UNL     1      87.620  55.148  42.309  0.00  0.00    +0.000 HD
ENDBRANCH   1  11
BRANCH   1  13
ATOM     13  C   UNL     1      85.156  54.292  41.629  0.00  0.00    +0.113 C 
BRANCH  13  14
ATOM     14  C   UNL     1      83.910  53.433  41.741  0.00  0.00    -0.016 A 
ATOM     15  C   UNL     1      82.659  53.912  41.306  0.00  0.00    -0.056 A 
ATOM     16  C   UNL     1      81.517  53.114  41.424  0.00  0.00    -0.061 A 
ATOM     17  C   UNL     1      81.608  51.834  41.978  0.00  0.00    -0.062 A 
ATOM     18  C   UNL     1      82.843  51.351  42.416  0.00  0.00    -0.061 A 
ATOM     19  C   UNL     1      83.989  52.144  42.302  0.00  0.00    -0.056 A 
ENDBRANCH  13  14
BRANCH  13  20
ATOM     20  O   UNL     1      84.813  55.608  41.268  0.00  0.00    -0.384 OA
ATOM     21  H   UNL     1      84.186  55.968  41.916  0.00  0.00    +0.000 HD
ENDBRANCH  13  20
ENDBRANCH   1  13
TORSDOF 6
ENDMDL
MODEL 3
REMARK VINA RESULT:    -7.137      7.304      9.600
REMARK INTER + INTRA:          -9.740
REMARK INTER:                  -9.462
REMARK INTRA:                  -0.278
REMARK UNBOUND:                -0.517
REMARK  Name = 
REMARK  7 active torsions:
REMARK  status: ('A' for Active; 'I' for Inactive)
REMARK    1  A    between atoms: C_1  and  O_2
REMARK    2  A    between atoms: O_2  and  C_3
REMARK    3  A    between atoms: C_5  and  C_10
REMARK    4  A    between atoms: C_10  and  C_11
REMARK    5  A    between atoms: C_10  and  O_19
REMARK    6  A    between atoms: C_11  and  C_12
REMARK    7  A    between atoms: C_11  and  O_18
REMARK                            x       y       z     vdW  Elec       q    Type
REMARK                         _______ _______ _______ _____ _____    ______ ____
ROOT
ATOM      1  C   UNL     1      84.362  45.503  43.901  0.00  0.00    +0.143 C 
ENDROOT
BRANCH   1   4
ATOM      2  C   UNL     1      81.930  48.350  43.173  0.00  0.00    +0.130 A 
ATOM      3  C   UNL     1      83.091  47.563  43.141  0.00  0.00    +0.021 A 
ATOM      4  C   UNL     1      83.142  46.391  43.914  0.00  0.00    +0.144 A 
ATOM      5  O   UNL     1      82.095  46.039  44.656  0.00  0.00    -0.424 OA
ATOM      6  C   UNL     1      80.979  46.759  44.712  0.00  0.00    +0.340 A 
ATOM      7  O   UNL     1      80.024  46.374  45.436  0.00  0.00    -0.245 OA
ATOM      8  C   UNL     1      80.861  47.938  43.972  0.00  0.00    +0.065 A 
BRANCH   2  10
ATOM      9  C   UNL     1      80.742  50.474  42.602  0.00  0.00    +0.079 C 
ATOM     10  O   UNL     1      81.797  49.533  42.431  0.00  0.00    -0.495 OA
ENDBRANCH   2  10
ENDBRANCH   1   4
BRANCH   1  11
ATOM     11  O   UNL     1      85.338  46.012  44.774  0.00  0.00    -0.381 OA
ATOM     12  H   UNL     1      85.894  45.285  45.098  0.00  0.00    +0.000 HD
ENDBRANCH   1  11
BRANCH   1  13
ATOM     13  C   UNL     1      84.947  45.397  42.472  0.00  0.00    +0.113 C 
BRANCH  13  14
ATOM     14  C   UNL     1      86.460  45.502  42.477  0.00  0.00    -0.016 A 
ATOM     15  C   UNL     1      87.104  46.711  42.147  0.00  0.00    -0.056 A 
ATOM     16  C   UNL     1      88.500  46.791  42.147  0.00  0.00    -0.061 A 
ATOM     17  C   UNL     1      89.268  45.670  42.470  0.00  0.00    -0.062 A 
ATOM     18  C   UNL     1      88.641  44.465  42.795  0.00  0.00    -0.061 A 
ATOM     19  C   UNL     1      87.245  44.378  42.797  0.00  0.00    -0.056 A 
ENDBRANCH  13  14
BRANCH  13  20
ATOM     20  O   UNL     1      84.539  44.214  41.828  0.00  0.00    -0.384 OA
ATOM     21  H   UNL     1      84.524  43.486  42.469  0.00  0.00    +0.000 HD
ENDBRANCH  13  20
ENDBRANCH   1  13
TORSDOF 6
ENDMDL
MODEL 4
REMARK VINA RESULT:    -6.977      2.517      3.974
REMARK INTER + INTRA:          -9.534
REMARK INTER:                  -8.673
REMARK INTRA:                  -0.861
REMARK UNBOUND:                -0.517
REMARK  Name = 
REMARK  7 active torsions:
REMARK  status: ('A' for Active; 'I' for Inactive)
REMARK    1  A    between atoms: C_1  and  O_2
REMARK    2  A    between atoms: O_2  and  C_3
REMARK    3  A    between atoms: C_5  and  C_10
REMARK    4  A    between atoms: C_10  and  C_11
REMARK    5  A    between atoms: C_10  and  O_19
REMARK    6  A    between atoms: C_11  and  C_12
REMARK    7  A    between atoms: C_11  and  O_18
REMARK                            x       y       z     vdW  Elec       q    Type
REMARK                         _______ _______ _______ _____ _____    ______ ____
ROOT
ATOM      1  C   UNL     1      85.523  54.881  43.016  0.00  0.00    +0.143 C 
ENDROOT
BRANCH   1   4
ATOM      2  C   UNL     1      87.406  51.588  43.417  0.00  0.00    +0.130 A 
ATOM      3  C   UNL     1      86.442  52.591  43.603  0.00  0.00    +0.021 A 
ATOM      4  C   UNL     1      86.543  53.781  42.863  0.00  0.00    +0.144 A 
ATOM      5  O   UNL     1      87.540  53.940  41.996  0.00  0.00    -0.424 OA
ATOM      6  C   UNL     1      88.472  53.013  41.793  0.00  0.00    +0.340 A 
ATOM      7  O   UNL     1      89.391  53.225  40.960  0.00  0.00    -0.245 OA
ATOM      8  C   UNL     1      88.434  51.807  42.498  0.00  0.00    +0.065 A 
BRANCH   2  10
ATOM      9  C   UNL     1      87.781  50.215  45.471  0.00  0.00    +0.079 C 
ATOM     10  O   UNL     1      87.377  50.372  44.115  0.00  0.00    -0.495 OA
ENDBRANCH   2  10
ENDBRANCH   1   4
BRANCH   1  11
ATOM     11  O   UNL     1      85.242  55.455  41.763  0.00  0.00    -0.381 OA
ATOM     12  H   UNL     1      85.995  55.998  41.480  0.00  0.00    +0.000 HD
ENDBRANCH   1  11
BRANCH   1  13
ATOM     13  C   UNL     1      86.037  55.973  43.984  0.00  0.00    +0.113 C 
BRANCH  13  14
ATOM     14  C   UNL     1      85.544  55.743  45.400  0.00  0.00    -0.016 A 
ATOM     15  C   UNL     1      84.227  56.078  45.773  0.00  0.00    -0.056 A 
ATOM     16  C   UNL     1      83.788  55.870  47.083  0.00  0.00    -0.061 A 
ATOM     17  C   UNL     1      84.655  55.329  48.036  0.00  0.00    -0.062 A 
ATOM     18  C   UNL     1      85.964  54.996  47.680  0.00  0.00    -0.061 A 
ATOM     19  C   UNL     1      86.409  55.203  46.370  0.00  0.00    -0.056 A 
ENDBRANCH  13  14
BRANCH  13  20
ATOM     20  O   UNL     1      87.441  56.070  43.963  0.00  0.00    -0.384 OA
ATOM     21  H   UNL     1      87.732  56.686  44.654  0.00  0.00    +0.000 HD
ENDBRANCH  13  20
ENDBRANCH   1  13
TORSDOF 6
ENDMDL
MODEL 5
REMARK VINA RESULT:    -6.950      5.052      5.855
REMARK INTER + INTRA:          -9.499
REMARK INTER:                  -8.675
REMARK INTRA:                  -0.823
REMARK UNBOUND:                -0.517
REMARK  Name = 
REMARK  7 active torsions:
REMARK  status: ('A' for Active; 'I' for Inactive)
REMARK    1  A    between atoms: C_1  and  O_2
REMARK    2  A    between atoms: O_2  and  C_3
REMARK    3  A    between atoms: C_5  and  C_10
REMARK    4  A    between atoms: C_10  and  C_11
REMARK    5  A    between atoms: C_10  and  O_19
REMARK    6  A    between atoms: C_11  and  C_12
REMARK    7  A    between atoms: C_11  and  O_18
REMARK                            x       y       z     vdW  Elec       q    Type
REMARK                         _______ _______ _______ _____ _____    ______ ____
ROOT
ATOM      1  C   UNL     1      88.760  52.493  41.657  0.00  0.00    +0.143 C 
ENDROOT
BRANCH   1   4
ATOM      2  C   UNL     1      85.065  52.013  42.478  0.00  0.00    +0.130 A 
ATOM      3  C   UNL     1      86.463  51.922  42.571  0.00  0.00    +0.021 A 
ATOM      4  C   UNL     1      87.254  52.547  41.592  0.00  0.00    +0.144 A 
ATOM      5  O   UNL     1      86.674  53.217  40.599  0.00  0.00    -0.424 OA
ATOM      6  C   UNL     1      85.354  53.324  40.478  0.00  0.00    +0.340 A 
ATOM      7  O   UNL     1      84.867  53.971  39.514  0.00  0.00    -0.245 OA
ATOM      8  C   UNL     1      84.508  52.725  41.414  0.00  0.00    +0.065 A 
BRANCH   2  10
ATOM      9  C   UNL     1      84.152  50.021  43.680  0.00  0.00    +0.079 C 
ATOM     10  O   UNL     1      84.205  51.419  43.413  0.00  0.00    -0.495 OA
ENDBRANCH   2  10
ENDBRANCH   1   4
BRANCH   1  11
ATOM     11  O   UNL     1      89.301  53.759  41.374  0.00  0.00    -0.381 OA
ATOM     12  H   UNL     1      90.262  53.736  41.502  0.00  0.00    +0.000 HD
ENDBRANCH   1  11
BRANCH   1  13
ATOM     13  C   UNL     1      89.313  51.454  40.651  0.00  0.00    +0.113 C 
BRANCH  13  14
ATOM     14  C   UNL     1      89.498  50.094  41.297  0.00  0.00    -0.016 A 
ATOM     15  C   UNL     1      90.686  49.772  41.982  0.00  0.00    -0.056 A 
ATOM     16  C   UNL     1      90.847  48.511  42.563  0.00  0.00    -0.061 A 
ATOM     17  C   UNL     1      89.830  47.557  42.466  0.00  0.00    -0.062 A 
ATOM     18  C   UNL     1      88.649  47.864  41.786  0.00  0.00    -0.061 A 
ATOM     19  C   UNL     1      88.482  49.123  41.202  0.00  0.00    -0.056 A 
ENDBRANCH  13  14
BRANCH  13  20
ATOM     20  O   UNL     1      88.499  51.349  39.509  0.00  0.00    -0.384 OA
ATOM     21  H   UNL     1      88.199  52.232  39.242  0.00  0.00    +0.000 HD
ENDBRANCH  13  20
ENDBRANCH   1  13
TORSDOF 6
ENDMDL
MODEL 6
REMARK VINA RESULT:    -6.884      3.208      4.462
REMARK INTER + INTRA:          -9.413
REMARK INTER:                  -8.573
REMARK INTRA:                  -0.840
REMARK UNBOUND:                -0.517
REMARK  Name = 
REMARK  7 active torsions:
REMARK  status: ('A' for Active; 'I' for Inactive)
REMARK    1  A    between atoms: C_1  and  O_2
REMARK    2  A    between atoms: O_2  and  C_3
REMARK    3  A    between atoms: C_5  and  C_10
REMARK    4  A    between atoms: C_10  and  C_11
REMARK    5  A    between atoms: C_10  and  O_19
REMARK    6  A    between atoms: C_11  and  C_12
REMARK    7  A    between atoms: C_11  and  O_18
REMARK                            x       y       z     vdW  Elec       q    Type
REMARK                         _______ _______ _______ _____ _____    ______ ____
ROOT
ATOM      1  C   UNL     1      85.826  53.936  42.622  0.00  0.00    +0.143 C 
ENDROOT
BRANCH   1   4
ATOM      2  C   UNL     1      88.409  51.129  42.648  0.00  0.00    +0.130 A 
ATOM      3  C   UNL     1      87.237  51.850  42.925  0.00  0.00    +0.021 A 
ATOM      4  C   UNL     1      87.074  53.128  42.366  0.00  0.00    +0.144 A 
ATOM      5  O   UNL     1      88.022  53.634  41.581  0.00  0.00    -0.424 OA
ATOM      6  C   UNL     1      89.144  52.982  41.296  0.00  0.00    +0.340 A 
ATOM      7  O   UNL     1      90.003  53.517  40.547  0.00  0.00    -0.245 OA
ATOM      8  C   UNL     1      89.373  51.708  41.821  0.00  0.00    +0.065 A 
BRANCH   2  10
ATOM      9  C   UNL     1      89.906  49.181  43.105  0.00  0.00    +0.079 C 
ATOM     10  O   UNL     1      88.649  49.847  43.165  0.00  0.00    -0.495 OA
ENDBRANCH   2  10
ENDBRANCH   1   4
BRANCH   1  11
ATOM     11  O   UNL     1      85.309  54.421  41.408  0.00  0.00    -0.381 OA
ATOM     12  H   UNL     1      85.935  54.231  40.691  0.00  0.00    +0.000 HD
ENDBRANCH   1  11
BRANCH   1  13
ATOM     13  C   UNL     1      86.125  55.121  43.570  0.00  0.00    +0.113 C 
BRANCH  13  14
ATOM     14  C   UNL     1      85.768  54.793  45.007  0.00  0.00    -0.016 A 
ATOM     15  C   UNL     1      86.319  55.525  46.077  0.00  0.00    -0.056 A 
ATOM     16  C   UNL     1      85.989  55.206  47.397  0.00  0.00    -0.061 A 
ATOM     17  C   UNL     1      85.110  54.154  47.666  0.00  0.00    -0.062 A 
ATOM     18  C   UNL     1      84.560  53.418  46.614  0.00  0.00    -0.061 A 
ATOM     19  C   UNL     1      84.887  53.732  45.291  0.00  0.00    -0.056 A 
ENDBRANCH  13  14
BRANCH  13  20
ATOM     20  O   UNL     1      87.468  55.534  43.481  0.00  0.00    -0.384 OA
ATOM     21  H   UNL     1      88.048  54.758  43.530  0.00  0.00    +0.000 HD
ENDBRANCH  13  20
ENDBRANCH   1  13
TORSDOF 6
ENDMDL
MODEL 7
REMARK VINA RESULT:    -6.879      6.786      8.588
REMARK INTER + INTRA:          -9.407
REMARK INTER:                  -8.749
REMARK INTRA:                  -0.658
REMARK UNBOUND:                -0.517
REMARK  Name = 
REMARK  7 active torsions:
REMARK  status: ('A' for Active; 'I' for Inactive)
REMARK    1  A    between atoms: C_1  and  O_2
REMARK    2  A    between atoms: O_2  and  C_3
REMARK    3  A    between atoms: C_5  and  C_10
REMARK    4  A    between atoms: C_10  and  C_11
REMARK    5  A    between atoms: C_10  and  O_19
REMARK    6  A    between atoms: C_11  and  C_12
REMARK    7  A    between atoms: C_11  and  O_18
REMARK                            x       y       z     vdW  Elec       q    Type
REMARK                         _______ _______ _______ _____ _____    ______ ____
ROOT
ATOM      1  C   UNL     1      89.569  48.677  42.320  0.00  0.00    +0.143 C 
ENDROOT
BRANCH   1   4
ATOM      2  C   UNL     1      89.007  52.401  41.711  0.00  0.00    +0.130 A 
ATOM      3  C   UNL     1      89.584  51.124  41.648  0.00  0.00    +0.021 A 
ATOM      4  C   UNL     1      88.995  50.072  42.369  0.00  0.00    +0.144 A 
ATOM      5  O   UNL     1      87.901  50.295  43.092  0.00  0.00    -0.424 OA
ATOM      6  C   UNL     1      87.326  51.491  43.177  0.00  0.00    +0.340 A 
ATOM      7  O   UNL     1      86.292  51.637  43.881  0.00  0.00    -0.245 OA
ATOM      8  C   UNL     1      87.861  52.582  42.488  0.00  0.00    +0.065 A 
BRANCH   2  10
ATOM      9  C   UNL     1      90.451  53.409  39.939  0.00  0.00    +0.079 C 
ATOM     10  O   UNL     1      89.532  53.503  41.021  0.00  0.00    -0.495 OA
ENDBRANCH   2  10
ENDBRANCH   1   4
BRANCH   1  11
ATOM     11  O   UNL     1      90.902  48.720  41.876  0.00  0.00    -0.381 OA
ATOM     12  H   UNL     1      90.958  48.337  40.986  0.00  0.00    +0.000 HD
ENDBRANCH   1  11
BRANCH   1  13
ATOM     13  C   UNL     1      88.735  47.775  41.379  0.00  0.00    +0.113 C 
BRANCH  13  14
ATOM     14  C   UNL     1      88.311  46.491  42.065  0.00  0.00    -0.016 A 
ATOM     15  C   UNL     1      89.256  45.500  42.397  0.00  0.00    -0.056 A 
ATOM     16  C   UNL     1      88.850  44.316  43.020  0.00  0.00    -0.061 A 
ATOM     17  C   UNL     1      87.501  44.106  43.317  0.00  0.00    -0.062 A 
ATOM     18  C   UNL     1      86.554  45.079  42.989  0.00  0.00    -0.061 A 
ATOM     19  C   UNL     1      86.954  46.265  42.365  0.00  0.00    -0.056 A 
ENDBRANCH  13  14
BRANCH  13  20
ATOM     20  O   UNL     1      87.613  48.452  40.867  0.00  0.00    -0.384 OA
ATOM     21  H   UNL     1      87.603  48.377  39.900  0.00  0.00    +0.000 HD
ENDBRANCH  13  20
ENDBRANCH   1  13
TORSDOF 6
ENDMDL
MODEL 8
REMARK VINA RESULT:    -6.802      6.528      8.355
REMARK INTER + INTRA:          -9.308
REMARK INTER:                  -8.468
REMARK INTRA:                  -0.840
REMARK UNBOUND:                -0.517
REMARK  Name = 
REMARK  7 active torsions:
REMARK  status: ('A' for Active; 'I' for Inactive)
REMARK    1  A    between atoms: C_1  and  O_2
REMARK    2  A    between atoms: O_2  and  C_3
REMARK    3  A    between atoms: C_5  and  C_10
REMARK    4  A    between atoms: C_10  and  C_11
REMARK    5  A    between atoms: C_10  and  O_19
REMARK    6  A    between atoms: C_11  and  C_12
REMARK    7  A    between atoms: C_11  and  O_18
REMARK                            x       y       z     vdW  Elec       q    Type
REMARK                         _______ _______ _______ _____ _____    ______ ____
ROOT
ATOM      1  C   UNL     1      89.638  48.579  42.582  0.00  0.00    +0.143 C 
ENDROOT
BRANCH   1   4
ATOM      2  C   UNL     1      87.444  50.991  44.563  0.00  0.00    +0.130 A 
ATOM      3  C   UNL     1      88.143  49.826  44.208  0.00  0.00    +0.021 A 
ATOM      4  C   UNL     1      88.859  49.801  43.000  0.00  0.00    +0.144 A 
ATOM      5  O   UNL     1      88.872  50.876  42.214  0.00  0.00    -0.424 OA
ATOM      6  C   UNL     1      88.222  51.996  42.516  0.00  0.00    +0.340 A 
ATOM      7  O   UNL     1      88.273  52.977  41.729  0.00  0.00    -0.245 OA
ATOM      8  C   UNL     1      87.488  52.088  43.701  0.00  0.00    +0.065 A 
BRANCH   2  10
ATOM      9  C   UNL     1      86.709  50.123  46.788  0.00  0.00    +0.079 C 
ATOM     10  O   UNL     1      86.707  51.098  45.751  0.00  0.00    -0.495 OA
ENDBRANCH   2  10
ENDBRANCH   1   4
BRANCH   1  11
ATOM     11  O   UNL     1      90.881  48.960  42.047  0.00  0.00    -0.381 OA
ATOM     12  H   UNL     1      91.244  48.230  41.520  0.00  0.00    +0.000 HD
ENDBRANCH   1  11
BRANCH   1  13
ATOM     13  C   UNL     1      88.850  47.760  41.533  0.00  0.00    +0.113 C 
BRANCH  13  14
ATOM     14  C   UNL     1      88.276  46.489  42.131  0.00  0.00    -0.016 A 
ATOM     15  C   UNL     1      86.905  46.389  42.439  0.00  0.00    -0.056 A 
ATOM     16  C   UNL     1      86.390  45.216  42.999  0.00  0.00    -0.061 A 
ATOM     17  C   UNL     1      87.234  44.134  43.261  0.00  0.00    -0.062 A 
ATOM     18  C   UNL     1      88.595  44.223  42.964  0.00  0.00    -0.061 A 
ATOM     19  C   UNL     1      89.116  45.394  42.404  0.00  0.00    -0.056 A 
ENDBRANCH  13  14
BRANCH  13  20
ATOM     20  O   UNL     1      87.831  48.523  40.932  0.00  0.00    -0.384 OA
ATOM     21  H   UNL     1      86.977  48.083  41.065  0.00  0.00    +0.000 HD
ENDBRANCH  13  20
ENDBRANCH   1  13
TORSDOF 6
ENDMDL
MODEL 9
REMARK VINA RESULT:    -6.714      7.738     10.075
REMARK INTER + INTRA:          -9.193
REMARK INTER:                  -8.676
REMARK INTRA:                  -0.517
REMARK UNBOUND:                -0.517
REMARK  Name = 
REMARK  7 active torsions:
REMARK  status: ('A' for Active; 'I' for Inactive)
REMARK    1  A    between atoms: C_1  and  O_2
REMARK    2  A    between atoms: O_2  and  C_3
REMARK    3  A    between atoms: C_5  and  C_10
REMARK    4  A    between atoms: C_10  and  C_11
REMARK    5  A    between atoms: C_10  and  O_19
REMARK    6  A    between atoms: C_11  and  C_12
REMARK    7  A    between atoms: C_11  and  O_18
REMARK                            x       y       z     vdW  Elec       q    Type
REMARK                         _______ _______ _______ _____ _____    ______ ____
ROOT
ATOM      1  C   UNL     1      84.878  46.334  44.018  0.00  0.00    +0.143 C 
ENDROOT
BRANCH   1   4
ATOM      2  C   UNL     1      88.109  46.631  42.012  0.00  0.00    +0.130 A 
ATOM      3  C   UNL     1      86.902  46.985  42.634  0.00  0.00    +0.021 A 
ATOM      4  C   UNL     1      86.172  46.000  43.319  0.00  0.00    +0.144 A 
ATOM      5  O   UNL     1      86.633  44.753  43.376  0.00  0.00    -0.424 OA
ATOM      6  C   UNL     1      87.771  44.379  42.799  0.00  0.00    +0.340 A 
ATOM      7  O   UNL     1      88.152  43.183  42.887  0.00  0.00    -0.245 OA
ATOM      8  C   UNL     1      88.545  45.307  42.099  0.00  0.00    +0.065 A 
BRANCH   2  10
ATOM      9  C   UNL     1      90.226  47.915  41.672  0.00  0.00    +0.079 C 
ATOM     10  O   UNL     1      88.897  47.554  41.309  0.00  0.00    -0.495 OA
ENDBRANCH   2  10
ENDBRANCH   1   4
BRANCH   1  11
ATOM     11  O   UNL     1      84.820  45.684  45.263  0.00  0.00    -0.381 OA
ATOM     12  H   UNL     1      84.826  46.345  45.973  0.00  0.00    +0.000 HD
ENDBRANCH   1  11
BRANCH   1  13
ATOM     13  C   UNL     1      83.665  45.913  43.154  0.00  0.00    +0.113 C 
BRANCH  13  14
ATOM     14  C   UNL     1      82.511  46.886  43.297  0.00  0.00    -0.016 A 
ATOM     15  C   UNL     1      82.708  48.273  43.140  0.00  0.00    -0.056 A 
ATOM     16  C   UNL     1      81.638  49.160  43.284  0.00  0.00    -0.061 A 
ATOM     17  C   UNL     1      80.362  48.678  43.588  0.00  0.00    -0.062 A 
ATOM     18  C   UNL     1      80.155  47.306  43.749  0.00  0.00    -0.061 A 
ATOM     19  C   UNL     1      81.222  46.414  43.607  0.00  0.00    -0.056 A 
ENDBRANCH  13  14
BRANCH  13  20
ATOM     20  O   UNL     1      84.016  45.764  41.800  0.00  0.00    -0.384 OA
ATOM     21  H   UNL     1      83.215  45.620  41.272  0.00  0.00    +0.000 HD
ENDBRANCH  13  20
ENDBRANCH   1  13
TORSDOF 6
ENDMDL
