MODEL 1
REMARK VINA RESULT:    -7.691      0.000      0.000
REMARK INTER + INTRA:         -11.376
REMARK INTER:                 -10.405
REMARK INTRA:                  -0.972
REMARK UNBOUND:                -1.212
REMARK  Name = 
REMARK  9 active torsions:
REMARK  status: ('A' for Active; 'I' for Inactive)
REMARK    1  A    between atoms: C_7  and  C_8
REMARK    2  A    between atoms: C_8  and  C_9
REMARK    3  A    between atoms: C_10  and  C_11
REMARK    4  A    between atoms: C_10  and  C_17
REMARK    5  A    between atoms: C_11  and  C_12
REMARK    6  A    between atoms: C_12  and  C_13
REMARK    7  A    between atoms: C_14  and  C_15
REMARK    8  A    between atoms: C_14  and  C_16
REMARK    9  A    between atoms: C_19  and  O_21
REMARK                            x       y       z     vdW  Elec       q    Type
REMARK                         _______ _______ _______ _____ _____    ______ ____
ROOT
ATOM      1  O   UNL     1      79.874  46.127  45.693  0.00  0.00    -0.250 OA
ATOM      2  C   UNL     1      80.207  47.187  45.101  0.00  0.00    +0.317 C 
ATOM      3  C   UNL     1      79.240  48.125  44.443  0.00  0.00    +0.074 C 
ATOM      4  C   UNL     1      80.205  49.147  43.940  0.00  0.00    +0.009 A 
ATOM      5  C   UNL     1      81.494  48.799  44.282  0.00  0.00    +0.139 A 
ATOM      6  O   UNL     1      81.525  47.611  44.991  0.00  0.00    -0.425 OA
ATOM      7  C   UNL     1      82.591  49.592  43.923  0.00  0.00    +0.002 A 
ATOM      8  C   UNL     1      82.333  50.780  43.208  0.00  0.00    -0.013 A 
ATOM      9  C   UNL     1      81.012  51.137  42.856  0.00  0.00    +0.118 A 
ATOM     10  C   UNL     1      79.936  50.312  43.225  0.00  0.00    -0.013 A 
ENDROOT
BRANCH   9  11
ATOM     11  O   UNL     1      80.763  52.307  42.142  0.00  0.00    -0.507 OA
ATOM     12  H   UNL     1      81.477  52.816  41.812  0.00  0.00    +0.000 HD
ENDBRANCH   9  11
BRANCH   7  13
ATOM     13  C   UNL     1      83.993  49.202  44.308  0.00  0.00    -0.006 C 
BRANCH  13  14
ATOM     14  C   UNL     1      84.918  50.394  44.318  0.00  0.00    -0.081 C 
ATOM     15  C   UNL     1      86.082  50.455  45.003  0.00  0.00    -0.076 C 
ATOM     16  C   UNL     1      86.571  49.302  45.846  0.00  0.00    -0.044 C 
BRANCH  15  17
ATOM     17  C   UNL     1      86.912  51.718  44.926  0.00  0.00    -0.029 C 
BRANCH  17  18
ATOM     18  C   UNL     1      87.344  52.174  46.325  0.00  0.00    -0.031 C 
BRANCH  18  19
ATOM     19  C   UNL     1      86.293  53.057  46.948  0.00  0.00    -0.085 C 
ATOM     20  C   UNL     1      85.762  52.861  48.176  0.00  0.00    -0.080 C 
ATOM     21  C   UNL     1      84.744  53.849  48.685  0.00  0.00    -0.044 C 
ATOM     22  C   UNL     1      86.145  51.678  49.034  0.00  0.00    -0.044 C 
ENDBRANCH  18  19
ENDBRANCH  17  18
ENDBRANCH  15  17
ENDBRANCH  13  14
ENDBRANCH   7  13
TORSDOF 6
ENDMDL
MODEL 2
REMARK VINA RESULT:    -7.640      3.078      5.278
REMARK INTER + INTRA:         -11.308
REMARK INTER:                  -9.908
REMARK INTRA:                  -1.400
REMARK UNBOUND:                -1.212
REMARK  Name = 
REMARK  9 active torsions:
REMARK  status: ('A' for Active; 'I' for Inactive)
REMARK    1  A    between atoms: C_7  and  C_8
REMARK    2  A    between atoms: C_8  and  C_9
REMARK    3  A    between atoms: C_10  and  C_11
REMARK    4  A    between atoms: C_10  and  C_17
REMARK    5  A    between atoms: C_11  and  C_12
REMARK    6  A    between atoms: C_12  and  C_13
REMARK    7  A    between atoms: C_14  and  C_15
REMARK    8  A    between atoms: C_14  and  C_16
REMARK    9  A    between atoms: C_19  and  O_21
REMARK                            x       y       z     vdW  Elec       q    Type
REMARK                         _______ _______ _______ _____ _____    ______ ____
ROOT
ATOM      1  O   UNL     1      84.953  55.752  41.316  0.00  0.00    -0.250 OA
ATOM      2  C   UNL     1      84.244  54.778  41.679  0.00  0.00    +0.317 C 
ATOM      3  C   UNL     1      82.934  54.407  41.052  0.00  0.00    +0.074 C 
ATOM      4  C   UNL     1      82.599  53.216  41.887  0.00  0.00    +0.009 A 
ATOM      5  C   UNL     1      83.587  52.991  42.821  0.00  0.00    +0.139 A 
ATOM      6  O   UNL     1      84.602  53.926  42.717  0.00  0.00    -0.425 OA
ATOM      7  C   UNL     1      83.511  51.933  43.735  0.00  0.00    +0.002 A 
ATOM      8  C   UNL     1      82.388  51.082  43.659  0.00  0.00    -0.013 A 
ATOM      9  C   UNL     1      81.373  51.313  42.702  0.00  0.00    +0.118 A 
ATOM     10  C   UNL     1      81.479  52.391  41.807  0.00  0.00    -0.013 A 
ENDROOT
BRANCH   9  11
ATOM     11  O   UNL     1      80.262  50.476  42.637  0.00  0.00    -0.507 OA
ATOM     12  H   UNL     1      79.777  50.402  41.837  0.00  0.00    +0.000 HD
ENDBRANCH   9  11
BRANCH   7  13
ATOM     13  C   UNL     1      84.601  51.696  44.745  0.00  0.00    -0.006 C 
BRANCH  13  14
ATOM     14  C   UNL     1      84.541  52.700  45.871  0.00  0.00    -0.081 C 
ATOM     15  C   UNL     1      85.617  53.150  46.555  0.00  0.00    -0.076 C 
ATOM     16  C   UNL     1      87.015  52.672  46.244  0.00  0.00    -0.044 C 
BRANCH  15  17
ATOM     17  C   UNL     1      85.412  54.156  47.665  0.00  0.00    -0.029 C 
BRANCH  17  18
ATOM     18  C   UNL     1      86.146  55.467  47.359  0.00  0.00    -0.031 C 
BRANCH  18  19
ATOM     19  C   UNL     1      85.318  56.345  46.455  0.00  0.00    -0.085 C 
ATOM     20  C   UNL     1      85.620  56.611  45.164  0.00  0.00    -0.080 C 
ATOM     21  C   UNL     1      84.678  57.478  44.370  0.00  0.00    -0.044 C 
ATOM     22  C   UNL     1      86.876  56.082  44.511  0.00  0.00    -0.044 C 
ENDBRANCH  18  19
ENDBRANCH  17  18
ENDBRANCH  15  17
ENDBRANCH  13  14
ENDBRANCH   7  13
TORSDOF 6
ENDMDL
MODEL 3
REMARK VINA RESULT:    -7.611      5.564      6.920
REMARK INTER + INTRA:         -11.271
REMARK INTER:                 -10.574
REMARK INTRA:                  -0.697
REMARK UNBOUND:                -1.212
REMARK  Name = 
REMARK  9 active torsions:
REMARK  status: ('A' for Active; 'I' for Inactive)
REMARK    1  A    between atoms: C_7  and  C_8
REMARK    2  A    between atoms: C_8  and  C_9
REMARK    3  A    between atoms: C_10  and  C_11
REMARK    4  A    between atoms: C_10  and  C_17
REMARK    5  A    between atoms: C_11  and  C_12
REMARK    6  A    between atoms: C_12  and  C_13
REMARK    7  A    between atoms: C_14  and  C_15
REMARK    8  A    between atoms: C_14  and  C_16
REMARK    9  A    between atoms: C_19  and  O_21
REMARK                            x       y       z     vdW  Elec       q    Type
REMARK                         _______ _______ _______ _____ _____    ______ ____
ROOT
ATOM      1  O   UNL     1      90.936  47.228  43.442  0.00  0.00    -0.250 OA
ATOM      2  C   UNL     1      90.296  48.265  43.129  0.00  0.00    +0.317 C 
ATOM      3  C   UNL     1      90.358  48.922  41.783  0.00  0.00    +0.074 C 
ATOM      4  C   UNL     1      89.419  50.056  42.028  0.00  0.00    +0.009 A 
ATOM      5  C   UNL     1      88.933  50.007  43.317  0.00  0.00    +0.139 A 
ATOM      6  O   UNL     1      89.448  48.926  44.010  0.00  0.00    -0.425 OA
ATOM      7  C   UNL     1      88.034  50.965  43.802  0.00  0.00    +0.002 A 
ATOM      8  C   UNL     1      87.622  51.984  42.918  0.00  0.00    -0.013 A 
ATOM      9  C   UNL     1      88.121  52.035  41.597  0.00  0.00    +0.118 A 
ATOM     10  C   UNL     1      89.029  51.063  41.147  0.00  0.00    -0.013 A 
ENDROOT
BRANCH   9  11
ATOM     11  O   UNL     1      87.719  53.048  40.729  0.00  0.00    -0.507 OA
ATOM     12  H   UNL     1      87.039  53.641  40.984  0.00  0.00    +0.000 HD
ENDBRANCH   9  11
BRANCH   7  13
ATOM     13  C   UNL     1      87.508  50.895  45.211  0.00  0.00    -0.006 C 
BRANCH  13  14
ATOM     14  C   UNL     1      86.814  52.175  45.608  0.00  0.00    -0.081 C 
ATOM     15  C   UNL     1      86.374  52.453  46.856  0.00  0.00    -0.076 C 
ATOM     16  C   UNL     1      86.540  51.476  47.995  0.00  0.00    -0.044 C 
BRANCH  15  17
ATOM     17  C   UNL     1      85.689  53.777  47.114  0.00  0.00    -0.029 C 
BRANCH  17  18
ATOM     18  C   UNL     1      86.524  54.940  46.565  0.00  0.00    -0.031 C 
BRANCH  18  19
ATOM     19  C   UNL     1      85.764  56.239  46.668  0.00  0.00    -0.085 C 
ATOM     20  C   UNL     1      85.687  57.158  45.679  0.00  0.00    -0.080 C 
ATOM     21  C   UNL     1      84.859  58.395  45.912  0.00  0.00    -0.044 C 
ATOM     22  C   UNL     1      86.419  56.988  44.369  0.00  0.00    -0.044 C 
ENDBRANCH  18  19
ENDBRANCH  17  18
ENDBRANCH  15  17
ENDBRANCH  13  14
ENDBRANCH   7  13
TORSDOF 6
ENDMDL
MODEL 4
REMARK VINA RESULT:    -7.610      4.172      6.151
REMARK INTER + INTRA:         -11.268
REMARK INTER:                  -9.565
REMARK INTRA:                  -1.704
REMARK UNBOUND:                -1.212
REMARK  Name = 
REMARK  9 active torsions:
REMARK  status: ('A' for Active; 'I' for Inactive)
REMARK    1  A    between atoms: C_7  and  C_8
REMARK    2  A    between atoms: C_8  and  C_9
REMARK    3  A    between atoms: C_10  and  C_11
REMARK    4  A    between atoms: C_10  and  C_17
REMARK    5  A    between atoms: C_11  and  C_12
REMARK    6  A    between atoms: C_12  and  C_13
REMARK    7  A    between atoms: C_14  and  C_15
REMARK    8  A    between atoms: C_14  and  C_16
REMARK    9  A    between atoms: C_19  and  O_21
REMARK                            x       y       z     vdW  Elec       q    Type
REMARK                         _______ _______ _______ _____ _____    ______ ____
ROOT
ATOM      1  O   UNL     1      88.186  52.877  42.135  0.00  0.00    -0.250 OA
ATOM      2  C   UNL     1      86.948  53.103  42.096  0.00  0.00    +0.317 C 
ATOM      3  C   UNL     1      85.920  52.098  41.668  0.00  0.00    +0.074 C 
ATOM      4  C   UNL     1      84.693  52.931  41.831  0.00  0.00    +0.009 A 
ATOM      5  C   UNL     1      85.023  54.192  42.277  0.00  0.00    +0.139 A 
ATOM      6  O   UNL     1      86.389  54.325  42.449  0.00  0.00    -0.425 OA
ATOM      7  C   UNL     1      84.048  55.171  42.507  0.00  0.00    +0.002 A 
ATOM      8  C   UNL     1      82.701  54.820  42.280  0.00  0.00    -0.013 A 
ATOM      9  C   UNL     1      82.362  53.527  41.821  0.00  0.00    +0.118 A 
ATOM     10  C   UNL     1      83.367  52.573  41.593  0.00  0.00    -0.013 A 
ENDROOT
BRANCH   9  11
ATOM     11  O   UNL     1      81.031  53.187  41.590  0.00  0.00    -0.507 OA
ATOM     12  H   UNL     1      80.822  52.445  41.056  0.00  0.00    +0.000 HD
ENDBRANCH   9  11
BRANCH   7  13
ATOM     13  C   UNL     1      84.424  56.543  43.000  0.00  0.00    -0.006 C 
BRANCH  13  14
ATOM     14  C   UNL     1      84.531  56.581  44.505  0.00  0.00    -0.081 C 
ATOM     15  C   UNL     1      85.696  56.582  45.191  0.00  0.00    -0.076 C 
ATOM     16  C   UNL     1      87.033  56.540  44.491  0.00  0.00    -0.044 C 
BRANCH  15  17
ATOM     17  C   UNL     1      85.656  56.619  46.703  0.00  0.00    -0.029 C 
BRANCH  17  18
ATOM     18  C   UNL     1      85.198  55.271  47.271  0.00  0.00    -0.031 C 
BRANCH  18  19
ATOM     19  C   UNL     1      86.179  54.181  46.918  0.00  0.00    -0.085 C 
ATOM     20  C   UNL     1      85.890  53.121  46.131  0.00  0.00    -0.080 C 
ATOM     21  C   UNL     1      86.983  52.127  45.834  0.00  0.00    -0.044 C 
ATOM     22  C   UNL     1      84.507  52.897  45.564  0.00  0.00    -0.044 C 
ENDBRANCH  18  19
ENDBRANCH  17  18
ENDBRANCH  15  17
ENDBRANCH  13  14
ENDBRANCH   7  13
TORSDOF 6
ENDMDL
MODEL 5
REMARK VINA RESULT:    -7.525      3.855      7.955
REMARK INTER + INTRA:         -11.156
REMARK INTER:                 -10.074
REMARK INTRA:                  -1.082
REMARK UNBOUND:                -1.212
REMARK  Name = 
REMARK  9 active torsions:
REMARK  status: ('A' for Active; 'I' for Inactive)
REMARK    1  A    between atoms: C_7  and  C_8
REMARK    2  A    between atoms: C_8  and  C_9
REMARK    3  A    between atoms: C_10  and  C_11
REMARK    4  A    between atoms: C_10  and  C_17
REMARK    5  A    between atoms: C_11  and  C_12
REMARK    6  A    between atoms: C_12  and  C_13
REMARK    7  A    between atoms: C_14  and  C_15
REMARK    8  A    between atoms: C_14  and  C_16
REMARK    9  A    between atoms: C_19  and  O_21
REMARK                            x       y       z     vdW  Elec       q    Type
REMARK                         _______ _______ _______ _____ _____    ______ ____
ROOT
ATOM      1  O   UNL     1      85.866  58.661  43.632  0.00  0.00    -0.250 OA
ATOM      2  C   UNL     1      85.529  57.725  44.403  0.00  0.00    +0.317 C 
ATOM      3  C   UNL     1      85.164  57.911  45.845  0.00  0.00    +0.074 C 
ATOM      4  C   UNL     1      84.874  56.491  46.202  0.00  0.00    +0.009 A 
ATOM      5  C   UNL     1      85.061  55.673  45.108  0.00  0.00    +0.139 A 
ATOM      6  O   UNL     1      85.458  56.398  43.998  0.00  0.00    -0.425 OA
ATOM      7  C   UNL     1      84.859  54.289  45.179  0.00  0.00    +0.002 A 
ATOM      8  C   UNL     1      84.436  53.752  46.413  0.00  0.00    -0.013 A 
ATOM      9  C   UNL     1      84.246  54.589  47.535  0.00  0.00    +0.118 A 
ATOM     10  C   UNL     1      84.467  55.973  47.430  0.00  0.00    -0.013 A 
ENDROOT
BRANCH   9  11
ATOM     11  O   UNL     1      83.838  54.053  48.754  0.00  0.00    -0.507 OA
ATOM     12  H   UNL     1      84.057  54.489  49.555  0.00  0.00    +0.000 HD
ENDBRANCH   9  11
BRANCH   7  13
ATOM     13  C   UNL     1      85.061  53.410  43.974  0.00  0.00    -0.006 C 
BRANCH  13  14
ATOM     14  C   UNL     1      83.753  52.854  43.466  0.00  0.00    -0.081 C 
ATOM     15  C   UNL     1      83.026  53.399  42.464  0.00  0.00    -0.076 C 
ATOM     16  C   UNL     1      83.471  54.651  41.748  0.00  0.00    -0.044 C 
BRANCH  15  17
ATOM     17  C   UNL     1      81.728  52.738  42.058  0.00  0.00    -0.029 C 
BRANCH  17  18
ATOM     18  C   UNL     1      81.902  51.219  41.939  0.00  0.00    -0.031 C 
BRANCH  18  19
ATOM     19  C   UNL     1      80.873  50.496  42.771  0.00  0.00    -0.085 C 
ATOM     20  C   UNL     1      81.169  49.661  43.793  0.00  0.00    -0.080 C 
ATOM     21  C   UNL     1      80.034  49.036  44.561  0.00  0.00    -0.044 C 
ATOM     22  C   UNL     1      82.594  49.325  44.166  0.00  0.00    -0.044 C 
ENDBRANCH  18  19
ENDBRANCH  17  18
ENDBRANCH  15  17
ENDBRANCH  13  14
ENDBRANCH   7  13
TORSDOF 6
ENDMDL
MODEL 6
REMARK VINA RESULT:    -7.511      4.814      7.236
REMARK INTER + INTRA:         -11.138
REMARK INTER:                  -9.656
REMARK INTRA:                  -1.482
REMARK UNBOUND:                -1.212
REMARK  Name = 
REMARK  9 active torsions:
REMARK  status: ('A' for Active; 'I' for Inactive)
REMARK    1  A    between atoms: C_7  and  C_8
REMARK    2  A    between atoms: C_8  and  C_9
REMARK    3  A    between atoms: C_10  and  C_11
REMARK    4  A    between atoms: C_10  and  C_17
REMARK    5  A    between atoms: C_11  and  C_12
REMARK    6  A    between atoms: C_12  and  C_13
REMARK    7  A    between atoms: C_14  and  C_15
REMARK    8  A    between atoms: C_14  and  C_16
REMARK    9  A    between atoms: C_19  and  O_21
REMARK                            x       y       z     vdW  Elec       q    Type
REMARK                         _______ _______ _______ _____ _____    ______ ____
ROOT
ATOM      1  O   UNL     1      89.815  52.486  39.432  0.00  0.00    -0.250 OA
ATOM      2  C   UNL     1      89.282  52.206  40.538  0.00  0.00    +0.317 C 
ATOM      3  C   UNL     1      89.463  50.903  41.256  0.00  0.00    +0.074 C 
ATOM      4  C   UNL     1      88.615  51.172  42.454  0.00  0.00    +0.009 A 
ATOM      5  C   UNL     1      88.064  52.433  42.379  0.00  0.00    +0.139 A 
ATOM      6  O   UNL     1      88.454  53.086  41.224  0.00  0.00    -0.425 OA
ATOM      7  C   UNL     1      87.221  52.929  43.381  0.00  0.00    +0.002 A 
ATOM      8  C   UNL     1      86.962  52.098  44.491  0.00  0.00    -0.013 A 
ATOM      9  C   UNL     1      87.525  50.804  44.567  0.00  0.00    +0.118 A 
ATOM     10  C   UNL     1      88.360  50.335  43.539  0.00  0.00    -0.013 A 
ENDROOT
BRANCH   9  11
ATOM     11  O   UNL     1      87.260  49.982  45.660  0.00  0.00    -0.507 OA
ATOM     12  H   UNL     1      87.934  49.430  46.007  0.00  0.00    +0.000 HD
ENDBRANCH   9  11
BRANCH   7  13
ATOM     13  C   UNL     1      86.631  54.311  43.288  0.00  0.00    -0.006 C 
BRANCH  13  14
ATOM     14  C   UNL     1      86.620  55.001  44.631  0.00  0.00    -0.081 C 
ATOM     15  C   UNL     1      85.633  55.818  45.064  0.00  0.00    -0.076 C 
ATOM     16  C   UNL     1      84.422  56.123  44.217  0.00  0.00    -0.044 C 
BRANCH  15  17
ATOM     17  C   UNL     1      85.753  56.448  46.434  0.00  0.00    -0.029 C 
BRANCH  17  18
ATOM     18  C   UNL     1      84.848  55.735  47.445  0.00  0.00    -0.031 C 
BRANCH  18  19
ATOM     19  C   UNL     1      85.558  54.555  48.059  0.00  0.00    -0.085 C 
ATOM     20  C   UNL     1      85.313  53.265  47.736  0.00  0.00    -0.080 C 
ATOM     21  C   UNL     1      86.128  52.189  48.406  0.00  0.00    -0.044 C 
ATOM     22  C   UNL     1      84.240  52.877  46.745  0.00  0.00    -0.044 C 
ENDBRANCH  18  19
ENDBRANCH  17  18
ENDBRANCH  15  17
ENDBRANCH  13  14
ENDBRANCH   7  13
TORSDOF 6
ENDMDL
MODEL 7
REMARK VINA RESULT:    -7.508      4.760      6.719
REMARK INTER + INTRA:         -11.135
REMARK INTER:                  -9.813
REMARK INTRA:                  -1.322
REMARK UNBOUND:                -1.212
REMARK  Name = 
REMARK  9 active torsions:
REMARK  status: ('A' for Active; 'I' for Inactive)
REMARK    1  A    between atoms: C_7  and  C_8
REMARK    2  A    between atoms: C_8  and  C_9
REMARK    3  A    between atoms: C_10  and  C_11
REMARK    4  A    between atoms: C_10  and  C_17
REMARK    5  A    between atoms: C_11  and  C_12
REMARK    6  A    between atoms: C_12  and  C_13
REMARK    7  A    between atoms: C_14  and  C_15
REMARK    8  A    between atoms: C_14  and  C_16
REMARK    9  A    between atoms: C_19  and  O_21
REMARK                            x       y       z     vdW  Elec       q    Type
REMARK                         _______ _______ _______ _____ _____    ______ ____
ROOT
ATOM      1  O   UNL     1      83.339  46.413  42.820  0.00  0.00    -0.250 OA
ATOM      2  C   UNL     1      84.401  45.798  43.102  0.00  0.00    +0.317 C 
ATOM      3  C   UNL     1      84.495  44.698  44.116  0.00  0.00    +0.074 C 
ATOM      4  C   UNL     1      85.950  44.389  43.997  0.00  0.00    +0.009 A 
ATOM      5  C   UNL     1      86.540  45.208  43.059  0.00  0.00    +0.139 A 
ATOM      6  O   UNL     1      85.620  46.075  42.496  0.00  0.00    -0.425 OA
ATOM      7  C   UNL     1      87.906  45.123  42.761  0.00  0.00    +0.002 A 
ATOM      8  C   UNL     1      88.666  44.152  43.445  0.00  0.00    -0.013 A 
ATOM      9  C   UNL     1      88.062  43.313  44.409  0.00  0.00    +0.118 A 
ATOM     10  C   UNL     1      86.690  43.432  44.689  0.00  0.00    -0.013 A 
ENDROOT
BRANCH   9  11
ATOM     11  O   UNL     1      88.818  42.361  45.089  0.00  0.00    -0.507 OA
ATOM     12  H   UNL     1      88.585  42.114  45.963  0.00  0.00    +0.000 HD
ENDBRANCH   9  11
BRANCH   7  13
ATOM     13  C   UNL     1      88.535  46.021  41.729  0.00  0.00    -0.006 C 
BRANCH  13  14
ATOM     14  C   UNL     1      88.657  47.440  42.228  0.00  0.00    -0.081 C 
ATOM     15  C   UNL     1      89.723  47.926  42.904  0.00  0.00    -0.076 C 
ATOM     16  C   UNL     1      90.919  47.065  43.230  0.00  0.00    -0.044 C 
BRANCH  15  17
ATOM     17  C   UNL     1      89.711  49.372  43.349  0.00  0.00    -0.029 C 
BRANCH  17  18
ATOM     18  C   UNL     1      88.276  49.901  43.449  0.00  0.00    -0.031 C 
BRANCH  18  19
ATOM     19  C   UNL     1      87.935  50.260  44.873  0.00  0.00    -0.085 C 
ATOM     20  C   UNL     1      86.975  49.651  45.605  0.00  0.00    -0.080 C 
ATOM     21  C   UNL     1      86.772  50.091  47.031  0.00  0.00    -0.044 C 
ATOM     22  C   UNL     1      86.097  48.565  45.029  0.00  0.00    -0.044 C 
ENDBRANCH  18  19
ENDBRANCH  17  18
ENDBRANCH  15  17
ENDBRANCH  13  14
ENDBRANCH   7  13
TORSDOF 6
ENDMDL
MODEL 8
REMARK VINA RESULT:    -7.462      4.978      8.195
REMARK INTER + INTRA:         -11.073
REMARK INTER:                  -9.638
REMARK INTRA:                  -1.435
REMARK UNBOUND:                -1.212
REMARK  Name = 
REMARK  9 active torsions:
REMARK  status: ('A' for Active; 'I' for Inactive)
REMARK    1  A    between atoms: C_7  and  C_8
REMARK    2  A    between atoms: C_8  and  C_9
REMARK    3  A    between atoms: C_10  and  C_11
REMARK    4  A    between atoms: C_10  and  C_17
REMARK    5  A    between atoms: C_11  and  C_12
REMARK    6  A    between atoms: C_12  and  C_13
REMARK    7  A    between atoms: C_14  and  C_15
REMARK    8  A    between atoms: C_14  and  C_16
REMARK    9  A    between atoms: C_19  and  O_21
REMARK                            x       y       z     vdW  Elec       q    Type
REMARK                         _______ _______ _______ _____ _____    ______ ____
ROOT
ATOM      1  O   UNL     1      86.076  58.720  43.527  0.00  0.00    -0.250 OA
ATOM      2  C   UNL     1      85.705  57.975  44.472  0.00  0.00    +0.317 C 
ATOM      3  C   UNL     1      84.778  58.403  45.570  0.00  0.00    +0.074 C 
ATOM      4  C   UNL     1      84.727  57.130  46.347  0.00  0.00    +0.009 A 
ATOM      5  C   UNL     1      85.514  56.170  45.749  0.00  0.00    +0.139 A 
ATOM      6  O   UNL     1      86.120  56.656  44.604  0.00  0.00    -0.425 OA
ATOM      7  C   UNL     1      85.642  54.883  46.286  0.00  0.00    +0.002 A 
ATOM      8  C   UNL     1      84.920  54.589  47.461  0.00  0.00    -0.013 A 
ATOM      9  C   UNL     1      84.114  55.573  48.076  0.00  0.00    +0.118 A 
ATOM     10  C   UNL     1      84.016  56.857  47.514  0.00  0.00    -0.013 A 
ENDROOT
BRANCH   9  11
ATOM     11  O   UNL     1      83.410  55.282  49.242  0.00  0.00    -0.507 OA
ATOM     12  H   UNL     1      82.714  54.653  49.225  0.00  0.00    +0.000 HD
ENDBRANCH   9  11
BRANCH   7  13
ATOM     13  C   UNL     1      86.501  53.843  45.618  0.00  0.00    -0.006 C 
BRANCH  13  14
ATOM     14  C   UNL     1      85.704  53.002  44.650  0.00  0.00    -0.081 C 
ATOM     15  C   UNL     1      86.037  52.801  43.355  0.00  0.00    -0.076 C 
ATOM     16  C   UNL     1      87.271  53.421  42.744  0.00  0.00    -0.044 C 
BRANCH  15  17
ATOM     17  C   UNL     1      85.143  51.936  42.495  0.00  0.00    -0.029 C 
BRANCH  17  18
ATOM     18  C   UNL     1      83.855  52.680  42.123  0.00  0.00    -0.031 C 
BRANCH  18  19
ATOM     19  C   UNL     1      84.027  53.432  40.827  0.00  0.00    -0.085 C 
ATOM     20  C   UNL     1      84.162  54.774  40.736  0.00  0.00    -0.080 C 
ATOM     21  C   UNL     1      84.364  55.384  39.373  0.00  0.00    -0.044 C 
ATOM     22  C   UNL     1      84.097  55.670  41.951  0.00  0.00    -0.044 C 
ENDBRANCH  18  19
ENDBRANCH  17  18
ENDBRANCH  15  17
ENDBRANCH  13  14
ENDBRANCH   7  13
TORSDOF 6
ENDMDL
MODEL 9
REMARK VINA RESULT:    -7.340      4.328      7.453
REMARK INTER + INTRA:         -10.913
REMARK INTER:                  -9.700
REMARK INTRA:                  -1.212
REMARK UNBOUND:                -1.212
REMARK  Name = 
REMARK  9 active torsions:
REMARK  status: ('A' for Active; 'I' for Inactive)
REMARK    1  A    between atoms: C_7  and  C_8
REMARK    2  A    between atoms: C_8  and  C_9
REMARK    3  A    between atoms: C_10  and  C_11
REMARK    4  A    between atoms: C_10  and  C_17
REMARK    5  A    between atoms: C_11  and  C_12
REMARK    6  A    between atoms: C_12  and  C_13
REMARK    7  A    between atoms: C_14  and  C_15
REMARK    8  A    between atoms: C_14  and  C_16
REMARK    9  A    between atoms: C_19  and  O_21
REMARK                            x       y       z     vdW  Elec       q    Type
REMARK                         _______ _______ _______ _____ _____    ______ ____
ROOT
ATOM      1  O   UNL     1      90.269  48.126  43.859  0.00  0.00    -0.250 OA
ATOM      2  C   UNL     1      89.791  49.039  43.136  0.00  0.00    +0.317 C 
ATOM      3  C   UNL     1      90.228  49.319  41.730  0.00  0.00    +0.074 C 
ATOM      4  C   UNL     1      89.328  50.470  41.425  0.00  0.00    +0.009 A 
ATOM      5  C   UNL     1      88.532  50.758  42.513  0.00  0.00    +0.139 A 
ATOM      6  O   UNL     1      88.790  49.902  43.569  0.00  0.00    -0.425 OA
ATOM      7  C   UNL     1      87.599  51.802  42.488  0.00  0.00    +0.002 A 
ATOM      8  C   UNL     1      87.484  52.548  41.296  0.00  0.00    -0.013 A 
ATOM      9  C   UNL     1      88.301  52.255  40.181  0.00  0.00    +0.118 A 
ATOM     10  C   UNL     1      89.233  51.205  40.246  0.00  0.00    -0.013 A 
ENDROOT
BRANCH   9  11
ATOM     11  O   UNL     1      88.191  53.000  39.010  0.00  0.00    -0.507 OA
ATOM     12  H   UNL     1      88.074  53.929  39.054  0.00  0.00    +0.000 HD
ENDBRANCH   9  11
BRANCH   7  13
ATOM     13  C   UNL     1      86.732  52.100  43.681  0.00  0.00    -0.006 C 
BRANCH  13  14
ATOM     14  C   UNL     1      85.391  51.416  43.579  0.00  0.00    -0.081 C 
ATOM     15  C   UNL     1      84.355  51.630  44.421  0.00  0.00    -0.076 C 
ATOM     16  C   UNL     1      84.453  52.600  45.574  0.00  0.00    -0.044 C 
BRANCH  15  17
ATOM     17  C   UNL     1      83.065  50.870  44.204  0.00  0.00    -0.029 C 
BRANCH  17  18
ATOM     18  C   UNL     1      82.662  50.888  42.725  0.00  0.00    -0.031 C 
BRANCH  18  19
ATOM     19  C   UNL     1      81.704  52.019  42.445  0.00  0.00    -0.085 C 
ATOM     20  C   UNL     1      82.020  53.132  41.745  0.00  0.00    -0.080 C 
ATOM     21  C   UNL     1      80.946  54.163  41.513  0.00  0.00    -0.044 C 
ATOM     22  C   UNL     1      83.413  53.374  41.212  0.00  0.00    -0.044 C 
ENDBRANCH  18  19
ENDBRANCH  17  18
ENDBRANCH  15  17
ENDBRANCH  13  14
ENDBRANCH   7  13
TORSDOF 6
ENDMDL
