MODEL 1
REMARK VINA RESULT:    -8.876      0.000      0.000
REMARK INTER + INTRA:          -9.971
REMARK INTER:                  -9.663
REMARK INTRA:                  -0.309
REMARK UNBOUND:                -0.317
REMARK  Name = 
REMARK  8 active torsions:
REMARK  status: ('A' for Active; 'I' for Inactive)
REMARK    1  A    between atoms: C_10  and  C_12
REMARK    2  A    between atoms: C_13  and  C_36
REMARK    3  A    between atoms: C_13  and  C_37
REMARK    4  A    between atoms: C_14  and  C_35
REMARK    5  A    between atoms: C_15  and  O_16
REMARK    6  A    between atoms: C_21  and  C_29
REMARK    7  A    between atoms: C_24  and  C_27
REMARK    8  A    between atoms: C_24  and  C_28
REMARK                            x       y       z     vdW  Elec       q    Type
REMARK                         _______ _______ _______ _____ _____    ______ ____
ROOT
ATOM      1  C   UNL     1      80.524  50.266  43.105  0.00  0.00    -0.099 C 
ATOM      2  C   UNL     1      81.506  51.110  42.749  0.00  0.00    -0.073 C 
ATOM      3  C   UNL     1      81.589  51.636  41.336  0.00  0.00    -0.032 C 
ATOM      4  C   UNL     1      81.737  53.170  41.325  0.00  0.00    -0.049 C 
ATOM      5  C   UNL     1      82.611  53.736  42.473  0.00  0.00    -0.049 C 
ATOM      6  C   UNL     1      83.452  52.649  43.174  0.00  0.00    -0.034 C 
ATOM      7  C   UNL     1      82.536  51.572  43.769  0.00  0.00    -0.017 C 
ATOM      8  C   UNL     1      83.356  50.393  44.329  0.00  0.00    -0.040 C 
ATOM      9  C   UNL     1      84.821  50.684  44.812  0.00  0.00    -0.000 C 
ATOM     10  C   UNL     1      85.246  52.203  45.022  0.00  0.00    -0.020 C 
ATOM     11  C   UNL     1      84.282  53.240  44.316  0.00  0.00    -0.043 C 
ATOM     12  C   UNL     1      85.103  52.521  46.547  0.00  0.00    -0.059 C 
ATOM     13  C   UNL     1      86.783  52.279  44.511  0.00  0.00    -0.014 C 
ATOM     14  C   UNL     1      87.229  50.749  44.406  0.00  0.00    +0.066 C 
ATOM     15  C   UNL     1      85.932  50.033  43.932  0.00  0.00    +0.113 C 
ATOM     16  C   UNL     1      86.181  48.514  43.978  0.00  0.00    +0.071 A 
ATOM     17  C   UNL     1      85.313  47.548  44.537  0.00  0.00    +0.192 A 
ATOM     18  O   UNL     1      84.300  47.871  45.205  0.00  0.00    -0.287 OA
ATOM     19  C   UNL     1      85.588  46.192  44.370  0.00  0.00    +0.028 A 
ATOM     20  C   UNL     1      86.727  45.803  43.655  0.00  0.00    +0.139 A 
ATOM     21  O   UNL     1      87.554  46.734  43.191  0.00  0.00    -0.458 OA
ATOM     22  C   UNL     1      87.357  48.042  43.337  0.00  0.00    +0.128 A 
ATOM     23  C   UNL     1      88.444  48.993  42.811  0.00  0.00    +0.082 C 
ATOM     24  C   UNL     1      88.355  50.395  43.432  0.00  0.00    +0.156 C 
ATOM     25  O   UNL     1      89.297  51.163  43.287  0.00  0.00    -0.296 OA
ATOM     26  C   UNL     1      88.330  49.095  41.279  0.00  0.00    -0.046 C 
ATOM     27  C   UNL     1      89.825  48.395  43.166  0.00  0.00    -0.046 C 
ATOM     28  C   UNL     1      87.730  50.189  45.783  0.00  0.00    -0.049 C 
ATOM     29  C   UNL     1      87.707  53.102  45.461  0.00  0.00    -0.058 C 
ATOM     30  C   UNL     1      86.930  53.008  43.124  0.00  0.00    -0.058 C 
ENDROOT
BRANCH  20  31
ATOM     31  C   UNL     1      87.062  44.374  43.426  0.00  0.00    +0.017 A 
ATOM     32  C   UNL     1      86.866  43.757  42.173  0.00  0.00    -0.051 A 
ATOM     33  C   UNL     1      87.202  42.412  41.986  0.00  0.00    -0.061 A 
ATOM     34  C   UNL     1      87.744  41.671  43.038  0.00  0.00    -0.062 A 
ATOM     35  C   UNL     1      87.956  42.274  44.279  0.00  0.00    -0.061 A 
ATOM     36  C   UNL     1      87.622  43.618  44.472  0.00  0.00    -0.051 A 
ENDBRANCH  20  31
BRANCH  15  37
ATOM     37  O   UNL     1      85.688  50.377  42.585  0.00  0.00    -0.382 OA
ATOM     38  H   UNL     1      85.753  51.339  42.480  0.00  0.00    +0.000 HD
ENDBRANCH  15  37
TORSDOF 2
ENDMDL
MODEL 2
REMARK VINA RESULT:    -8.087      2.711      5.176
REMARK INTER + INTRA:          -9.113
REMARK INTER:                  -8.805
REMARK INTRA:                  -0.309
REMARK UNBOUND:                -0.317
REMARK  Name = 
REMARK  8 active torsions:
REMARK  status: ('A' for Active; 'I' for Inactive)
REMARK    1  A    between atoms: C_10  and  C_12
REMARK    2  A    between atoms: C_13  and  C_36
REMARK    3  A    between atoms: C_13  and  C_37
REMARK    4  A    between atoms: C_14  and  C_35
REMARK    5  A    between atoms: C_15  and  O_16
REMARK    6  A    between atoms: C_21  and  C_29
REMARK    7  A    between atoms: C_24  and  C_27
REMARK    8  A    between atoms: C_24  and  C_28
REMARK                            x       y       z     vdW  Elec       q    Type
REMARK                         _______ _______ _______ _____ _____    ______ ____
ROOT
ATOM      1  C   UNL     1      84.421  51.999  49.960  0.00  0.00    -0.099 C 
ATOM      2  C   UNL     1      83.826  52.818  49.078  0.00  0.00    -0.073 C 
ATOM      3  C   UNL     1      82.360  52.658  48.753  0.00  0.00    -0.032 C 
ATOM      4  C   UNL     1      81.619  54.004  48.866  0.00  0.00    -0.049 C 
ATOM      5  C   UNL     1      82.443  55.229  48.397  0.00  0.00    -0.049 C 
ATOM      6  C   UNL     1      83.687  54.833  47.575  0.00  0.00    -0.034 C 
ATOM      7  C   UNL     1      84.610  53.938  48.412  0.00  0.00    -0.017 C 
ATOM      8  C   UNL     1      85.776  53.394  47.561  0.00  0.00    -0.040 C 
ATOM      9  C   UNL     1      86.236  54.241  46.323  0.00  0.00    -0.000 C 
ATOM     10  C   UNL     1      85.727  55.746  46.221  0.00  0.00    -0.020 C 
ATOM     11  C   UNL     1      84.487  56.065  47.150  0.00  0.00    -0.043 C 
ATOM     12  C   UNL     1      86.868  56.662  46.772  0.00  0.00    -0.059 C 
ATOM     13  C   UNL     1      85.445  55.983  44.641  0.00  0.00    -0.014 C 
ATOM     14  C   UNL     1      86.160  54.743  43.933  0.00  0.00    +0.066 C 
ATOM     15  C   UNL     1      85.938  53.580  44.942  0.00  0.00    +0.113 C 
ATOM     16  C   UNL     1      86.752  52.366  44.459  0.00  0.00    +0.071 A 
ATOM     17  C   UNL     1      87.597  51.564  45.259  0.00  0.00    +0.192 A 
ATOM     18  O   UNL     1      87.887  51.874  46.442  0.00  0.00    -0.287 OA
ATOM     19  C   UNL     1      88.152  50.401  44.729  0.00  0.00    +0.028 A 
ATOM     20  C   UNL     1      87.872  50.045  43.404  0.00  0.00    +0.139 A 
ATOM     21  O   UNL     1      87.121  50.850  42.660  0.00  0.00    -0.458 OA
ATOM     22  C   UNL     1      86.581  51.983  43.102  0.00  0.00    +0.128 A 
ATOM     23  C   UNL     1      85.800  52.844  42.098  0.00  0.00    +0.082 C 
ATOM     24  C   UNL     1      85.637  54.299  42.565  0.00  0.00    +0.156 C 
ATOM     25  O   UNL     1      85.256  55.137  41.759  0.00  0.00    -0.296 OA
ATOM     26  C   UNL     1      84.414  52.217  41.861  0.00  0.00    -0.046 C 
ATOM     27  C   UNL     1      86.575  52.852  40.759  0.00  0.00    -0.046 C 
ATOM     28  C   UNL     1      87.687  55.011  43.686  0.00  0.00    -0.049 C 
ATOM     29  C   UNL     1      85.979  57.352  44.121  0.00  0.00    -0.058 C 
ATOM     30  C   UNL     1      83.910  56.024  44.295  0.00  0.00    -0.058 C 
ENDROOT
BRANCH  20  31
ATOM     31  C   UNL     1      88.416  48.807  42.789  0.00  0.00    +0.017 A 
ATOM     32  C   UNL     1      89.740  48.737  42.309  0.00  0.00    -0.051 A 
ATOM     33  C   UNL     1      90.226  47.553  41.745  0.00  0.00    -0.061 A 
ATOM     34  C   UNL     1      89.404  46.426  41.661  0.00  0.00    -0.062 A 
ATOM     35  C   UNL     1      88.096  46.479  42.145  0.00  0.00    -0.061 A 
ATOM     36  C   UNL     1      87.605  47.660  42.711  0.00  0.00    -0.051 A 
ENDBRANCH  20  31
BRANCH  15  37
ATOM     37  O   UNL     1      84.576  53.208  44.914  0.00  0.00    -0.382 OA
ATOM     38  H   UNL     1      84.326  52.831  45.772  0.00  0.00    +0.000 HD
ENDBRANCH  15  37
TORSDOF 2
ENDMDL
MODEL 3
REMARK VINA RESULT:    -7.192      2.319      5.099
REMARK INTER + INTRA:          -8.139
REMARK INTER:                  -7.771
REMARK INTRA:                  -0.369
REMARK UNBOUND:                -0.317
REMARK  Name = 
REMARK  8 active torsions:
REMARK  status: ('A' for Active; 'I' for Inactive)
REMARK    1  A    between atoms: C_10  and  C_12
REMARK    2  A    between atoms: C_13  and  C_36
REMARK    3  A    between atoms: C_13  and  C_37
REMARK    4  A    between atoms: C_14  and  C_35
REMARK    5  A    between atoms: C_15  and  O_16
REMARK    6  A    between atoms: C_21  and  C_29
REMARK    7  A    between atoms: C_24  and  C_27
REMARK    8  A    between atoms: C_24  and  C_28
REMARK                            x       y       z     vdW  Elec       q    Type
REMARK                         _______ _______ _______ _____ _____    ______ ____
ROOT
ATOM      1  C   UNL     1      86.165  53.547  49.329  0.00  0.00    -0.099 C 
ATOM      2  C   UNL     1      85.257  54.146  48.542  0.00  0.00    -0.073 C 
ATOM      3  C   UNL     1      83.880  54.471  49.071  0.00  0.00    -0.032 C 
ATOM      4  C   UNL     1      83.509  55.938  48.782  0.00  0.00    -0.049 C 
ATOM      5  C   UNL     1      84.020  56.471  47.420  0.00  0.00    -0.049 C 
ATOM      6  C   UNL     1      84.474  55.343  46.471  0.00  0.00    -0.034 C 
ATOM      7  C   UNL     1      85.608  54.534  47.113  0.00  0.00    -0.017 C 
ATOM      8  C   UNL     1      85.966  53.302  46.258  0.00  0.00    -0.040 C 
ATOM      9  C   UNL     1      85.687  53.377  44.715  0.00  0.00    -0.000 C 
ATOM     10  C   UNL     1      85.389  54.807  44.082  0.00  0.00    -0.020 C 
ATOM     11  C   UNL     1      84.994  55.907  45.147  0.00  0.00    -0.043 C 
ATOM     12  C   UNL     1      86.727  55.330  43.464  0.00  0.00    -0.059 C 
ATOM     13  C   UNL     1      84.249  54.535  42.961  0.00  0.00    -0.014 C 
ATOM     14  C   UNL     1      84.257  52.949  42.781  0.00  0.00    +0.066 C 
ATOM     15  C   UNL     1      84.552  52.430  44.218  0.00  0.00    +0.113 C 
ATOM     16  C   UNL     1      84.776  50.908  44.139  0.00  0.00    +0.071 A 
ATOM     17  C   UNL     1      85.836  50.194  44.744  0.00  0.00    +0.192 A 
ATOM     18  O   UNL     1      86.806  50.777  45.289  0.00  0.00    -0.287 OA
ATOM     19  C   UNL     1      85.830  48.801  44.725  0.00  0.00    +0.028 A 
ATOM     20  C   UNL     1      84.778  48.124  44.098  0.00  0.00    +0.139 A 
ATOM     21  O   UNL     1      83.826  48.823  43.488  0.00  0.00    -0.458 OA
ATOM     22  C   UNL     1      83.787  50.154  43.454  0.00  0.00    +0.128 A 
ATOM     23  C   UNL     1      82.663  50.816  42.643  0.00  0.00    +0.082 C 
ATOM     24  C   UNL     1      82.975  52.277  42.283  0.00  0.00    +0.156 C 
ATOM     25  O   UNL     1      82.285  52.836  41.441  0.00  0.00    -0.296 OA
ATOM     26  C   UNL     1      81.351  50.749  43.445  0.00  0.00    -0.046 C 
ATOM     27  C   UNL     1      82.481  50.023  41.327  0.00  0.00    -0.046 C 
ATOM     28  C   UNL     1      85.352  52.480  41.760  0.00  0.00    -0.049 C 
ATOM     29  C   UNL     1      84.516  55.285  41.620  0.00  0.00    -0.058 C 
ATOM     30  C   UNL     1      82.828  55.048  43.400  0.00  0.00    -0.058 C 
ENDROOT
BRANCH  20  31
ATOM     31  C   UNL     1      84.705  46.641  44.063  0.00  0.00    +0.017 A 
ATOM     32  C   UNL     1      83.560  45.964  43.594  0.00  0.00    -0.051 A 
ATOM     33  C   UNL     1      83.528  44.566  43.564  0.00  0.00    -0.061 A 
ATOM     34  C   UNL     1      84.635  43.828  43.990  0.00  0.00    -0.062 A 
ATOM     35  C   UNL     1      85.779  44.487  44.443  0.00  0.00    -0.061 A 
ATOM     36  C   UNL     1      85.818  45.884  44.475  0.00  0.00    -0.051 A 
ENDBRANCH  20  31
BRANCH  15  37
ATOM     37  O   UNL     1      83.412  52.644  45.022  0.00  0.00    -0.382 OA
ATOM     38  H   UNL     1      83.213  51.837  45.522  0.00  0.00    +0.000 HD
ENDBRANCH  15  37
TORSDOF 2
ENDMDL
MODEL 4
REMARK VINA RESULT:    -6.651      1.801      2.819
REMARK INTER + INTRA:          -7.552
REMARK INTER:                  -7.220
REMARK INTRA:                  -0.332
REMARK UNBOUND:                -0.317
REMARK  Name = 
REMARK  8 active torsions:
REMARK  status: ('A' for Active; 'I' for Inactive)
REMARK    1  A    between atoms: C_10  and  C_12
REMARK    2  A    between atoms: C_13  and  C_36
REMARK    3  A    between atoms: C_13  and  C_37
REMARK    4  A    between atoms: C_14  and  C_35
REMARK    5  A    between atoms: C_15  and  O_16
REMARK    6  A    between atoms: C_21  and  C_29
REMARK    7  A    between atoms: C_24  and  C_27
REMARK    8  A    between atoms: C_24  and  C_28
REMARK                            x       y       z     vdW  Elec       q    Type
REMARK                         _______ _______ _______ _____ _____    ______ ____
ROOT
ATOM      1  C   UNL     1      81.666  53.495  40.940  0.00  0.00    -0.099 C 
ATOM      2  C   UNL     1      82.794  54.079  41.374  0.00  0.00    -0.073 C 
ATOM      3  C   UNL     1      83.806  54.615  40.390  0.00  0.00    -0.032 C 
ATOM      4  C   UNL     1      84.202  56.063  40.738  0.00  0.00    -0.049 C 
ATOM      5  C   UNL     1      84.287  56.355  42.257  0.00  0.00    -0.049 C 
ATOM      6  C   UNL     1      84.323  55.071  43.111  0.00  0.00    -0.034 C 
ATOM      7  C   UNL     1      83.059  54.237  42.864  0.00  0.00    -0.017 C 
ATOM      8  C   UNL     1      83.146  52.873  43.577  0.00  0.00    -0.040 C 
ATOM      9  C   UNL     1      84.044  52.774  44.862  0.00  0.00    -0.000 C 
ATOM     10  C   UNL     1      84.519  54.132  45.542  0.00  0.00    -0.020 C 
ATOM     11  C   UNL     1      84.383  55.399  44.604  0.00  0.00    -0.043 C 
ATOM     12  C   UNL     1      83.543  54.424  46.729  0.00  0.00    -0.059 C 
ATOM     13  C   UNL     1      86.035  53.840  46.039  0.00  0.00    -0.014 C 
ATOM     14  C   UNL     1      86.171  52.252  45.944  0.00  0.00    +0.066 C 
ATOM     15  C   UNL     1      85.322  51.897  44.690  0.00  0.00    +0.113 C 
ATOM     16  C   UNL     1      85.216  50.363  44.603  0.00  0.00    +0.071 A 
ATOM     17  C   UNL     1      84.032  49.625  44.375  0.00  0.00    +0.192 A 
ATOM     18  O   UNL     1      82.899  50.167  44.377  0.00  0.00    -0.287 OA
ATOM     19  C   UNL     1      84.104  48.250  44.163  0.00  0.00    +0.028 A 
ATOM     20  C   UNL     1      85.351  47.613  44.185  0.00  0.00    +0.139 A 
ATOM     21  O   UNL     1      86.439  48.324  44.459  0.00  0.00    -0.458 OA
ATOM     22  C   UNL     1      86.433  49.635  44.691  0.00  0.00    +0.128 A 
ATOM     23  C   UNL     1      87.764  50.302  45.069  0.00  0.00    +0.082 C 
ATOM     24  C   UNL     1      87.570  51.661  45.759  0.00  0.00    +0.156 C 
ATOM     25  O   UNL     1      88.526  52.175  46.324  0.00  0.00    -0.296 OA
ATOM     26  C   UNL     1      88.620  50.481  43.802  0.00  0.00    -0.046 C 
ATOM     27  C   UNL     1      88.515  49.368  46.047  0.00  0.00    -0.046 C 
ATOM     28  C   UNL     1      85.627  51.540  47.232  0.00  0.00    -0.049 C 
ATOM     29  C   UNL     1      86.324  54.375  47.475  0.00  0.00    -0.058 C 
ATOM     30  C   UNL     1      87.117  54.555  45.148  0.00  0.00    -0.058 C 
ENDROOT
BRANCH  20  31
ATOM     31  C   UNL     1      85.494  46.154  43.945  0.00  0.00    +0.017 A 
ATOM     32  C   UNL     1      84.670  45.211  44.591  0.00  0.00    -0.051 A 
ATOM     33  C   UNL     1      84.823  43.844  44.335  0.00  0.00    -0.061 A 
ATOM     34  C   UNL     1      85.790  43.404  43.428  0.00  0.00    -0.062 A 
ATOM     35  C   UNL     1      86.603  44.329  42.772  0.00  0.00    -0.061 A 
ATOM     36  C   UNL     1      86.454  45.697  43.023  0.00  0.00    -0.051 A 
ENDBRANCH  20  31
BRANCH  15  37
ATOM     37  O   UNL     1      86.009  52.335  43.537  0.00  0.00    -0.382 OA
ATOM     38  H   UNL     1      85.505  53.046  43.111  0.00  0.00    +0.000 HD
ENDBRANCH  15  37
TORSDOF 2
ENDMDL
MODEL 5
REMARK VINA RESULT:    -6.273      2.944      8.309
REMARK INTER + INTRA:          -7.140
REMARK INTER:                  -6.776
REMARK INTRA:                  -0.364
REMARK UNBOUND:                -0.317
REMARK  Name = 
REMARK  8 active torsions:
REMARK  status: ('A' for Active; 'I' for Inactive)
REMARK    1  A    between atoms: C_10  and  C_12
REMARK    2  A    between atoms: C_13  and  C_36
REMARK    3  A    between atoms: C_13  and  C_37
REMARK    4  A    between atoms: C_14  and  C_35
REMARK    5  A    between atoms: C_15  and  O_16
REMARK    6  A    between atoms: C_21  and  C_29
REMARK    7  A    between atoms: C_24  and  C_27
REMARK    8  A    between atoms: C_24  and  C_28
REMARK                            x       y       z     vdW  Elec       q    Type
REMARK                         _______ _______ _______ _____ _____    ______ ____
ROOT
ATOM      1  C   UNL     1      90.210  52.113  40.635  0.00  0.00    -0.099 C 
ATOM      2  C   UNL     1      89.694  51.044  41.263  0.00  0.00    -0.073 C 
ATOM      3  C   UNL     1      89.637  49.703  40.571  0.00  0.00    -0.032 C 
ATOM      4  C   UNL     1      90.225  48.594  41.466  0.00  0.00    -0.049 C 
ATOM      5  C   UNL     1      89.920  48.762  42.975  0.00  0.00    -0.049 C 
ATOM      6  C   UNL     1      88.797  49.783  43.248  0.00  0.00    -0.034 C 
ATOM      7  C   UNL     1      89.185  51.159  42.692  0.00  0.00    -0.017 C 
ATOM      8  C   UNL     1      88.013  52.155  42.804  0.00  0.00    -0.040 C 
ATOM      9  C   UNL     1      86.957  51.918  43.941  0.00  0.00    -0.000 C 
ATOM     10  C   UNL     1      87.335  50.900  45.105  0.00  0.00    -0.020 C 
ATOM     11  C   UNL     1      88.540  49.940  44.748  0.00  0.00    -0.043 C 
ATOM     12  C   UNL     1      87.859  51.746  46.312  0.00  0.00    -0.059 C 
ATOM     13  C   UNL     1      85.951  50.123  45.442  0.00  0.00    -0.014 C 
ATOM     14  C   UNL     1      84.831  51.004  44.723  0.00  0.00    +0.066 C 
ATOM     15  C   UNL     1      85.543  51.501  43.432  0.00  0.00    +0.113 C 
ATOM     16  C   UNL     1      84.623  52.525  42.743  0.00  0.00    +0.071 A 
ATOM     17  C   UNL     1      85.015  53.788  42.243  0.00  0.00    +0.192 A 
ATOM     18  O   UNL     1      86.157  54.265  42.462  0.00  0.00    -0.287 OA
ATOM     19  C   UNL     1      84.114  54.548  41.501  0.00  0.00    +0.028 A 
ATOM     20  C   UNL     1      82.826  54.055  41.266  0.00  0.00    +0.139 A 
ATOM     21  O   UNL     1      82.468  52.891  41.797  0.00  0.00    -0.458 OA
ATOM     22  C   UNL     1      83.275  52.129  42.532  0.00  0.00    +0.128 A 
ATOM     23  C   UNL     1      82.691  50.846  43.142  0.00  0.00    +0.082 C 
ATOM     24  C   UNL     1      83.527  50.314  44.315  0.00  0.00    +0.156 C 
ATOM     25  O   UNL     1      83.046  49.451  45.037  0.00  0.00    -0.296 OA
ATOM     26  C   UNL     1      82.585  49.767  42.049  0.00  0.00    -0.046 C 
ATOM     27  C   UNL     1      81.270  51.161  43.665  0.00  0.00    -0.046 C 
ATOM     28  C   UNL     1      84.361  52.201  45.622  0.00  0.00    -0.049 C 
ATOM     29  C   UNL     1      85.692  49.966  46.972  0.00  0.00    -0.058 C 
ATOM     30  C   UNL     1      85.937  48.643  44.907  0.00  0.00    -0.058 C 
ENDROOT
BRANCH  20  31
ATOM     31  C   UNL     1      81.828  54.809  40.465  0.00  0.00    +0.017 A 
ATOM     32  C   UNL     1      80.444  54.712  40.719  0.00  0.00    -0.051 A 
ATOM     33  C   UNL     1      79.531  55.444  39.953  0.00  0.00    -0.061 A 
ATOM     34  C   UNL     1      79.983  56.286  38.935  0.00  0.00    -0.062 A 
ATOM     35  C   UNL     1      81.351  56.401  38.682  0.00  0.00    -0.061 A 
ATOM     36  C   UNL     1      82.269  55.672  39.445  0.00  0.00    -0.051 A 
ENDBRANCH  20  31
BRANCH  15  37
ATOM     37  O   UNL     1      85.694  50.411  42.548  0.00  0.00    -0.382 OA
ATOM     38  H   UNL     1      86.562  50.462  42.117  0.00  0.00    +0.000 HD
ENDBRANCH  15  37
TORSDOF 2
ENDMDL
