MODEL 1
REMARK VINA RESULT:    -7.627      0.000      0.000
REMARK INTER + INTRA:          -8.634
REMARK INTER:                  -8.319
REMARK INTRA:                  -0.316
REMARK UNBOUND:                -0.338
REMARK  Name = 
REMARK  8 active torsions:
REMARK  status: ('A' for Active; 'I' for Inactive)
REMARK    1  A    between atoms: C_10  and  C_12
REMARK    2  A    between atoms: C_13  and  C_36
REMARK    3  A    between atoms: C_13  and  C_37
REMARK    4  A    between atoms: C_14  and  C_35
REMARK    5  A    between atoms: C_15  and  O_16
REMARK    6  A    between atoms: C_21  and  C_29
REMARK    7  A    between atoms: C_24  and  C_27
REMARK    8  A    between atoms: C_24  and  C_28
REMARK                            x       y       z     vdW  Elec       q    Type
REMARK                         _______ _______ _______ _____ _____    ______ ____
ROOT
ATOM      1  C   UNL     1      84.273  51.868  49.778  0.00  0.00    -0.099 C 
ATOM      2  C   UNL     1      83.725  52.684  48.864  0.00  0.00    -0.073 C 
ATOM      3  C   UNL     1      82.273  52.533  48.476  0.00  0.00    -0.032 C 
ATOM      4  C   UNL     1      81.539  53.886  48.546  0.00  0.00    -0.049 C 
ATOM      5  C   UNL     1      82.393  55.100  48.103  0.00  0.00    -0.049 C 
ATOM      6  C   UNL     1      83.669  54.687  47.340  0.00  0.00    -0.034 C 
ATOM      7  C   UNL     1      84.547  53.792  48.224  0.00  0.00    -0.017 C 
ATOM      8  C   UNL     1      85.744  53.231  47.430  0.00  0.00    -0.040 C 
ATOM      9  C   UNL     1      86.266  54.064  46.206  0.00  0.00    -0.000 C 
ATOM     10  C   UNL     1      85.774  55.572  46.070  0.00  0.00    -0.020 C 
ATOM     11  C   UNL     1      84.498  55.909  46.941  0.00  0.00    -0.043 C 
ATOM     12  C   UNL     1      86.898  56.483  46.663  0.00  0.00    -0.059 C 
ATOM     13  C   UNL     1      85.564  55.797  44.477  0.00  0.00    -0.014 C 
ATOM     14  C   UNL     1      86.299  54.546  43.812  0.00  0.00    +0.066 C 
ATOM     15  C   UNL     1      86.023  53.394  44.819  0.00  0.00    +0.113 C 
ATOM     16  C   UNL     1      86.847  52.169  44.382  0.00  0.00    +0.071 A 
ATOM     17  C   UNL     1      87.650  51.366  45.226  0.00  0.00    +0.192 A 
ATOM     18  O   UNL     1      87.889  51.685  46.417  0.00  0.00    -0.287 OA
ATOM     19  C   UNL     1      88.217  50.195  44.730  0.00  0.00    +0.028 A 
ATOM     20  C   UNL     1      87.992  49.830  43.397  0.00  0.00    +0.139 A 
ATOM     21  O   UNL     1      87.282  50.634  42.614  0.00  0.00    -0.458 OA
ATOM     22  C   UNL     1      86.732  51.776  43.023  0.00  0.00    +0.128 A 
ATOM     23  C   UNL     1      86.004  52.634  41.978  0.00  0.00    +0.082 C 
ATOM     24  C   UNL     1      85.833  54.094  42.426  0.00  0.00    +0.156 C 
ATOM     25  O   UNL     1      85.495  54.928  41.597  0.00  0.00    -0.296 OA
ATOM     26  C   UNL     1      84.624  52.017  41.685  0.00  0.00    -0.046 C 
ATOM     27  C   UNL     1      86.837  52.624  40.675  0.00  0.00    -0.046 C 
ATOM     28  C   UNL     1      87.837  54.799  43.630  0.00  0.00    -0.049 C 
ATOM     29  C   UNL     1      86.132  57.158  43.970  0.00  0.00    -0.058 C 
ATOM     30  C   UNL     1      84.047  55.848  44.064  0.00  0.00    -0.058 C 
ENDROOT
BRANCH  20  31
ATOM     31  C   UNL     1      88.553  48.583  42.817  0.00  0.00    +0.017 A 
ATOM     32  C   UNL     1      89.941  48.395  42.660  0.00  0.00    -0.051 A 
ATOM     33  C   UNL     1      90.437  47.204  42.120  0.00  0.00    -0.061 A 
ATOM     34  C   UNL     1      89.560  46.186  41.739  0.00  0.00    -0.062 A 
ATOM     35  C   UNL     1      88.184  46.354  41.902  0.00  0.00    -0.061 A 
ATOM     36  C   UNL     1      87.682  47.543  42.442  0.00  0.00    -0.051 A 
ENDBRANCH  20  31
BRANCH  15  37
ATOM     37  O   UNL     1      84.660  53.033  44.734  0.00  0.00    -0.382 OA
ATOM     38  H   UNL     1      84.190  53.675  44.180  0.00  0.00    +0.000 HD
ENDBRANCH  15  37
TORSDOF 2
ENDMDL
MODEL 2
REMARK VINA RESULT:    -6.631      2.444      3.357
REMARK INTER + INTRA:          -7.551
REMARK INTER:                  -7.183
REMARK INTRA:                  -0.368
REMARK UNBOUND:                -0.338
REMARK  Name = 
REMARK  8 active torsions:
REMARK  status: ('A' for Active; 'I' for Inactive)
REMARK    1  A    between atoms: C_10  and  C_12
REMARK    2  A    between atoms: C_13  and  C_36
REMARK    3  A    between atoms: C_13  and  C_37
REMARK    4  A    between atoms: C_14  and  C_35
REMARK    5  A    between atoms: C_15  and  O_16
REMARK    6  A    between atoms: C_21  and  C_29
REMARK    7  A    between atoms: C_24  and  C_27
REMARK    8  A    between atoms: C_24  and  C_28
REMARK                            x       y       z     vdW  Elec       q    Type
REMARK                         _______ _______ _______ _____ _____    ______ ____
ROOT
ATOM      1  C   UNL     1      86.453  53.069  49.248  0.00  0.00    -0.099 C 
ATOM      2  C   UNL     1      85.534  53.697  48.496  0.00  0.00    -0.073 C 
ATOM      3  C   UNL     1      84.161  53.990  49.052  0.00  0.00    -0.032 C 
ATOM      4  C   UNL     1      83.779  55.467  48.831  0.00  0.00    -0.049 C 
ATOM      5  C   UNL     1      84.275  56.061  47.488  0.00  0.00    -0.049 C 
ATOM      6  C   UNL     1      84.725  54.978  46.486  0.00  0.00    -0.034 C 
ATOM      7  C   UNL     1      85.869  54.148  47.082  0.00  0.00    -0.017 C 
ATOM      8  C   UNL     1      86.225  52.956  46.171  0.00  0.00    -0.040 C 
ATOM      9  C   UNL     1      85.931  53.096  44.635  0.00  0.00    -0.000 C 
ATOM     10  C   UNL     1      85.620  54.551  44.068  0.00  0.00    -0.020 C 
ATOM     11  C   UNL     1      85.230  55.602  45.184  0.00  0.00    -0.043 C 
ATOM     12  C   UNL     1      86.949  55.108  43.461  0.00  0.00    -0.059 C 
ATOM     13  C   UNL     1      84.470  54.322  42.947  0.00  0.00    -0.014 C 
ATOM     14  C   UNL     1      84.484  52.745  42.699  0.00  0.00    +0.066 C 
ATOM     15  C   UNL     1      84.796  52.166  44.108  0.00  0.00    +0.113 C 
ATOM     16  C   UNL     1      85.027  50.650  43.962  0.00  0.00    +0.071 A 
ATOM     17  C   UNL     1      86.096  49.916  44.525  0.00  0.00    +0.192 A 
ATOM     18  O   UNL     1      87.068  50.480  45.086  0.00  0.00    -0.287 OA
ATOM     19  C   UNL     1      86.097  48.526  44.445  0.00  0.00    +0.028 A 
ATOM     20  C   UNL     1      85.042  47.871  43.800  0.00  0.00    +0.139 A 
ATOM     21  O   UNL     1      84.081  48.590  43.230  0.00  0.00    -0.458 OA
ATOM     22  C   UNL     1      84.035  49.921  43.254  0.00  0.00    +0.128 A 
ATOM     23  C   UNL     1      82.900  50.612  42.483  0.00  0.00    +0.082 C 
ATOM     24  C   UNL     1      83.201  52.088  42.184  0.00  0.00    +0.156 C 
ATOM     25  O   UNL     1      82.500  52.679  41.373  0.00  0.00    -0.296 OA
ATOM     26  C   UNL     1      81.596  50.502  43.293  0.00  0.00    -0.046 C 
ATOM     27  C   UNL     1      82.710  49.875  41.136  0.00  0.00    -0.046 C 
ATOM     28  C   UNL     1      85.572  52.327  41.647  0.00  0.00    -0.049 C 
ATOM     29  C   UNL     1      84.720  55.131  41.637  0.00  0.00    -0.058 C 
ATOM     30  C   UNL     1      83.050  54.808  43.422  0.00  0.00    -0.058 C 
ENDROOT
BRANCH  20  31
ATOM     31  C   UNL     1      84.977  46.390  43.701  0.00  0.00    +0.017 A 
ATOM     32  C   UNL     1      83.819  45.726  43.245  0.00  0.00    -0.051 A 
ATOM     33  C   UNL     1      83.794  44.331  43.153  0.00  0.00    -0.061 A 
ATOM     34  C   UNL     1      84.920  43.583  43.504  0.00  0.00    -0.062 A 
ATOM     35  C   UNL     1      86.076  44.229  43.944  0.00  0.00    -0.061 A 
ATOM     36  C   UNL     1      86.108  45.624  44.038  0.00  0.00    -0.051 A 
ENDBRANCH  20  31
BRANCH  15  37
ATOM     37  O   UNL     1      83.662  52.339  44.932  0.00  0.00    -0.382 OA
ATOM     38  H   UNL     1      83.913  52.836  45.726  0.00  0.00    +0.000 HD
ENDBRANCH  15  37
TORSDOF 2
ENDMDL
MODEL 3
REMARK VINA RESULT:    -6.429      2.238      4.863
REMARK INTER + INTRA:          -7.331
REMARK INTER:                  -6.955
REMARK INTRA:                  -0.375
REMARK UNBOUND:                -0.338
REMARK  Name = 
REMARK  8 active torsions:
REMARK  status: ('A' for Active; 'I' for Inactive)
REMARK    1  A    between atoms: C_10  and  C_12
REMARK    2  A    between atoms: C_13  and  C_36
REMARK    3  A    between atoms: C_13  and  C_37
REMARK    4  A    between atoms: C_14  and  C_35
REMARK    5  A    between atoms: C_15  and  O_16
REMARK    6  A    between atoms: C_21  and  C_29
REMARK    7  A    between atoms: C_24  and  C_27
REMARK    8  A    between atoms: C_24  and  C_28
REMARK                            x       y       z     vdW  Elec       q    Type
REMARK                         _______ _______ _______ _____ _____    ______ ____
ROOT
ATOM      1  C   UNL     1      81.866  53.498  40.967  0.00  0.00    -0.099 C 
ATOM      2  C   UNL     1      82.957  54.074  41.497  0.00  0.00    -0.073 C 
ATOM      3  C   UNL     1      83.945  54.800  40.615  0.00  0.00    -0.032 C 
ATOM      4  C   UNL     1      84.256  56.202  41.173  0.00  0.00    -0.049 C 
ATOM      5  C   UNL     1      84.315  56.276  42.719  0.00  0.00    -0.049 C 
ATOM      6  C   UNL     1      84.416  54.886  43.381  0.00  0.00    -0.034 C 
ATOM      7  C   UNL     1      83.203  54.029  42.998  0.00  0.00    -0.017 C 
ATOM      8  C   UNL     1      83.361  52.583  43.509  0.00  0.00    -0.040 C 
ATOM      9  C   UNL     1      84.254  52.349  44.779  0.00  0.00    -0.000 C 
ATOM     10  C   UNL     1      84.647  53.619  45.655  0.00  0.00    -0.020 C 
ATOM     11  C   UNL     1      84.447  54.998  44.906  0.00  0.00    -0.043 C 
ATOM     12  C   UNL     1      83.648  53.683  46.856  0.00  0.00    -0.059 C 
ATOM     13  C   UNL     1      86.174  53.341  46.127  0.00  0.00    -0.014 C 
ATOM     14  C   UNL     1      86.399  51.793  45.807  0.00  0.00    +0.066 C 
ATOM     15  C   UNL     1      85.579  51.576  44.502  0.00  0.00    +0.113 C 
ATOM     16  C   UNL     1      85.560  50.068  44.195  0.00  0.00    +0.071 A 
ATOM     17  C   UNL     1      84.421  49.307  43.846  0.00  0.00    +0.192 A 
ATOM     18  O   UNL     1      83.259  49.781  43.908  0.00  0.00    -0.287 OA
ATOM     19  C   UNL     1      84.571  47.983  43.439  0.00  0.00    +0.028 A 
ATOM     20  C   UNL     1      85.851  47.418  43.389  0.00  0.00    +0.139 A 
ATOM     21  O   UNL     1      86.896  48.141  43.778  0.00  0.00    -0.458 OA
ATOM     22  C   UNL     1      86.815  49.402  44.196  0.00  0.00    +0.128 A 
ATOM     23  C   UNL     1      88.104  50.079  44.685  0.00  0.00    +0.082 C 
ATOM     24  C   UNL     1      87.830  51.312  45.560  0.00  0.00    +0.156 C 
ATOM     25  O   UNL     1      88.752  51.790  46.208  0.00  0.00    -0.296 OA
ATOM     26  C   UNL     1      88.958  50.484  43.470  0.00  0.00    -0.046 C 
ATOM     27  C   UNL     1      88.899  49.055  45.529  0.00  0.00    -0.046 C 
ATOM     28  C   UNL     1      85.886  50.873  46.971  0.00  0.00    -0.049 C 
ATOM     29  C   UNL     1      86.423  53.678  47.629  0.00  0.00    -0.058 C 
ATOM     30  C   UNL     1      87.220  54.234  45.364  0.00  0.00    -0.058 C 
ENDROOT
BRANCH  20  31
ATOM     31  C   UNL     1      86.077  46.019  42.944  0.00  0.00    +0.017 A 
ATOM     32  C   UNL     1      85.012  45.184  42.550  0.00  0.00    -0.051 A 
ATOM     33  C   UNL     1      85.260  43.874  42.125  0.00  0.00    -0.061 A 
ATOM     34  C   UNL     1      86.568  43.386  42.079  0.00  0.00    -0.062 A 
ATOM     35  C   UNL     1      87.632  44.208  42.454  0.00  0.00    -0.061 A 
ATOM     36  C   UNL     1      87.391  45.518  42.879  0.00  0.00    -0.051 A 
ENDBRANCH  20  31
BRANCH  15  37
ATOM     37  O   UNL     1      86.249  52.213  43.435  0.00  0.00    -0.382 OA
ATOM     38  H   UNL     1      86.024  51.769  42.602  0.00  0.00    +0.000 HD
ENDBRANCH  15  37
TORSDOF 2
ENDMDL
MODEL 4
REMARK VINA RESULT:    -5.710      3.273      7.659
REMARK INTER + INTRA:          -6.549
REMARK INTER:                  -6.240
REMARK INTRA:                  -0.310
REMARK UNBOUND:                -0.338
REMARK  Name = 
REMARK  8 active torsions:
REMARK  status: ('A' for Active; 'I' for Inactive)
REMARK    1  A    between atoms: C_10  and  C_12
REMARK    2  A    between atoms: C_13  and  C_36
REMARK    3  A    between atoms: C_13  and  C_37
REMARK    4  A    between atoms: C_14  and  C_35
REMARK    5  A    between atoms: C_15  and  O_16
REMARK    6  A    between atoms: C_21  and  C_29
REMARK    7  A    between atoms: C_24  and  C_27
REMARK    8  A    between atoms: C_24  and  C_28
REMARK                            x       y       z     vdW  Elec       q    Type
REMARK                         _______ _______ _______ _____ _____    ______ ____
ROOT
ATOM      1  C   UNL     1      79.376  49.650  42.957  0.00  0.00    -0.099 C 
ATOM      2  C   UNL     1      80.240  48.889  43.648  0.00  0.00    -0.073 C 
ATOM      3  C   UNL     1      79.876  48.368  45.018  0.00  0.00    -0.032 C 
ATOM      4  C   UNL     1      80.131  46.851  45.118  0.00  0.00    -0.049 C 
ATOM      5  C   UNL     1      81.385  46.362  44.352  0.00  0.00    -0.049 C 
ATOM      6  C   UNL     1      82.328  47.516  43.952  0.00  0.00    -0.034 C 
ATOM      7  C   UNL     1      81.589  48.515  43.052  0.00  0.00    -0.017 C 
ATOM      8  C   UNL     1      82.457  49.759  42.775  0.00  0.00    -0.040 C 
ATOM      9  C   UNL     1      84.017  49.591  42.828  0.00  0.00    -0.000 C 
ATOM     10  C   UNL     1      84.605  48.112  42.815  0.00  0.00    -0.020 C 
ATOM     11  C   UNL     1      83.542  46.998  43.177  0.00  0.00    -0.043 C 
ATOM     12  C   UNL     1      85.016  47.787  41.341  0.00  0.00    -0.059 C 
ATOM     13  C   UNL     1      85.876  48.161  43.821  0.00  0.00    -0.014 C 
ATOM     14  C   UNL     1      86.138  49.722  44.032  0.00  0.00    +0.066 C 
ATOM     15  C   UNL     1      84.705  50.329  44.016  0.00  0.00    +0.113 C 
ATOM     16  C   UNL     1      84.836  51.863  44.019  0.00  0.00    +0.071 A 
ATOM     17  C   UNL     1      84.139  52.756  43.173  0.00  0.00    +0.192 A 
ATOM     18  O   UNL     1      83.443  52.352  42.208  0.00  0.00    -0.287 OA
ATOM     19  C   UNL     1      84.233  54.129  43.388  0.00  0.00    +0.028 A 
ATOM     20  C   UNL     1      85.026  54.609  44.438  0.00  0.00    +0.139 A 
ATOM     21  O   UNL     1      85.714  53.748  45.180  0.00  0.00    -0.458 OA
ATOM     22  C   UNL     1      85.682  52.428  45.010  0.00  0.00    +0.128 A 
ATOM     23  C   UNL     1      86.594  51.569  45.899  0.00  0.00    +0.082 C 
ATOM     24  C   UNL     1      86.832  50.166  45.322  0.00  0.00    +0.156 C 
ATOM     25  O   UNL     1      87.725  49.477  45.798  0.00  0.00    -0.296 OA
ATOM     26  C   UNL     1      85.972  51.454  47.303  0.00  0.00    -0.046 C 
ATOM     27  C   UNL     1      87.962  52.280  46.020  0.00  0.00    -0.046 C 
ATOM     28  C   UNL     1      87.034  50.325  42.893  0.00  0.00    -0.049 C 
ATOM     29  C   UNL     1      87.130  47.420  43.264  0.00  0.00    -0.058 C 
ATOM     30  C   UNL     1      85.596  47.444  45.193  0.00  0.00    -0.058 C 
ENDROOT
BRANCH  20  31
ATOM     31  C   UNL     1      85.149  56.060  44.731  0.00  0.00    +0.017 A 
ATOM     32  C   UNL     1      85.919  56.919  43.919  0.00  0.00    -0.051 A 
ATOM     33  C   UNL     1      86.007  58.283  44.216  0.00  0.00    -0.061 A 
ATOM     34  C   UNL     1      85.323  58.808  45.315  0.00  0.00    -0.062 A 
ATOM     35  C   UNL     1      84.547  57.971  46.118  0.00  0.00    -0.061 A 
ATOM     36  C   UNL     1      84.455  56.606  45.826  0.00  0.00    -0.051 A 
ENDBRANCH  20  31
BRANCH  15  37
ATOM     37  O   UNL     1      84.044  49.963  45.208  0.00  0.00    -0.382 OA
ATOM     38  H   UNL     1      84.427  49.140  45.551  0.00  0.00    +0.000 HD
ENDBRANCH  15  37
TORSDOF 2
ENDMDL
