MODEL 1
REMARK VINA RESULT:    -9.279      0.000      0.000
REMARK INTER + INTRA:         -13.026
REMARK INTER:                 -11.465
REMARK INTRA:                  -1.561
REMARK UNBOUND:                -1.035
REMARK  Name = 
REMARK  13 active torsions:
REMARK  status: ('A' for Active; 'I' for Inactive)
REMARK    1  A    between atoms: C_1  and  O_2
REMARK    2  A    between atoms: O_2  and  C_3
REMARK    3  A    between atoms: C_5  and  O_6
REMARK    4  A    between atoms: O_6  and  C_7
REMARK    5  A    between atoms: C_10  and  C_11
REMARK    6  A    between atoms: C_14  and  O_24
REMARK    7  A    between atoms: C_18  and  C_19
REMARK    8  A    between atoms: C_21  and  O_22
REMARK    9  A    between atoms: O_22  and  C_23
REMARK   10  A    between atoms: O_24  and  C_25
REMARK   11  A    between atoms: C_27  and  C_32
REMARK   12  A    between atoms: N_28  and  C_31
REMARK   13  A    between atoms: C_29  and  C_30
REMARK                            x       y       z     vdW  Elec       q    Type
REMARK                         _______ _______ _______ _____ _____    ______ ____
ROOT
ATOM      1  C   UNL     1      86.313  52.005  45.502  0.00  0.00    +0.132 A 
ATOM      2  C   UNL     1      86.270  53.361  45.855  0.00  0.00    +0.023 A 
ATOM      3  C   UNL     1      85.658  54.317  45.022  0.00  0.00    +0.129 A 
ATOM      4  C   UNL     1      85.044  53.892  43.809  0.00  0.00    +0.015 A 
ATOM      5  C   UNL     1      85.146  52.538  43.431  0.00  0.00    -0.027 A 
ATOM      6  C   UNL     1      85.755  51.592  44.286  0.00  0.00    +0.028 A 
ATOM      7  C   UNL     1      84.582  52.153  42.084  0.00  0.00    -0.011 C 
ATOM      8  C   UNL     1      84.988  53.191  41.009  0.00  0.00    +0.012 C 
ATOM      9  N   UNL     1      84.871  54.615  41.458  0.00  0.00    -0.296 N 
ATOM     10  C   UNL     1      84.274  54.783  42.816  0.00  0.00    +0.037 C 
ATOM     11  C   UNL     1      84.152  56.267  43.220  0.00  0.00    -0.045 C 
ATOM     12  C   UNL     1      84.195  55.423  40.421  0.00  0.00    -0.012 C 
ATOM     13  C   UNL     1      86.429  52.946  40.546  0.00  0.00    -0.049 C 
ATOM     14  H   UNL     1      85.821  54.971  41.571  0.00  0.00    +0.000 HD
ENDROOT
BRANCH   6  15
ATOM     15  C   UNL     1      85.835  50.161  43.912  0.00  0.00    -0.006 A 
ATOM     16  C   UNL     1      84.783  49.326  44.289  0.00  0.00    -0.050 A 
ATOM     17  C   UNL     1      84.791  47.978  43.948  0.00  0.00    -0.019 A 
ATOM     18  C   UNL     1      85.852  47.424  43.210  0.00  0.00    +0.131 A 
ATOM     19  C   UNL     1      86.935  48.255  42.812  0.00  0.00    +0.066 A 
ATOM     20  C   UNL     1      86.925  49.634  43.178  0.00  0.00    -0.003 A 
ATOM     21  C   UNL     1      87.999  50.461  42.796  0.00  0.00    -0.050 A 
ATOM     22  C   UNL     1      89.069  49.954  42.059  0.00  0.00    -0.046 A 
ATOM     23  C   UNL     1      90.173  50.870  41.615  0.00  0.00    -0.040 C 
ATOM     24  C   UNL     1      89.070  48.612  41.675  0.00  0.00    -0.016 A 
ATOM     25  C   UNL     1      88.023  47.749  42.049  0.00  0.00    +0.132 A 
BRANCH  25  26
ATOM     26  O   UNL     1      88.044  46.395  41.670  0.00  0.00    -0.494 OA
ATOM     27  C   UNL     1      88.947  45.415  42.173  0.00  0.00    +0.079 C 
ENDBRANCH  25  26
BRANCH  18  28
ATOM     28  O   UNL     1      85.848  46.061  42.866  0.00  0.00    -0.494 OA
ATOM     29  C   UNL     1      85.566  44.992  43.763  0.00  0.00    +0.079 C 
ENDBRANCH  18  28
ENDBRANCH   6  15
BRANCH   1  31
ATOM     30  C   UNL     1      86.676  50.907  47.728  0.00  0.00    +0.079 C 
ATOM     31  O   UNL     1      86.914  51.040  46.330  0.00  0.00    -0.494 OA
ENDBRANCH   1  31
BRANCH   3  32
ATOM     32  O   UNL     1      85.671  55.674  45.379  0.00  0.00    -0.495 OA
ATOM     33  C   UNL     1      85.925  56.183  46.685  0.00  0.00    +0.079 C 
ENDBRANCH   3  32
TORSDOF 5
ENDMDL
MODEL 2
REMARK VINA RESULT:    -9.205      1.848      7.197
REMARK INTER + INTRA:         -12.930
REMARK INTER:                 -11.288
REMARK INTRA:                  -1.642
REMARK UNBOUND:                -1.035
REMARK  Name = 
REMARK  13 active torsions:
REMARK  status: ('A' for Active; 'I' for Inactive)
REMARK    1  A    between atoms: C_1  and  O_2
REMARK    2  A    between atoms: O_2  and  C_3
REMARK    3  A    between atoms: C_5  and  O_6
REMARK    4  A    between atoms: O_6  and  C_7
REMARK    5  A    between atoms: C_10  and  C_11
REMARK    6  A    between atoms: C_14  and  O_24
REMARK    7  A    between atoms: C_18  and  C_19
REMARK    8  A    between atoms: C_21  and  O_22
REMARK    9  A    between atoms: O_22  and  C_23
REMARK   10  A    between atoms: O_24  and  C_25
REMARK   11  A    between atoms: C_27  and  C_32
REMARK   12  A    between atoms: N_28  and  C_31
REMARK   13  A    between atoms: C_29  and  C_30
REMARK                            x       y       z     vdW  Elec       q    Type
REMARK                         _______ _______ _______ _____ _____    ______ ____
ROOT
ATOM      1  C   UNL     1      84.569  49.354  43.907  0.00  0.00    +0.132 A 
ATOM      2  C   UNL     1      84.727  48.097  43.307  0.00  0.00    +0.023 A 
ATOM      3  C   UNL     1      85.992  47.637  42.889  0.00  0.00    +0.129 A 
ATOM      4  C   UNL     1      87.137  48.454  43.109  0.00  0.00    +0.015 A 
ATOM      5  C   UNL     1      86.961  49.741  43.655  0.00  0.00    -0.027 A 
ATOM      6  C   UNL     1      85.686  50.181  44.077  0.00  0.00    +0.028 A 
ATOM      7  C   UNL     1      88.185  50.618  43.765  0.00  0.00    -0.011 C 
ATOM      8  C   UNL     1      89.026  50.539  42.466  0.00  0.00    +0.012 C 
ATOM      9  N   UNL     1      89.179  49.155  41.919  0.00  0.00    -0.296 N 
ATOM     10  C   UNL     1      88.596  48.085  42.782  0.00  0.00    +0.037 C 
ATOM     11  C   UNL     1      88.802  46.677  42.187  0.00  0.00    -0.045 C 
ATOM     12  C   UNL     1      90.589  48.903  41.554  0.00  0.00    -0.012 C 
ATOM     13  C   UNL     1      88.411  51.426  41.376  0.00  0.00    -0.049 C 
ATOM     14  H   UNL     1      88.616  49.106  41.069  0.00  0.00    +0.000 HD
ENDROOT
BRANCH   6  15
ATOM     15  C   UNL     1      85.498  51.519  44.685  0.00  0.00    -0.006 A 
ATOM     16  C   UNL     1      85.581  51.625  46.073  0.00  0.00    -0.050 A 
ATOM     17  C   UNL     1      85.436  52.857  46.700  0.00  0.00    -0.019 A 
ATOM     18  C   UNL     1      85.210  54.026  45.954  0.00  0.00    +0.131 A 
ATOM     19  C   UNL     1      85.124  53.946  44.537  0.00  0.00    +0.066 A 
ATOM     20  C   UNL     1      85.261  52.675  43.903  0.00  0.00    -0.003 A 
ATOM     21  C   UNL     1      85.167  52.585  42.501  0.00  0.00    -0.050 A 
ATOM     22  C   UNL     1      84.949  53.720  41.721  0.00  0.00    -0.046 A 
ATOM     23  C   UNL     1      84.911  53.605  40.224  0.00  0.00    -0.040 C 
ATOM     24  C   UNL     1      84.841  54.970  42.334  0.00  0.00    -0.016 A 
ATOM     25  C   UNL     1      84.916  55.101  43.734  0.00  0.00    +0.132 A 
BRANCH  25  26
ATOM     26  O   UNL     1      84.790  56.363  44.341  0.00  0.00    -0.494 OA
ATOM     27  C   UNL     1      85.489  57.538  43.944  0.00  0.00    +0.079 C 
ENDBRANCH  25  26
BRANCH  18  28
ATOM     28  O   UNL     1      85.069  55.269  46.596  0.00  0.00    -0.494 OA
ATOM     29  C   UNL     1      84.278  55.505  47.757  0.00  0.00    +0.079 C 
ENDBRANCH  18  28
ENDBRANCH   6  15
BRANCH   1  31
ATOM     30  C   UNL     1      82.063  49.265  43.941  0.00  0.00    +0.079 C 
ATOM     31  O   UNL     1      83.313  49.820  44.335  0.00  0.00    -0.494 OA
ENDBRANCH   1  31
BRANCH   3  32
ATOM     32  O   UNL     1      86.112  46.393  42.249  0.00  0.00    -0.495 OA
ATOM     33  C   UNL     1      85.316  45.244  42.518  0.00  0.00    +0.079 C 
ENDBRANCH   3  32
TORSDOF 5
ENDMDL
MODEL 3
REMARK VINA RESULT:    -9.019      1.939      4.388
REMARK INTER + INTRA:         -12.690
REMARK INTER:                 -11.052
REMARK INTRA:                  -1.638
REMARK UNBOUND:                -1.035
REMARK  Name = 
REMARK  13 active torsions:
REMARK  status: ('A' for Active; 'I' for Inactive)
REMARK    1  A    between atoms: C_1  and  O_2
REMARK    2  A    between atoms: O_2  and  C_3
REMARK    3  A    between atoms: C_5  and  O_6
REMARK    4  A    between atoms: O_6  and  C_7
REMARK    5  A    between atoms: C_10  and  C_11
REMARK    6  A    between atoms: C_14  and  O_24
REMARK    7  A    between atoms: C_18  and  C_19
REMARK    8  A    between atoms: C_21  and  O_22
REMARK    9  A    between atoms: O_22  and  C_23
REMARK   10  A    between atoms: O_24  and  C_25
REMARK   11  A    between atoms: C_27  and  C_32
REMARK   12  A    between atoms: N_28  and  C_31
REMARK   13  A    between atoms: C_29  and  C_30
REMARK                            x       y       z     vdW  Elec       q    Type
REMARK                         _______ _______ _______ _____ _____    ______ ____
ROOT
ATOM      1  C   UNL     1      86.503  53.000  42.096  0.00  0.00    +0.132 A 
ATOM      2  C   UNL     1      86.013  54.301  42.272  0.00  0.00    +0.023 A 
ATOM      3  C   UNL     1      85.959  54.899  43.546  0.00  0.00    +0.129 A 
ATOM      4  C   UNL     1      86.440  54.175  44.675  0.00  0.00    +0.015 A 
ATOM      5  C   UNL     1      86.871  52.845  44.499  0.00  0.00    -0.027 A 
ATOM      6  C   UNL     1      86.928  52.267  43.211  0.00  0.00    +0.028 A 
ATOM      7  C   UNL     1      87.263  52.077  45.738  0.00  0.00    -0.011 C 
ATOM      8  C   UNL     1      86.234  52.313  46.871  0.00  0.00    +0.012 C 
ATOM      9  N   UNL     1      85.799  53.739  47.016  0.00  0.00    -0.296 N 
ATOM     10  C   UNL     1      86.520  54.694  46.124  0.00  0.00    +0.037 C 
ATOM     11  C   UNL     1      86.055  56.150  46.329  0.00  0.00    -0.045 C 
ATOM     12  C   UNL     1      85.826  54.139  48.438  0.00  0.00    -0.012 C 
ATOM     13  C   UNL     1      84.988  51.447  46.652  0.00  0.00    -0.049 C 
ATOM     14  H   UNL     1      84.834  53.790  46.688  0.00  0.00    +0.000 HD
ENDROOT
BRANCH   6  15
ATOM     15  C   UNL     1      87.413  50.882  43.013  0.00  0.00    -0.006 A 
ATOM     16  C   UNL     1      88.766  50.696  42.729  0.00  0.00    -0.050 A 
ATOM     17  C   UNL     1      89.286  49.419  42.555  0.00  0.00    -0.019 A 
ATOM     18  C   UNL     1      88.466  48.283  42.668  0.00  0.00    +0.131 A 
ATOM     19  C   UNL     1      87.084  48.444  42.959  0.00  0.00    +0.066 A 
ATOM     20  C   UNL     1      86.556  49.760  43.123  0.00  0.00    -0.003 A 
ATOM     21  C   UNL     1      85.187  49.929  43.401  0.00  0.00    -0.050 A 
ATOM     22  C   UNL     1      84.338  48.829  43.527  0.00  0.00    -0.046 A 
ATOM     23  C   UNL     1      82.893  49.034  43.882  0.00  0.00    -0.040 C 
ATOM     24  C   UNL     1      84.854  47.539  43.394  0.00  0.00    -0.016 A 
ATOM     25  C   UNL     1      86.215  47.328  43.102  0.00  0.00    +0.132 A 
BRANCH  25  26
ATOM     26  O   UNL     1      86.719  46.024  42.955  0.00  0.00    -0.494 OA
ATOM     27  C   UNL     1      86.249  44.877  43.658  0.00  0.00    +0.079 C 
ENDBRANCH  25  26
BRANCH  18  28
ATOM     28  O   UNL     1      89.001  46.994  42.495  0.00  0.00    -0.494 OA
ATOM     29  C   UNL     1      90.390  46.677  42.509  0.00  0.00    +0.079 C 
ENDBRANCH  18  28
ENDBRANCH   6  15
BRANCH   1  31
ATOM     30  C   UNL     1      87.561  52.675  39.845  0.00  0.00    +0.079 C 
ATOM     31  O   UNL     1      86.569  52.396  40.827  0.00  0.00    -0.494 OA
ENDBRANCH   1  31
BRANCH   3  32
ATOM     32  O   UNL     1      85.421  56.186  43.698  0.00  0.00    -0.495 OA
ATOM     33  C   UNL     1      84.204  56.647  43.120  0.00  0.00    +0.079 C 
ENDBRANCH   3  32
TORSDOF 5
ENDMDL
MODEL 4
REMARK VINA RESULT:    -9.004      1.915      7.391
REMARK INTER + INTRA:         -12.671
REMARK INTER:                 -11.284
REMARK INTRA:                  -1.387
REMARK UNBOUND:                -1.035
REMARK  Name = 
REMARK  13 active torsions:
REMARK  status: ('A' for Active; 'I' for Inactive)
REMARK    1  A    between atoms: C_1  and  O_2
REMARK    2  A    between atoms: O_2  and  C_3
REMARK    3  A    between atoms: C_5  and  O_6
REMARK    4  A    between atoms: O_6  and  C_7
REMARK    5  A    between atoms: C_10  and  C_11
REMARK    6  A    between atoms: C_14  and  O_24
REMARK    7  A    between atoms: C_18  and  C_19
REMARK    8  A    between atoms: C_21  and  O_22
REMARK    9  A    between atoms: O_22  and  C_23
REMARK   10  A    between atoms: O_24  and  C_25
REMARK   11  A    between atoms: C_27  and  C_32
REMARK   12  A    between atoms: N_28  and  C_31
REMARK   13  A    between atoms: C_29  and  C_30
REMARK                            x       y       z     vdW  Elec       q    Type
REMARK                         _______ _______ _______ _____ _____    ______ ____
ROOT
ATOM      1  C   UNL     1      84.780  49.461  43.610  0.00  0.00    +0.132 A 
ATOM      2  C   UNL     1      85.083  48.112  43.378  0.00  0.00    +0.023 A 
ATOM      3  C   UNL     1      86.394  47.696  43.075  0.00  0.00    +0.129 A 
ATOM      4  C   UNL     1      87.439  48.663  43.034  0.00  0.00    +0.015 A 
ATOM      5  C   UNL     1      87.116  50.024  43.206  0.00  0.00    -0.027 A 
ATOM      6  C   UNL     1      85.797  50.420  43.519  0.00  0.00    +0.028 A 
ATOM      7  C   UNL     1      88.234  51.025  43.040  0.00  0.00    -0.011 C 
ATOM      8  C   UNL     1      89.089  50.682  41.795  0.00  0.00    +0.012 C 
ATOM      9  N   UNL     1      89.400  49.225  41.649  0.00  0.00    -0.296 N 
ATOM     10  C   UNL     1      88.933  48.380  42.788  0.00  0.00    +0.037 C 
ATOM     11  C   UNL     1      89.300  46.894  42.601  0.00  0.00    -0.045 C 
ATOM     12  C   UNL     1      90.833  49.038  41.335  0.00  0.00    -0.012 C 
ATOM     13  C   UNL     1      88.388  51.158  40.517  0.00  0.00    -0.049 C 
ATOM     14  H   UNL     1      88.853  48.881  40.859  0.00  0.00    +0.000 HD
ENDROOT
BRANCH   6  15
ATOM     15  C   UNL     1      85.455  51.845  43.737  0.00  0.00    -0.006 A 
ATOM     16  C   UNL     1      85.051  52.598  42.635  0.00  0.00    -0.050 A 
ATOM     17  C   UNL     1      84.696  53.934  42.780  0.00  0.00    -0.019 A 
ATOM     18  C   UNL     1      84.727  54.558  44.039  0.00  0.00    +0.131 A 
ATOM     19  C   UNL     1      85.132  53.812  45.180  0.00  0.00    +0.066 A 
ATOM     20  C   UNL     1      85.508  52.445  45.019  0.00  0.00    -0.003 A 
ATOM     21  C   UNL     1      85.920  51.702  46.141  0.00  0.00    -0.050 A 
ATOM     22  C   UNL     1      85.960  52.279  47.410  0.00  0.00    -0.046 A 
ATOM     23  C   UNL     1      86.348  51.449  48.600  0.00  0.00    -0.040 C 
ATOM     24  C   UNL     1      85.568  53.609  47.577  0.00  0.00    -0.016 A 
ATOM     25  C   UNL     1      85.163  54.390  46.479  0.00  0.00    +0.132 A 
BRANCH  25  26
ATOM     26  O   UNL     1      84.786  55.732  46.658  0.00  0.00    -0.494 OA
ATOM     27  C   UNL     1      83.626  56.173  47.358  0.00  0.00    +0.079 C 
ENDBRANCH  25  26
BRANCH  18  28
ATOM     28  O   UNL     1      84.362  55.909  44.178  0.00  0.00    -0.494 OA
ATOM     29  C   UNL     1      84.689  56.943  43.254  0.00  0.00    +0.079 C 
ENDBRANCH  18  28
ENDBRANCH   6  15
BRANCH   1  31
ATOM     30  C   UNL     1      82.312  49.073  43.831  0.00  0.00    +0.079 C 
ATOM     31  O   UNL     1      83.477  49.887  43.921  0.00  0.00    -0.494 OA
ENDBRANCH   1  31
BRANCH   3  32
ATOM     32  O   UNL     1      86.658  46.345  42.801  0.00  0.00    -0.495 OA
ATOM     33  C   UNL     1      86.106  45.235  43.503  0.00  0.00    +0.079 C 
ENDBRANCH   3  32
TORSDOF 5
ENDMDL
MODEL 5
REMARK VINA RESULT:    -8.955      1.170      3.107
REMARK INTER + INTRA:         -12.607
REMARK INTER:                 -11.396
REMARK INTRA:                  -1.211
REMARK UNBOUND:                -1.035
REMARK  Name = 
REMARK  13 active torsions:
REMARK  status: ('A' for Active; 'I' for Inactive)
REMARK    1  A    between atoms: C_1  and  O_2
REMARK    2  A    between atoms: O_2  and  C_3
REMARK    3  A    between atoms: C_5  and  O_6
REMARK    4  A    between atoms: O_6  and  C_7
REMARK    5  A    between atoms: C_10  and  C_11
REMARK    6  A    between atoms: C_14  and  O_24
REMARK    7  A    between atoms: C_18  and  C_19
REMARK    8  A    between atoms: C_21  and  O_22
REMARK    9  A    between atoms: O_22  and  C_23
REMARK   10  A    between atoms: O_24  and  C_25
REMARK   11  A    between atoms: C_27  and  C_32
REMARK   12  A    between atoms: N_28  and  C_31
REMARK   13  A    between atoms: C_29  and  C_30
REMARK                            x       y       z     vdW  Elec       q    Type
REMARK                         _______ _______ _______ _____ _____    ______ ____
ROOT
ATOM      1  C   UNL     1      85.700  51.720  45.502  0.00  0.00    +0.132 A 
ATOM      2  C   UNL     1      85.438  53.034  45.917  0.00  0.00    +0.023 A 
ATOM      3  C   UNL     1      84.937  53.999  45.022  0.00  0.00    +0.129 A 
ATOM      4  C   UNL     1      84.662  53.625  43.676  0.00  0.00    +0.015 A 
ATOM      5  C   UNL     1      84.987  52.321  43.251  0.00  0.00    -0.027 A 
ATOM      6  C   UNL     1      85.479  51.363  44.166  0.00  0.00    +0.028 A 
ATOM      7  C   UNL     1      84.787  52.001  41.789  0.00  0.00    -0.011 C 
ATOM      8  C   UNL     1      85.318  53.156  40.904  0.00  0.00    +0.012 C 
ATOM      9  N   UNL     1      84.956  54.522  41.398  0.00  0.00    -0.296 N 
ATOM     10  C   UNL     1      84.051  54.526  42.586  0.00  0.00    +0.037 C 
ATOM     11  C   UNL     1      83.688  55.954  43.039  0.00  0.00    -0.045 C 
ATOM     12  C   UNL     1      84.454  55.352  40.283  0.00  0.00    -0.012 C 
ATOM     13  C   UNL     1      86.844  53.075  40.778  0.00  0.00    -0.049 C 
ATOM     14  H   UNL     1      85.813  54.948  41.752  0.00  0.00    +0.000 HD
ENDROOT
BRANCH   6  15
ATOM     15  C   UNL     1      85.789  49.980  43.736  0.00  0.00    -0.006 A 
ATOM     16  C   UNL     1      87.120  49.660  43.467  0.00  0.00    -0.050 A 
ATOM     17  C   UNL     1      87.476  48.373  43.082  0.00  0.00    -0.019 A 
ATOM     18  C   UNL     1      86.509  47.360  42.961  0.00  0.00    +0.131 A 
ATOM     19  C   UNL     1      85.146  47.659  43.232  0.00  0.00    +0.066 A 
ATOM     20  C   UNL     1      84.787  48.987  43.614  0.00  0.00    -0.003 A 
ATOM     21  C   UNL     1      83.438  49.294  43.874  0.00  0.00    -0.050 A 
ATOM     22  C   UNL     1      82.447  48.318  43.772  0.00  0.00    -0.046 A 
ATOM     23  C   UNL     1      81.024  48.657  44.111  0.00  0.00    -0.040 C 
ATOM     24  C   UNL     1      82.796  47.012  43.425  0.00  0.00    -0.016 A 
ATOM     25  C   UNL     1      84.131  46.667  43.143  0.00  0.00    +0.132 A 
BRANCH  25  26
ATOM     26  O   UNL     1      84.467  45.351  42.779  0.00  0.00    -0.494 OA
ATOM     27  C   UNL     1      84.505  44.238  43.667  0.00  0.00    +0.079 C 
ENDBRANCH  25  26
BRANCH  18  28
ATOM     28  O   UNL     1      86.879  46.060  42.576  0.00  0.00    -0.494 OA
ATOM     29  C   UNL     1      88.192  45.664  42.191  0.00  0.00    +0.079 C 
ENDBRANCH  18  28
ENDBRANCH   6  15
BRANCH   1  31
ATOM     30  C   UNL     1      86.707  51.015  47.688  0.00  0.00    +0.079 C 
ATOM     31  O   UNL     1      86.192  50.746  46.388  0.00  0.00    -0.494 OA
ENDBRANCH   1  31
BRANCH   3  32
ATOM     32  O   UNL     1      84.729  55.319  45.454  0.00  0.00    -0.495 OA
ATOM     33  C   UNL     1      85.678  56.120  46.152  0.00  0.00    +0.079 C 
ENDBRANCH   3  32
TORSDOF 5
ENDMDL
MODEL 6
REMARK VINA RESULT:    -8.089      1.925      3.765
REMARK INTER + INTRA:         -11.489
REMARK INTER:                 -10.313
REMARK INTRA:                  -1.176
REMARK UNBOUND:                -1.035
REMARK  Name = 
REMARK  13 active torsions:
REMARK  status: ('A' for Active; 'I' for Inactive)
REMARK    1  A    between atoms: C_1  and  O_2
REMARK    2  A    between atoms: O_2  and  C_3
REMARK    3  A    between atoms: C_5  and  O_6
REMARK    4  A    between atoms: O_6  and  C_7
REMARK    5  A    between atoms: C_10  and  C_11
REMARK    6  A    between atoms: C_14  and  O_24
REMARK    7  A    between atoms: C_18  and  C_19
REMARK    8  A    between atoms: C_21  and  O_22
REMARK    9  A    between atoms: O_22  and  C_23
REMARK   10  A    between atoms: O_24  and  C_25
REMARK   11  A    between atoms: C_27  and  C_32
REMARK   12  A    between atoms: N_28  and  C_31
REMARK   13  A    between atoms: C_29  and  C_30
REMARK                            x       y       z     vdW  Elec       q    Type
REMARK                         _______ _______ _______ _____ _____    ______ ____
ROOT
ATOM      1  C   UNL     1      85.167  53.502  42.634  0.00  0.00    +0.132 A 
ATOM      2  C   UNL     1      84.804  54.832  42.888  0.00  0.00    +0.023 A 
ATOM      3  C   UNL     1      85.057  55.436  44.135  0.00  0.00    +0.129 A 
ATOM      4  C   UNL     1      85.722  54.688  45.149  0.00  0.00    +0.015 A 
ATOM      5  C   UNL     1      86.026  53.334  44.907  0.00  0.00    -0.027 A 
ATOM      6  C   UNL     1      85.774  52.749  43.646  0.00  0.00    +0.028 A 
ATOM      7  C   UNL     1      86.626  52.547  46.048  0.00  0.00    -0.011 C 
ATOM      8  C   UNL     1      85.876  52.850  47.369  0.00  0.00    +0.012 C 
ATOM      9  N   UNL     1      85.567  54.300  47.579  0.00  0.00    -0.296 N 
ATOM     10  C   UNL     1      86.138  55.206  46.539  0.00  0.00    +0.037 C 
ATOM     11  C   UNL     1      85.814  56.688  46.814  0.00  0.00    -0.045 C 
ATOM     12  C   UNL     1      85.918  54.702  48.957  0.00  0.00    -0.012 C 
ATOM     13  C   UNL     1      84.563  52.061  47.432  0.00  0.00    -0.049 C 
ATOM     14  H   UNL     1      84.560  54.410  47.461  0.00  0.00    +0.000 HD
ENDROOT
BRANCH   6  15
ATOM     15  C   UNL     1      86.124  51.335  43.372  0.00  0.00    -0.006 A 
ATOM     16  C   UNL     1      85.251  50.345  43.823  0.00  0.00    -0.050 A 
ATOM     17  C   UNL     1      85.512  49.003  43.576  0.00  0.00    -0.019 A 
ATOM     18  C   UNL     1      86.657  48.609  42.862  0.00  0.00    +0.131 A 
ATOM     19  C   UNL     1      87.561  49.598  42.388  0.00  0.00    +0.066 A 
ATOM     20  C   UNL     1      87.291  50.973  42.658  0.00  0.00    -0.003 A 
ATOM     21  C   UNL     1      88.187  51.959  42.202  0.00  0.00    -0.050 A 
ATOM     22  C   UNL     1      89.332  51.613  41.484  0.00  0.00    -0.046 A 
ATOM     23  C   UNL     1      90.241  52.687  40.958  0.00  0.00    -0.040 C 
ATOM     24  C   UNL     1      89.587  50.271  41.194  0.00  0.00    -0.016 A 
ATOM     25  C   UNL     1      88.723  49.254  41.644  0.00  0.00    +0.132 A 
BRANCH  25  26
ATOM     26  O   UNL     1      89.000  47.905  41.360  0.00  0.00    -0.494 OA
ATOM     27  C   UNL     1      90.188  47.214  41.733  0.00  0.00    +0.079 C 
ENDBRANCH  25  26
BRANCH  18  28
ATOM     28  O   UNL     1      86.911  47.248  42.613  0.00  0.00    -0.494 OA
ATOM     29  C   UNL     1      85.917  46.231  42.537  0.00  0.00    +0.079 C 
ENDBRANCH  18  28
ENDBRANCH   6  15
BRANCH   1  31
ATOM     30  C   UNL     1      84.687  53.592  40.173  0.00  0.00    +0.079 C 
ATOM     31  O   UNL     1      84.927  52.892  41.390  0.00  0.00    -0.494 OA
ENDBRANCH   1  31
BRANCH   3  32
ATOM     32  O   UNL     1      84.641  56.755  44.376  0.00  0.00    -0.495 OA
ATOM     33  C   UNL     1      85.100  57.908  43.678  0.00  0.00    +0.079 C 
ENDBRANCH   3  32
TORSDOF 5
ENDMDL
MODEL 7
REMARK VINA RESULT:    -8.034      2.320      4.199
REMARK INTER + INTRA:         -11.417
REMARK INTER:                 -10.210
REMARK INTRA:                  -1.207
REMARK UNBOUND:                -1.035
REMARK  Name = 
REMARK  13 active torsions:
REMARK  status: ('A' for Active; 'I' for Inactive)
REMARK    1  A    between atoms: C_1  and  O_2
REMARK    2  A    between atoms: O_2  and  C_3
REMARK    3  A    between atoms: C_5  and  O_6
REMARK    4  A    between atoms: O_6  and  C_7
REMARK    5  A    between atoms: C_10  and  C_11
REMARK    6  A    between atoms: C_14  and  O_24
REMARK    7  A    between atoms: C_18  and  C_19
REMARK    8  A    between atoms: C_21  and  O_22
REMARK    9  A    between atoms: O_22  and  C_23
REMARK   10  A    between atoms: O_24  and  C_25
REMARK   11  A    between atoms: C_27  and  C_32
REMARK   12  A    between atoms: N_28  and  C_31
REMARK   13  A    between atoms: C_29  and  C_30
REMARK                            x       y       z     vdW  Elec       q    Type
REMARK                         _______ _______ _______ _____ _____    ______ ____
ROOT
ATOM      1  C   UNL     1      84.160  53.012  42.701  0.00  0.00    +0.132 A 
ATOM      2  C   UNL     1      84.581  54.349  42.706  0.00  0.00    +0.023 A 
ATOM      3  C   UNL     1      85.209  54.917  43.831  0.00  0.00    +0.129 A 
ATOM      4  C   UNL     1      85.449  54.106  44.977  0.00  0.00    +0.015 A 
ATOM      5  C   UNL     1      84.967  52.782  44.988  0.00  0.00    -0.027 A 
ATOM      6  C   UNL     1      84.348  52.227  43.846  0.00  0.00    +0.028 A 
ATOM      7  C   UNL     1      85.140  51.995  46.265  0.00  0.00    -0.011 C 
ATOM      8  C   UNL     1      84.769  52.864  47.492  0.00  0.00    +0.012 C 
ATOM      9  N   UNL     1      85.295  54.264  47.433  0.00  0.00    -0.296 N 
ATOM     10  C   UNL     1      86.180  54.538  46.263  0.00  0.00    +0.037 C 
ATOM     11  C   UNL     1      86.716  55.984  46.261  0.00  0.00    -0.045 C 
ATOM     12  C   UNL     1      85.909  54.633  48.726  0.00  0.00    -0.012 C 
ATOM     13  C   UNL     1      83.246  52.925  47.663  0.00  0.00    -0.049 C 
ATOM     14  H   UNL     1      84.495  54.876  47.273  0.00  0.00    +0.000 HD
ENDROOT
BRANCH   6  15
ATOM     15  C   UNL     1      83.870  50.825  43.836  0.00  0.00    -0.006 A 
ATOM     16  C   UNL     1      82.504  50.597  44.000  0.00  0.00    -0.050 A 
ATOM     17  C   UNL     1      81.993  49.305  43.977  0.00  0.00    -0.019 A 
ATOM     18  C   UNL     1      82.836  48.197  43.782  0.00  0.00    +0.131 A 
ATOM     19  C   UNL     1      84.232  48.402  43.610  0.00  0.00    +0.066 A 
ATOM     20  C   UNL     1      84.750  49.731  43.648  0.00  0.00    -0.003 A 
ATOM     21  C   UNL     1      86.133  49.942  43.490  0.00  0.00    -0.050 A 
ATOM     22  C   UNL     1      87.005  48.872  43.288  0.00  0.00    -0.046 A 
ATOM     23  C   UNL     1      88.467  49.129  43.064  0.00  0.00    -0.040 C 
ATOM     24  C   UNL     1      86.500  47.572  43.224  0.00  0.00    -0.016 A 
ATOM     25  C   UNL     1      85.125  47.318  43.391  0.00  0.00    +0.132 A 
BRANCH  25  26
ATOM     26  O   UNL     1      84.632  46.002  43.340  0.00  0.00    -0.494 OA
ATOM     27  C   UNL     1      84.954  45.043  42.337  0.00  0.00    +0.079 C 
ENDBRANCH  25  26
BRANCH  18  28
ATOM     28  O   UNL     1      82.309  46.893  43.756  0.00  0.00    -0.494 OA
ATOM     29  C   UNL     1      81.230  46.431  44.562  0.00  0.00    +0.079 C 
ENDBRANCH  18  28
ENDBRANCH   6  15
BRANCH   1  31
ATOM     30  C   UNL     1      82.184  52.649  41.199  0.00  0.00    +0.079 C 
ATOM     31  O   UNL     1      83.539  52.432  41.580  0.00  0.00    -0.494 OA
ENDBRANCH   1  31
BRANCH   3  32
ATOM     32  O   UNL     1      85.577  56.271  43.823  0.00  0.00    -0.495 OA
ATOM     33  C   UNL     1      84.740  57.354  43.429  0.00  0.00    +0.079 C 
ENDBRANCH   3  32
TORSDOF 5
ENDMDL
MODEL 8
REMARK VINA RESULT:    -7.188      2.478      7.410
REMARK INTER + INTRA:         -10.325
REMARK INTER:                  -9.069
REMARK INTRA:                  -1.256
REMARK UNBOUND:                -1.035
REMARK  Name = 
REMARK  13 active torsions:
REMARK  status: ('A' for Active; 'I' for Inactive)
REMARK    1  A    between atoms: C_1  and  O_2
REMARK    2  A    between atoms: O_2  and  C_3
REMARK    3  A    between atoms: C_5  and  O_6
REMARK    4  A    between atoms: O_6  and  C_7
REMARK    5  A    between atoms: C_10  and  C_11
REMARK    6  A    between atoms: C_14  and  O_24
REMARK    7  A    between atoms: C_18  and  C_19
REMARK    8  A    between atoms: C_21  and  O_22
REMARK    9  A    between atoms: O_22  and  C_23
REMARK   10  A    between atoms: O_24  and  C_25
REMARK   11  A    between atoms: C_27  and  C_32
REMARK   12  A    between atoms: N_28  and  C_31
REMARK   13  A    between atoms: C_29  and  C_30
REMARK                            x       y       z     vdW  Elec       q    Type
REMARK                         _______ _______ _______ _____ _____    ______ ____
ROOT
ATOM      1  C   UNL     1      86.175  49.401  43.974  0.00  0.00    +0.132 A 
ATOM      2  C   UNL     1      86.160  48.054  44.364  0.00  0.00    +0.023 A 
ATOM      3  C   UNL     1      85.020  47.248  44.176  0.00  0.00    +0.129 A 
ATOM      4  C   UNL     1      83.869  47.805  43.549  0.00  0.00    +0.015 A 
ATOM      5  C   UNL     1      83.870  49.174  43.217  0.00  0.00    -0.027 A 
ATOM      6  C   UNL     1      85.026  49.964  43.404  0.00  0.00    +0.028 A 
ATOM      7  C   UNL     1      82.590  49.750  42.660  0.00  0.00    -0.011 C 
ATOM      8  C   UNL     1      81.371  49.248  43.474  0.00  0.00    +0.012 C 
ATOM      9  N   UNL     1      81.418  47.790  43.810  0.00  0.00    -0.296 N 
ATOM     10  C   UNL     1      82.568  47.057  43.204  0.00  0.00    +0.037 C 
ATOM     11  C   UNL     1      82.557  45.556  43.559  0.00  0.00    -0.045 C 
ATOM     12  C   UNL     1      80.112  47.159  43.528  0.00  0.00    -0.012 C 
ATOM     13  C   UNL     1      81.234  50.042  44.778  0.00  0.00    -0.049 C 
ATOM     14  H   UNL     1      81.595  47.721  44.813  0.00  0.00    +0.000 HD
ENDROOT
BRANCH   6  15
ATOM     15  C   UNL     1      85.047  51.396  43.024  0.00  0.00    -0.006 A 
ATOM     16  C   UNL     1      85.206  51.714  41.675  0.00  0.00    -0.050 A 
ATOM     17  C   UNL     1      85.210  53.039  41.255  0.00  0.00    -0.019 A 
ATOM     18  C   UNL     1      85.048  54.090  42.174  0.00  0.00    +0.131 A 
ATOM     19  C   UNL     1      84.880  53.793  43.554  0.00  0.00    +0.066 A 
ATOM     20  C   UNL     1      84.891  52.431  43.978  0.00  0.00    -0.003 A 
ATOM     21  C   UNL     1      84.736  52.128  45.345  0.00  0.00    -0.050 A 
ATOM     22  C   UNL     1      84.566  53.140  46.290  0.00  0.00    -0.046 A 
ATOM     23  C   UNL     1      84.345  52.788  47.733  0.00  0.00    -0.040 C 
ATOM     24  C   UNL     1      84.529  54.473  45.876  0.00  0.00    -0.016 A 
ATOM     25  C   UNL     1      84.693  54.818  44.522  0.00  0.00    +0.132 A 
BRANCH  25  26
ATOM     26  O   UNL     1      84.669  56.165  44.120  0.00  0.00    -0.494 OA
ATOM     27  C   UNL     1      85.461  57.205  44.687  0.00  0.00    +0.079 C 
ENDBRANCH  25  26
BRANCH  18  28
ATOM     28  O   UNL     1      85.049  55.427  41.738  0.00  0.00    -0.494 OA
ATOM     29  C   UNL     1      84.346  55.917  40.600  0.00  0.00    +0.079 C 
ENDBRANCH  18  28
ENDBRANCH   6  15
BRANCH   1  31
ATOM     30  C   UNL     1      88.595  49.942  43.601  0.00  0.00    +0.079 C 
ATOM     31  O   UNL     1      87.309  50.213  44.149  0.00  0.00    -0.494 OA
ENDBRANCH   1  31
BRANCH   3  32
ATOM     32  O   UNL     1      85.020  45.916  44.620  0.00  0.00    -0.495 OA
ATOM     33  C   UNL     1      85.918  44.899  44.187  0.00  0.00    +0.079 C 
ENDBRANCH   3  32
TORSDOF 5
ENDMDL
MODEL 9
REMARK VINA RESULT:    -6.490      2.965      7.486
REMARK INTER + INTRA:          -9.422
REMARK INTER:                  -8.387
REMARK INTRA:                  -1.035
REMARK UNBOUND:                -1.035
REMARK  Name = 
REMARK  13 active torsions:
REMARK  status: ('A' for Active; 'I' for Inactive)
REMARK    1  A    between atoms: C_1  and  O_2
REMARK    2  A    between atoms: O_2  and  C_3
REMARK    3  A    between atoms: C_5  and  O_6
REMARK    4  A    between atoms: O_6  and  C_7
REMARK    5  A    between atoms: C_10  and  C_11
REMARK    6  A    between atoms: C_14  and  O_24
REMARK    7  A    between atoms: C_18  and  C_19
REMARK    8  A    between atoms: C_21  and  O_22
REMARK    9  A    between atoms: O_22  and  C_23
REMARK   10  A    between atoms: O_24  and  C_25
REMARK   11  A    between atoms: C_27  and  C_32
REMARK   12  A    between atoms: N_28  and  C_31
REMARK   13  A    between atoms: C_29  and  C_30
REMARK                            x       y       z     vdW  Elec       q    Type
REMARK                         _______ _______ _______ _____ _____    ______ ____
ROOT
ATOM      1  C   UNL     1      83.397  49.690  42.849  0.00  0.00    +0.132 A 
ATOM      2  C   UNL     1      82.556  48.581  43.018  0.00  0.00    +0.023 A 
ATOM      3  C   UNL     1      83.060  47.336  43.444  0.00  0.00    +0.129 A 
ATOM      4  C   UNL     1      84.448  47.210  43.737  0.00  0.00    +0.015 A 
ATOM      5  C   UNL     1      85.296  48.311  43.504  0.00  0.00    -0.027 A 
ATOM      6  C   UNL     1      84.770  49.555  43.087  0.00  0.00    +0.028 A 
ATOM      7  C   UNL     1      86.776  48.100  43.717  0.00  0.00    -0.011 C 
ATOM      8  C   UNL     1      87.226  46.753  43.100  0.00  0.00    +0.012 C 
ATOM      9  N   UNL     1      86.290  45.614  43.366  0.00  0.00    -0.296 N 
ATOM     10  C   UNL     1      85.155  45.952  44.275  0.00  0.00    +0.037 C 
ATOM     11  C   UNL     1      84.237  44.741  44.537  0.00  0.00    -0.045 C 
ATOM     12  C   UNL     1      87.048  44.422  43.800  0.00  0.00    -0.012 C 
ATOM     13  C   UNL     1      87.401  46.892  41.583  0.00  0.00    -0.049 C 
ATOM     14  H   UNL     1      85.829  45.395  42.483  0.00  0.00    +0.000 HD
ENDROOT
BRANCH   6  15
ATOM     15  C   UNL     1      85.650  50.727  42.874  0.00  0.00    -0.006 A 
ATOM     16  C   UNL     1      86.461  50.741  41.739  0.00  0.00    -0.050 A 
ATOM     17  C   UNL     1      87.291  51.824  41.473  0.00  0.00    -0.019 A 
ATOM     18  C   UNL     1      87.330  52.934  42.335  0.00  0.00    +0.131 A 
ATOM     19  C   UNL     1      86.512  52.946  43.497  0.00  0.00    +0.066 A 
ATOM     20  C   UNL     1      85.673  51.824  43.769  0.00  0.00    -0.003 A 
ATOM     21  C   UNL     1      84.867  51.824  44.924  0.00  0.00    -0.050 A 
ATOM     22  C   UNL     1      84.870  52.907  45.803  0.00  0.00    -0.046 A 
ATOM     23  C   UNL     1      83.959  52.907  46.996  0.00  0.00    -0.040 C 
ATOM     24  C   UNL     1      85.670  54.018  45.527  0.00  0.00    -0.016 A 
ATOM     25  C   UNL     1      86.500  54.052  44.391  0.00  0.00    +0.132 A 
BRANCH  25  26
ATOM     26  O   UNL     1      87.312  55.170  44.133  0.00  0.00    -0.494 OA
ATOM     27  C   UNL     1      86.931  56.527  44.341  0.00  0.00    +0.079 C 
ENDBRANCH  25  26
BRANCH  18  28
ATOM     28  O   UNL     1      88.169  54.026  42.055  0.00  0.00    -0.494 OA
ATOM     29  C   UNL     1      89.382  53.957  41.312  0.00  0.00    +0.079 C 
ENDBRANCH  18  28
ENDBRANCH   6  15
BRANCH   1  31
ATOM     30  C   UNL     1      81.531  51.315  42.443  0.00  0.00    +0.079 C 
ATOM     31  O   UNL     1      82.904  50.939  42.433  0.00  0.00    -0.494 OA
ENDBRANCH   1  31
BRANCH   3  32
ATOM     32  O   UNL     1      82.201  46.231  43.559  0.00  0.00    -0.495 OA
ATOM     33  C   UNL     1      80.782  46.294  43.668  0.00  0.00    +0.079 C 
ENDBRANCH   3  32
TORSDOF 5
ENDMDL
