MODEL 1
REMARK VINA RESULT:    -9.333      0.000      0.000
REMARK INTER + INTRA:         -12.261
REMARK INTER:                 -11.583
REMARK INTRA:                  -0.678
REMARK UNBOUND:                -0.745
REMARK  Name = 
REMARK  11 active torsions:
REMARK  status: ('A' for Active; 'I' for Inactive)
REMARK    1  A    between atoms: C_1  and  O_2
REMARK    2  A    between atoms: O_2  and  C_3
REMARK    3  A    between atoms: C_7  and  C_12
REMARK    4  A    between atoms: N_8  and  C_11
REMARK    5  A    between atoms: C_9  and  C_10
REMARK    6  A    between atoms: C_14  and  O_30
REMARK    7  A    between atoms: C_15  and  C_16
REMARK    8  A    between atoms: C_17  and  C_18
REMARK    9  A    between atoms: C_22  and  O_23
REMARK   10  A    between atoms: C_24  and  O_25
REMARK   11  A    between atoms: O_25  and  C_26
REMARK                            x       y       z     vdW  Elec       q    Type
REMARK                         _______ _______ _______ _____ _____    ______ ____
ROOT
ATOM      1  C   UNL     1      86.256  48.746  44.212  0.00  0.00    +0.136 A 
ATOM      2  C   UNL     1      86.446  47.454  43.681  0.00  0.00    +0.015 A 
ATOM      3  C   UNL     1      87.611  47.160  42.954  0.00  0.00    -0.034 A 
ATOM      4  C   UNL     1      87.750  45.827  42.265  0.00  0.00    -0.012 C 
ATOM      5  C   UNL     1      87.108  44.643  43.044  0.00  0.00    +0.012 C 
ATOM      6  N   UNL     1      86.134  45.079  44.084  0.00  0.00    -0.296 N 
ATOM      7  C   UNL     1      85.424  46.360  43.869  0.00  0.00    +0.037 C 
ATOM      8  C   UNL     1      84.443  46.327  42.688  0.00  0.00    -0.045 C 
ATOM      9  C   UNL     1      85.309  44.016  44.682  0.00  0.00    -0.012 C 
ATOM     10  C   UNL     1      86.532  43.605  42.058  0.00  0.00    -0.049 C 
ATOM     11  C   UNL     1      88.570  48.158  42.742  0.00  0.00    -0.016 A 
ATOM     12  C   UNL     1      88.393  49.441  43.262  0.00  0.00    +0.128 A 
ATOM     13  C   UNL     1      87.236  49.742  44.012  0.00  0.00    +0.069 A 
ATOM     14  H   UNL     1      86.786  45.333  44.826  0.00  0.00    +0.000 HD
ENDROOT
BRANCH  13  15
ATOM     15  C   UNL     1      87.026  51.106  44.555  0.00  0.00    +0.034 A 
ATOM     16  C   UNL     1      87.221  51.353  45.932  0.00  0.00    -0.038 A 
ATOM     17  C   UNL     1      87.652  50.256  46.873  0.00  0.00    -0.039 C 
ATOM     18  C   UNL     1      87.031  52.643  46.435  0.00  0.00    -0.050 A 
ATOM     19  C   UNL     1      86.624  53.689  45.600  0.00  0.00    -0.011 A 
ATOM     20  C   UNL     1      86.409  53.459  44.215  0.00  0.00    +0.066 A 
ATOM     21  C   UNL     1      86.625  52.157  43.694  0.00  0.00    +0.136 A 
ATOM     22  C   UNL     1      85.992  54.544  43.395  0.00  0.00    +0.131 A 
ATOM     23  C   UNL     1      85.805  55.815  43.972  0.00  0.00    -0.019 A 
ATOM     24  C   UNL     1      86.024  56.021  45.331  0.00  0.00    -0.058 A 
ATOM     25  C   UNL     1      86.430  54.967  46.142  0.00  0.00    -0.054 A 
BRANCH  21  26
ATOM     26  O   UNL     1      86.450  51.919  42.327  0.00  0.00    -0.505 OA
ATOM     27  H   UNL     1      86.956  51.258  41.898  0.00  0.00    +0.000 HD
ENDBRANCH  21  26
BRANCH  22  28
ATOM     28  O   UNL     1      85.769  54.340  42.021  0.00  0.00    -0.494 OA
ATOM     29  C   UNL     1      84.638  54.815  41.298  0.00  0.00    +0.079 C 
ENDBRANCH  22  28
ENDBRANCH  13  15
BRANCH   1  31
ATOM     30  C   UNL     1      83.943  49.609  44.259  0.00  0.00    +0.079 C 
ATOM     31  O   UNL     1      85.076  49.040  44.905  0.00  0.00    -0.494 OA
ENDBRANCH   1  31
BRANCH  12  32
ATOM     32  O   UNL     1      89.371  50.402  42.999  0.00  0.00    -0.506 OA
ATOM     33  H   UNL     1      89.314  51.250  43.393  0.00  0.00    +0.000 HD
ENDBRANCH  12  32
TORSDOF 5
ENDMDL
MODEL 2
REMARK VINA RESULT:    -9.129      2.297      7.705
REMARK INTER + INTRA:         -12.008
REMARK INTER:                 -11.088
REMARK INTRA:                  -0.920
REMARK UNBOUND:                -0.745
REMARK  Name = 
REMARK  11 active torsions:
REMARK  status: ('A' for Active; 'I' for Inactive)
REMARK    1  A    between atoms: C_1  and  O_2
REMARK    2  A    between atoms: O_2  and  C_3
REMARK    3  A    between atoms: C_7  and  C_12
REMARK    4  A    between atoms: N_8  and  C_11
REMARK    5  A    between atoms: C_9  and  C_10
REMARK    6  A    between atoms: C_14  and  O_30
REMARK    7  A    between atoms: C_15  and  C_16
REMARK    8  A    between atoms: C_17  and  C_18
REMARK    9  A    between atoms: C_22  and  O_23
REMARK   10  A    between atoms: C_24  and  O_25
REMARK   11  A    between atoms: O_25  and  C_26
REMARK                            x       y       z     vdW  Elec       q    Type
REMARK                         _______ _______ _______ _____ _____    ______ ____
ROOT
ATOM      1  C   UNL     1      86.387  51.391  44.032  0.00  0.00    +0.136 A 
ATOM      2  C   UNL     1      86.212  52.645  44.650  0.00  0.00    +0.015 A 
ATOM      3  C   UNL     1      86.738  52.874  45.932  0.00  0.00    -0.034 A 
ATOM      4  C   UNL     1      86.429  54.161  46.652  0.00  0.00    -0.012 C 
ATOM      5  C   UNL     1      86.331  55.401  45.716  0.00  0.00    +0.012 C 
ATOM      6  N   UNL     1      86.143  55.045  44.281  0.00  0.00    -0.296 N 
ATOM      7  C   UNL     1      85.464  53.767  43.972  0.00  0.00    +0.037 C 
ATOM      8  C   UNL     1      83.981  53.748  44.372  0.00  0.00    -0.045 C 
ATOM      9  C   UNL     1      85.794  56.156  43.381  0.00  0.00    -0.012 C 
ATOM     10  C   UNL     1      85.273  56.389  46.249  0.00  0.00    -0.049 C 
ATOM     11  C   UNL     1      87.419  51.848  46.599  0.00  0.00    -0.016 A 
ATOM     12  C   UNL     1      87.598  50.602  45.997  0.00  0.00    +0.128 A 
ATOM     13  C   UNL     1      87.091  50.367  44.701  0.00  0.00    +0.069 A 
ATOM     14  H   UNL     1      87.109  54.824  44.038  0.00  0.00    +0.000 HD
ENDROOT
BRANCH  13  15
ATOM     15  C   UNL     1      87.259  49.041  44.058  0.00  0.00    +0.034 A 
ATOM     16  C   UNL     1      88.389  48.790  43.248  0.00  0.00    -0.038 A 
ATOM     17  C   UNL     1      89.446  49.843  43.026  0.00  0.00    -0.039 C 
ATOM     18  C   UNL     1      88.545  47.535  42.652  0.00  0.00    -0.050 A 
ATOM     19  C   UNL     1      87.586  46.532  42.824  0.00  0.00    -0.011 A 
ATOM     20  C   UNL     1      86.436  46.768  43.623  0.00  0.00    +0.066 A 
ATOM     21  C   UNL     1      86.284  48.031  44.250  0.00  0.00    +0.136 A 
ATOM     22  C   UNL     1      85.478  45.727  43.773  0.00  0.00    +0.131 A 
ATOM     23  C   UNL     1      85.692  44.492  43.132  0.00  0.00    -0.019 A 
ATOM     24  C   UNL     1      86.827  44.279  42.355  0.00  0.00    -0.058 A 
ATOM     25  C   UNL     1      87.769  45.290  42.199  0.00  0.00    -0.054 A 
BRANCH  21  26
ATOM     26  O   UNL     1      85.174  48.272  45.067  0.00  0.00    -0.505 OA
ATOM     27  H   UNL     1      85.295  48.477  45.973  0.00  0.00    +0.000 HD
ENDBRANCH  21  26
BRANCH  22  28
ATOM     28  O   UNL     1      84.328  45.939  44.556  0.00  0.00    -0.494 OA
ATOM     29  C   UNL     1      82.989  45.757  44.107  0.00  0.00    +0.079 C 
ENDBRANCH  22  28
ENDBRANCH  13  15
BRANCH   1  31
ATOM     30  C   UNL     1      86.472  51.573  41.571  0.00  0.00    +0.079 C 
ATOM     31  O   UNL     1      85.828  51.159  42.770  0.00  0.00    -0.494 OA
ENDBRANCH   1  31
BRANCH  12  32
ATOM     32  O   UNL     1      88.264  49.609  46.719  0.00  0.00    -0.506 OA
ATOM     33  H   UNL     1      88.143  49.541  47.646  0.00  0.00    +0.000 HD
ENDBRANCH  12  32
TORSDOF 5
ENDMDL
MODEL 3
REMARK VINA RESULT:    -9.115      2.913      7.946
REMARK INTER + INTRA:         -11.991
REMARK INTER:                 -11.149
REMARK INTRA:                  -0.842
REMARK UNBOUND:                -0.745
REMARK  Name = 
REMARK  11 active torsions:
REMARK  status: ('A' for Active; 'I' for Inactive)
REMARK    1  A    between atoms: C_1  and  O_2
REMARK    2  A    between atoms: O_2  and  C_3
REMARK    3  A    between atoms: C_7  and  C_12
REMARK    4  A    between atoms: N_8  and  C_11
REMARK    5  A    between atoms: C_9  and  C_10
REMARK    6  A    between atoms: C_14  and  O_30
REMARK    7  A    between atoms: C_15  and  C_16
REMARK    8  A    between atoms: C_17  and  C_18
REMARK    9  A    between atoms: C_22  and  O_23
REMARK   10  A    between atoms: C_24  and  O_25
REMARK   11  A    between atoms: O_25  and  C_26
REMARK                            x       y       z     vdW  Elec       q    Type
REMARK                         _______ _______ _______ _____ _____    ______ ____
ROOT
ATOM      1  C   UNL     1      85.067  52.868  45.133  0.00  0.00    +0.136 A 
ATOM      2  C   UNL     1      85.092  54.276  45.068  0.00  0.00    +0.015 A 
ATOM      3  C   UNL     1      85.261  54.917  43.830  0.00  0.00    -0.034 A 
ATOM      4  C   UNL     1      85.433  56.413  43.776  0.00  0.00    -0.012 C 
ATOM      5  C   UNL     1      84.603  57.183  44.843  0.00  0.00    +0.012 C 
ATOM      6  N   UNL     1      84.133  56.320  45.963  0.00  0.00    -0.296 N 
ATOM      7  C   UNL     1      84.945  55.130  46.303  0.00  0.00    +0.037 C 
ATOM      8  C   UNL     1      86.323  55.475  46.890  0.00  0.00    -0.045 C 
ATOM      9  C   UNL     1      83.562  57.022  47.124  0.00  0.00    -0.012 C 
ATOM     10  C   UNL     1      85.369  58.437  45.313  0.00  0.00    -0.049 C 
ATOM     11  C   UNL     1      85.423  54.154  42.667  0.00  0.00    -0.016 A 
ATOM     12  C   UNL     1      85.399  52.760  42.718  0.00  0.00    +0.128 A 
ATOM     13  C   UNL     1      85.210  52.105  43.954  0.00  0.00    +0.069 A 
ATOM     14  H   UNL     1      83.325  55.889  45.512  0.00  0.00    +0.000 HD
ENDROOT
BRANCH  13  15
ATOM     15  C   UNL     1      85.202  50.624  44.026  0.00  0.00    +0.034 A 
ATOM     16  C   UNL     1      86.417  49.919  44.180  0.00  0.00    -0.038 A 
ATOM     17  C   UNL     1      87.736  50.643  44.285  0.00  0.00    -0.039 C 
ATOM     18  C   UNL     1      86.400  48.524  44.257  0.00  0.00    -0.050 A 
ATOM     19  C   UNL     1      85.201  47.811  44.157  0.00  0.00    -0.011 A 
ATOM     20  C   UNL     1      83.969  48.499  43.988  0.00  0.00    +0.066 A 
ATOM     21  C   UNL     1      83.978  49.917  43.934  0.00  0.00    +0.136 A 
ATOM     22  C   UNL     1      82.768  47.744  43.886  0.00  0.00    +0.131 A 
ATOM     23  C   UNL     1      82.828  46.338  43.956  0.00  0.00    -0.019 A 
ATOM     24  C   UNL     1      84.044  45.683  44.125  0.00  0.00    -0.058 A 
ATOM     25  C   UNL     1      85.224  46.411  44.224  0.00  0.00    -0.054 A 
BRANCH  21  26
ATOM     26  O   UNL     1      82.772  50.613  43.801  0.00  0.00    -0.505 OA
ATOM     27  H   UNL     1      82.742  51.535  43.967  0.00  0.00    +0.000 HD
ENDBRANCH  21  26
BRANCH  22  28
ATOM     28  O   UNL     1      81.537  48.402  43.714  0.00  0.00    -0.494 OA
ATOM     29  C   UNL     1      80.315  48.026  44.341  0.00  0.00    +0.079 C 
ENDBRANCH  22  28
ENDBRANCH  13  15
BRANCH   1  31
ATOM     30  C   UNL     1      86.057  51.952  47.201  0.00  0.00    +0.079 C 
ATOM     31  O   UNL     1      84.935  52.237  46.375  0.00  0.00    -0.494 OA
ENDBRANCH   1  31
BRANCH  12  32
ATOM     32  O   UNL     1      85.589  52.051  41.530  0.00  0.00    -0.506 OA
ATOM     33  H   UNL     1      85.414  51.131  41.499  0.00  0.00    +0.000 HD
ENDBRANCH  12  32
TORSDOF 5
ENDMDL
MODEL 4
REMARK VINA RESULT:    -8.472      3.063      8.271
REMARK INTER + INTRA:         -11.198
REMARK INTER:                 -10.267
REMARK INTRA:                  -0.931
REMARK UNBOUND:                -0.745
REMARK  Name = 
REMARK  11 active torsions:
REMARK  status: ('A' for Active; 'I' for Inactive)
REMARK    1  A    between atoms: C_1  and  O_2
REMARK    2  A    between atoms: O_2  and  C_3
REMARK    3  A    between atoms: C_7  and  C_12
REMARK    4  A    between atoms: N_8  and  C_11
REMARK    5  A    between atoms: C_9  and  C_10
REMARK    6  A    between atoms: C_14  and  O_30
REMARK    7  A    between atoms: C_15  and  C_16
REMARK    8  A    between atoms: C_17  and  C_18
REMARK    9  A    between atoms: C_22  and  O_23
REMARK   10  A    between atoms: C_24  and  O_25
REMARK   11  A    between atoms: O_25  and  C_26
REMARK                            x       y       z     vdW  Elec       q    Type
REMARK                         _______ _______ _______ _____ _____    ______ ____
ROOT
ATOM      1  C   UNL     1      85.256  53.683  44.875  0.00  0.00    +0.136 A 
ATOM      2  C   UNL     1      85.033  55.021  45.261  0.00  0.00    +0.015 A 
ATOM      3  C   UNL     1      84.696  55.319  46.591  0.00  0.00    -0.034 A 
ATOM      4  C   UNL     1      84.317  56.727  46.972  0.00  0.00    -0.012 C 
ATOM      5  C   UNL     1      85.103  57.825  46.197  0.00  0.00    +0.012 C 
ATOM      6  N   UNL     1      85.761  57.319  44.960  0.00  0.00    -0.296 N 
ATOM      7  C   UNL     1      85.143  56.159  44.277  0.00  0.00    +0.037 C 
ATOM      8  C   UNL     1      83.774  56.472  43.654  0.00  0.00    -0.045 C 
ATOM      9  C   UNL     1      86.306  58.343  44.054  0.00  0.00    -0.012 C 
ATOM     10  C   UNL     1      84.204  59.056  45.958  0.00  0.00    -0.049 C 
ATOM     11  C   UNL     1      84.563  54.285  47.525  0.00  0.00    -0.016 A 
ATOM     12  C   UNL     1      84.782  52.957  47.155  0.00  0.00    +0.128 A 
ATOM     13  C   UNL     1      85.140  52.647  45.826  0.00  0.00    +0.069 A 
ATOM     14  H   UNL     1      86.588  56.890  45.376  0.00  0.00    +0.000 HD
ENDROOT
BRANCH  13  15
ATOM     15  C   UNL     1      85.357  51.239  45.415  0.00  0.00    +0.034 A 
ATOM     16  C   UNL     1      86.626  50.641  45.590  0.00  0.00    -0.038 A 
ATOM     17  C   UNL     1      87.776  51.405  46.199  0.00  0.00    -0.039 C 
ATOM     18  C   UNL     1      86.820  49.310  45.210  0.00  0.00    -0.050 A 
ATOM     19  C   UNL     1      85.784  48.567  44.633  0.00  0.00    -0.011 A 
ATOM     20  C   UNL     1      84.505  49.153  44.437  0.00  0.00    +0.066 A 
ATOM     21  C   UNL     1      84.295  50.496  44.844  0.00  0.00    +0.136 A 
ATOM     22  C   UNL     1      83.475  48.371  43.844  0.00  0.00    +0.131 A 
ATOM     23  C   UNL     1      83.746  47.040  43.471  0.00  0.00    -0.019 A 
ATOM     24  C   UNL     1      85.005  46.484  43.675  0.00  0.00    -0.058 A 
ATOM     25  C   UNL     1      86.020  47.240  44.251  0.00  0.00    -0.054 A 
BRANCH  21  26
ATOM     26  O   UNL     1      83.033  51.079  44.688  0.00  0.00    -0.505 OA
ATOM     27  H   UNL     1      82.877  51.677  43.984  0.00  0.00    +0.000 HD
ENDBRANCH  21  26
BRANCH  22  28
ATOM     28  O   UNL     1      82.201  48.929  43.635  0.00  0.00    -0.494 OA
ATOM     29  C   UNL     1      80.967  48.277  43.916  0.00  0.00    +0.079 C 
ENDBRANCH  22  28
ENDBRANCH  13  15
BRANCH   1  31
ATOM     30  C   UNL     1      86.889  53.409  43.044  0.00  0.00    +0.079 C 
ATOM     31  O   UNL     1      85.556  53.391  43.540  0.00  0.00    -0.494 OA
ENDBRANCH   1  31
BRANCH  12  32
ATOM     32  O   UNL     1      84.612  51.965  48.123  0.00  0.00    -0.506 OA
ATOM     33  H   UNL     1      83.798  51.892  48.583  0.00  0.00    +0.000 HD
ENDBRANCH  12  32
TORSDOF 5
ENDMDL
MODEL 5
REMARK VINA RESULT:    -8.212      2.170      4.255
REMARK INTER + INTRA:         -10.877
REMARK INTER:                 -10.070
REMARK INTRA:                  -0.807
REMARK UNBOUND:                -0.745
REMARK  Name = 
REMARK  11 active torsions:
REMARK  status: ('A' for Active; 'I' for Inactive)
REMARK    1  A    between atoms: C_1  and  O_2
REMARK    2  A    between atoms: O_2  and  C_3
REMARK    3  A    between atoms: C_7  and  C_12
REMARK    4  A    between atoms: N_8  and  C_11
REMARK    5  A    between atoms: C_9  and  C_10
REMARK    6  A    between atoms: C_14  and  O_30
REMARK    7  A    between atoms: C_15  and  C_16
REMARK    8  A    between atoms: C_17  and  C_18
REMARK    9  A    between atoms: C_22  and  O_23
REMARK   10  A    between atoms: C_24  and  O_25
REMARK   11  A    between atoms: O_25  and  C_26
REMARK                            x       y       z     vdW  Elec       q    Type
REMARK                         _______ _______ _______ _____ _____    ______ ____
ROOT
ATOM      1  C   UNL     1      87.301  51.011  43.266  0.00  0.00    +0.136 A 
ATOM      2  C   UNL     1      87.651  49.661  43.060  0.00  0.00    +0.015 A 
ATOM      3  C   UNL     1      86.679  48.657  43.196  0.00  0.00    -0.034 A 
ATOM      4  C   UNL     1      87.081  47.207  43.118  0.00  0.00    -0.012 C 
ATOM      5  C   UNL     1      88.228  46.922  42.106  0.00  0.00    +0.012 C 
ATOM      6  N   UNL     1      88.991  48.143  41.719  0.00  0.00    -0.296 N 
ATOM      7  C   UNL     1      89.057  49.253  42.696  0.00  0.00    +0.037 C 
ATOM      8  C   UNL     1      89.866  48.912  43.957  0.00  0.00    -0.045 C 
ATOM      9  C   UNL     1      90.236  47.914  40.968  0.00  0.00    -0.012 C 
ATOM     10  C   UNL     1      89.122  45.776  42.622  0.00  0.00    -0.049 C 
ATOM     11  C   UNL     1      85.369  49.000  43.554  0.00  0.00    -0.016 A 
ATOM     12  C   UNL     1      85.010  50.332  43.760  0.00  0.00    +0.128 A 
ATOM     13  C   UNL     1      85.974  51.352  43.608  0.00  0.00    +0.069 A 
ATOM     14  H   UNL     1      88.349  48.525  41.024  0.00  0.00    +0.000 HD
ENDROOT
BRANCH  13  15
ATOM     15  C   UNL     1      85.611  52.770  43.842  0.00  0.00    +0.034 A 
ATOM     16  C   UNL     1      85.144  53.564  42.770  0.00  0.00    -0.038 A 
ATOM     17  C   UNL     1      84.994  52.996  41.380  0.00  0.00    -0.039 C 
ATOM     18  C   UNL     1      84.795  54.897  43.001  0.00  0.00    -0.050 A 
ATOM     19  C   UNL     1      84.925  55.467  44.272  0.00  0.00    -0.011 A 
ATOM     20  C   UNL     1      85.406  54.691  45.360  0.00  0.00    +0.066 A 
ATOM     21  C   UNL     1      85.739  53.330  45.137  0.00  0.00    +0.136 A 
ATOM     22  C   UNL     1      85.531  55.302  46.638  0.00  0.00    +0.131 A 
ATOM     23  C   UNL     1      85.174  56.656  46.795  0.00  0.00    -0.019 A 
ATOM     24  C   UNL     1      84.703  57.399  45.717  0.00  0.00    -0.058 A 
ATOM     25  C   UNL     1      84.579  56.812  44.462  0.00  0.00    -0.054 A 
BRANCH  21  26
ATOM     26  O   UNL     1      86.183  52.540  46.203  0.00  0.00    -0.505 OA
ATOM     27  H   UNL     1      86.911  51.964  46.087  0.00  0.00    +0.000 HD
ENDBRANCH  21  26
BRANCH  22  28
ATOM     28  O   UNL     1      86.008  54.555  47.730  0.00  0.00    -0.494 OA
ATOM     29  C   UNL     1      85.215  54.113  48.827  0.00  0.00    +0.079 C 
ENDBRANCH  22  28
ENDBRANCH  13  15
BRANCH   1  31
ATOM     30  C   UNL     1      88.650  52.578  41.916  0.00  0.00    +0.079 C 
ATOM     31  O   UNL     1      88.284  52.002  43.164  0.00  0.00    -0.494 OA
ENDBRANCH   1  31
BRANCH  12  32
ATOM     32  O   UNL     1      83.696  50.612  44.139  0.00  0.00    -0.506 OA
ATOM     33  H   UNL     1      83.484  50.737  45.044  0.00  0.00    +0.000 HD
ENDBRANCH  12  32
TORSDOF 5
ENDMDL
MODEL 6
REMARK VINA RESULT:    -8.153      2.772      8.029
REMARK INTER + INTRA:         -10.805
REMARK INTER:                  -9.901
REMARK INTRA:                  -0.904
REMARK UNBOUND:                -0.745
REMARK  Name = 
REMARK  11 active torsions:
REMARK  status: ('A' for Active; 'I' for Inactive)
REMARK    1  A    between atoms: C_1  and  O_2
REMARK    2  A    between atoms: O_2  and  C_3
REMARK    3  A    between atoms: C_7  and  C_12
REMARK    4  A    between atoms: N_8  and  C_11
REMARK    5  A    between atoms: C_9  and  C_10
REMARK    6  A    between atoms: C_14  and  O_30
REMARK    7  A    between atoms: C_15  and  C_16
REMARK    8  A    between atoms: C_17  and  C_18
REMARK    9  A    between atoms: C_22  and  O_23
REMARK   10  A    between atoms: C_24  and  O_25
REMARK   11  A    between atoms: O_25  and  C_26
REMARK                            x       y       z     vdW  Elec       q    Type
REMARK                         _______ _______ _______ _____ _____    ______ ____
ROOT
ATOM      1  C   UNL     1      85.561  53.250  44.435  0.00  0.00    +0.136 A 
ATOM      2  C   UNL     1      85.397  54.511  45.043  0.00  0.00    +0.015 A 
ATOM      3  C   UNL     1      85.471  54.630  46.440  0.00  0.00    -0.034 A 
ATOM      4  C   UNL     1      85.153  55.947  47.100  0.00  0.00    -0.012 C 
ATOM      5  C   UNL     1      85.602  57.190  46.278  0.00  0.00    +0.012 C 
ATOM      6  N   UNL     1      85.871  56.885  44.844  0.00  0.00    -0.296 N 
ATOM      7  C   UNL     1      85.137  55.755  44.231  0.00  0.00    +0.037 C 
ATOM      8  C   UNL     1      83.627  56.008  44.094  0.00  0.00    -0.045 C 
ATOM      9  C   UNL     1      86.054  58.047  43.960  0.00  0.00    -0.012 C 
ATOM     10  C   UNL     1      84.609  58.353  46.483  0.00  0.00    -0.049 C 
ATOM     11  C   UNL     1      85.689  53.491  47.226  0.00  0.00    -0.016 A 
ATOM     12  C   UNL     1      85.853  52.238  46.636  0.00  0.00    +0.128 A 
ATOM     13  C   UNL     1      85.800  52.109  45.231  0.00  0.00    +0.069 A 
ATOM     14  H   UNL     1      86.808  56.491  44.933  0.00  0.00    +0.000 HD
ENDROOT
BRANCH  13  15
ATOM     15  C   UNL     1      85.954  50.780  44.592  0.00  0.00    +0.034 A 
ATOM     16  C   UNL     1      84.821  49.960  44.390  0.00  0.00    -0.038 A 
ATOM     17  C   UNL     1      83.442  50.411  44.803  0.00  0.00    -0.039 C 
ATOM     18  C   UNL     1      84.973  48.713  43.777  0.00  0.00    -0.050 A 
ATOM     19  C   UNL     1      86.234  48.251  43.385  0.00  0.00    -0.011 A 
ATOM     20  C   UNL     1      87.388  49.054  43.592  0.00  0.00    +0.066 A 
ATOM     21  C   UNL     1      87.236  50.331  44.190  0.00  0.00    +0.136 A 
ATOM     22  C   UNL     1      88.655  48.552  43.185  0.00  0.00    +0.131 A 
ATOM     23  C   UNL     1      88.736  47.279  42.588  0.00  0.00    -0.019 A 
ATOM     24  C   UNL     1      87.593  46.510  42.392  0.00  0.00    -0.058 A 
ATOM     25  C   UNL     1      86.349  46.989  42.787  0.00  0.00    -0.054 A 
BRANCH  21  26
ATOM     26  O   UNL     1      88.357  51.149  44.372  0.00  0.00    -0.505 OA
ATOM     27  H   UNL     1      89.208  50.835  44.144  0.00  0.00    +0.000 HD
ENDBRANCH  21  26
BRANCH  22  28
ATOM     28  O   UNL     1      89.813  49.327  43.383  0.00  0.00    -0.494 OA
ATOM     29  C   UNL     1      91.122  48.963  42.958  0.00  0.00    +0.079 C 
ENDBRANCH  22  28
ENDBRANCH  13  15
BRANCH   1  31
ATOM     30  C   UNL     1      86.563  53.317  42.180  0.00  0.00    +0.079 C 
ATOM     31  O   UNL     1      85.449  53.134  43.045  0.00  0.00    -0.494 OA
ENDBRANCH   1  31
BRANCH  12  32
ATOM     32  O   UNL     1      86.044  51.134  47.470  0.00  0.00    -0.506 OA
ATOM     33  H   UNL     1      86.088  51.250  48.399  0.00  0.00    +0.000 HD
ENDBRANCH  12  32
TORSDOF 5
ENDMDL
MODEL 7
REMARK VINA RESULT:    -8.117      2.325      7.590
REMARK INTER + INTRA:         -10.761
REMARK INTER:                 -10.352
REMARK INTRA:                  -0.409
REMARK UNBOUND:                -0.745
REMARK  Name = 
REMARK  11 active torsions:
REMARK  status: ('A' for Active; 'I' for Inactive)
REMARK    1  A    between atoms: C_1  and  O_2
REMARK    2  A    between atoms: O_2  and  C_3
REMARK    3  A    between atoms: C_7  and  C_12
REMARK    4  A    between atoms: N_8  and  C_11
REMARK    5  A    between atoms: C_9  and  C_10
REMARK    6  A    between atoms: C_14  and  O_30
REMARK    7  A    between atoms: C_15  and  C_16
REMARK    8  A    between atoms: C_17  and  C_18
REMARK    9  A    between atoms: C_22  and  O_23
REMARK   10  A    between atoms: C_24  and  O_25
REMARK   11  A    between atoms: O_25  and  C_26
REMARK                            x       y       z     vdW  Elec       q    Type
REMARK                         _______ _______ _______ _____ _____    ______ ____
ROOT
ATOM      1  C   UNL     1      86.811  50.921  44.306  0.00  0.00    +0.136 A 
ATOM      2  C   UNL     1      86.473  52.286  44.398  0.00  0.00    +0.015 A 
ATOM      3  C   UNL     1      86.506  53.094  43.250  0.00  0.00    -0.034 A 
ATOM      4  C   UNL     1      86.286  54.580  43.370  0.00  0.00    -0.012 C 
ATOM      5  C   UNL     1      85.254  54.980  44.465  0.00  0.00    +0.012 C 
ATOM      6  N   UNL     1      84.992  53.896  45.453  0.00  0.00    -0.296 N 
ATOM      7  C   UNL     1      86.075  52.919  45.708  0.00  0.00    +0.037 C 
ATOM      8  C   UNL     1      87.298  53.529  46.410  0.00  0.00    -0.045 C 
ATOM      9  C   UNL     1      84.226  54.284  46.649  0.00  0.00    -0.012 C 
ATOM     10  C   UNL     1      85.656  56.320  45.113  0.00  0.00    -0.049 C 
ATOM     11  C   UNL     1      86.893  52.544  42.021  0.00  0.00    -0.016 A 
ATOM     12  C   UNL     1      87.229  51.193  41.918  0.00  0.00    +0.128 A 
ATOM     13  C   UNL     1      87.181  50.367  43.061  0.00  0.00    +0.069 A 
ATOM     14  H   UNL     1      84.337  53.333  44.911  0.00  0.00    +0.000 HD
ENDROOT
BRANCH  13  15
ATOM     15  C   UNL     1      87.554  48.935  42.970  0.00  0.00    +0.034 A 
ATOM     16  C   UNL     1      88.902  48.571  42.752  0.00  0.00    -0.038 A 
ATOM     17  C   UNL     1      89.985  49.613  42.619  0.00  0.00    -0.039 C 
ATOM     18  C   UNL     1      89.248  47.219  42.677  0.00  0.00    -0.050 A 
ATOM     19  C   UNL     1      88.276  46.220  42.787  0.00  0.00    -0.011 A 
ATOM     20  C   UNL     1      86.913  46.564  42.993  0.00  0.00    +0.066 A 
ATOM     21  C   UNL     1      86.560  47.934  43.095  0.00  0.00    +0.136 A 
ATOM     22  C   UNL     1      85.949  45.523  43.097  0.00  0.00    +0.131 A 
ATOM     23  C   UNL     1      86.366  44.182  42.996  0.00  0.00    -0.019 A 
ATOM     24  C   UNL     1      87.707  43.865  42.798  0.00  0.00    -0.058 A 
ATOM     25  C   UNL     1      88.657  44.874  42.693  0.00  0.00    -0.054 A 
BRANCH  21  26
ATOM     26  O   UNL     1      85.228  48.292  43.329  0.00  0.00    -0.505 OA
ATOM     27  H   UNL     1      84.539  47.689  43.132  0.00  0.00    +0.000 HD
ENDBRANCH  21  26
BRANCH  22  28
ATOM     28  O   UNL     1      84.593  45.840  43.296  0.00  0.00    -0.494 OA
ATOM     29  C   UNL     1      83.676  45.062  44.059  0.00  0.00    +0.079 C 
ENDBRANCH  22  28
ENDBRANCH  13  15
BRANCH   1  31
ATOM     30  C   UNL     1      87.971  49.976  46.271  0.00  0.00    +0.079 C 
ATOM     31  O   UNL     1      86.811  50.131  45.461  0.00  0.00    -0.494 OA
ENDBRANCH   1  31
BRANCH  12  32
ATOM     32  O   UNL     1      87.630  50.705  40.673  0.00  0.00    -0.506 OA
ATOM     33  H   UNL     1      88.185  51.223  40.122  0.00  0.00    +0.000 HD
ENDBRANCH  12  32
TORSDOF 5
ENDMDL
MODEL 8
REMARK VINA RESULT:    -8.108      1.817      3.324
REMARK INTER + INTRA:         -10.749
REMARK INTER:                 -10.058
REMARK INTRA:                  -0.691
REMARK UNBOUND:                -0.745
REMARK  Name = 
REMARK  11 active torsions:
REMARK  status: ('A' for Active; 'I' for Inactive)
REMARK    1  A    between atoms: C_1  and  O_2
REMARK    2  A    between atoms: O_2  and  C_3
REMARK    3  A    between atoms: C_7  and  C_12
REMARK    4  A    between atoms: N_8  and  C_11
REMARK    5  A    between atoms: C_9  and  C_10
REMARK    6  A    between atoms: C_14  and  O_30
REMARK    7  A    between atoms: C_15  and  C_16
REMARK    8  A    between atoms: C_17  and  C_18
REMARK    9  A    between atoms: C_22  and  O_23
REMARK   10  A    between atoms: C_24  and  O_25
REMARK   11  A    between atoms: O_25  and  C_26
REMARK                            x       y       z     vdW  Elec       q    Type
REMARK                         _______ _______ _______ _____ _____    ______ ____
ROOT
ATOM      1  C   UNL     1      87.517  50.757  43.587  0.00  0.00    +0.136 A 
ATOM      2  C   UNL     1      87.810  49.414  43.272  0.00  0.00    +0.015 A 
ATOM      3  C   UNL     1      86.817  48.431  43.405  0.00  0.00    -0.034 A 
ATOM      4  C   UNL     1      87.166  46.978  43.208  0.00  0.00    -0.012 C 
ATOM      5  C   UNL     1      88.239  46.729  42.108  0.00  0.00    +0.012 C 
ATOM      6  N   UNL     1      89.014  47.951  41.752  0.00  0.00    -0.296 N 
ATOM      7  C   UNL     1      89.177  48.991  42.793  0.00  0.00    +0.037 C 
ATOM      8  C   UNL     1      90.052  48.545  43.974  0.00  0.00    -0.045 C 
ATOM      9  C   UNL     1      90.202  47.739  40.909  0.00  0.00    -0.012 C 
ATOM     10  C   UNL     1      89.126  45.527  42.490  0.00  0.00    -0.049 C 
ATOM     11  C   UNL     1      85.543  48.785  43.868  0.00  0.00    -0.016 A 
ATOM     12  C   UNL     1      85.241  50.110  44.183  0.00  0.00    +0.128 A 
ATOM     13  C   UNL     1      86.226  51.110  44.035  0.00  0.00    +0.069 A 
ATOM     14  H   UNL     1      88.343  48.396  41.126  0.00  0.00    +0.000 HD
ENDROOT
BRANCH  13  15
ATOM     15  C   UNL     1      85.924  52.519  44.383  0.00  0.00    +0.034 A 
ATOM     16  C   UNL     1      85.979  52.939  45.732  0.00  0.00    -0.038 A 
ATOM     17  C   UNL     1      86.350  51.981  46.837  0.00  0.00    -0.039 C 
ATOM     18  C   UNL     1      85.703  54.271  46.051  0.00  0.00    -0.050 A 
ATOM     19  C   UNL     1      85.348  55.191  45.060  0.00  0.00    -0.011 A 
ATOM     20  C   UNL     1      85.274  54.788  43.700  0.00  0.00    +0.066 A 
ATOM     21  C   UNL     1      85.577  53.442  43.367  0.00  0.00    +0.136 A 
ATOM     22  C   UNL     1      84.905  55.748  42.717  0.00  0.00    +0.131 A 
ATOM     23  C   UNL     1      84.626  57.070  43.113  0.00  0.00    -0.019 A 
ATOM     24  C   UNL     1      84.707  57.446  44.451  0.00  0.00    -0.058 A 
ATOM     25  C   UNL     1      85.064  56.516  45.420  0.00  0.00    -0.054 A 
BRANCH  21  26
ATOM     26  O   UNL     1      85.541  53.034  42.029  0.00  0.00    -0.505 OA
ATOM     27  H   UNL     1      85.104  52.240  41.793  0.00  0.00    +0.000 HD
ENDBRANCH  21  26
BRANCH  22  28
ATOM     28  O   UNL     1      84.821  55.371  41.365  0.00  0.00    -0.494 OA
ATOM     29  C   UNL     1      83.617  55.312  40.606  0.00  0.00    +0.079 C 
ENDBRANCH  22  28
ENDBRANCH  13  15
BRANCH   1  31
ATOM     30  C   UNL     1      88.883  52.313  42.243  0.00  0.00    +0.079 C 
ATOM     31  O   UNL     1      88.523  51.724  43.486  0.00  0.00    -0.494 OA
ENDBRANCH   1  31
BRANCH  12  32
ATOM     32  O   UNL     1      83.963  50.401  44.664  0.00  0.00    -0.506 OA
ATOM     33  H   UNL     1      83.413  51.003  44.202  0.00  0.00    +0.000 HD
ENDBRANCH  12  32
TORSDOF 5
ENDMDL
MODEL 9
REMARK VINA RESULT:    -7.967      2.290      4.453
REMARK INTER + INTRA:         -10.574
REMARK INTER:                  -9.829
REMARK INTRA:                  -0.745
REMARK UNBOUND:                -0.745
REMARK  Name = 
REMARK  11 active torsions:
REMARK  status: ('A' for Active; 'I' for Inactive)
REMARK    1  A    between atoms: C_1  and  O_2
REMARK    2  A    between atoms: O_2  and  C_3
REMARK    3  A    between atoms: C_7  and  C_12
REMARK    4  A    between atoms: N_8  and  C_11
REMARK    5  A    between atoms: C_9  and  C_10
REMARK    6  A    between atoms: C_14  and  O_30
REMARK    7  A    between atoms: C_15  and  C_16
REMARK    8  A    between atoms: C_17  and  C_18
REMARK    9  A    between atoms: C_22  and  O_23
REMARK   10  A    between atoms: C_24  and  O_25
REMARK   11  A    between atoms: O_25  and  C_26
REMARK                            x       y       z     vdW  Elec       q    Type
REMARK                         _______ _______ _______ _____ _____    ______ ____
ROOT
ATOM      1  C   UNL     1      85.085  50.932  43.720  0.00  0.00    +0.136 A 
ATOM      2  C   UNL     1      84.864  49.539  43.712  0.00  0.00    +0.015 A 
ATOM      3  C   UNL     1      83.571  49.037  43.490  0.00  0.00    -0.034 A 
ATOM      4  C   UNL     1      83.307  47.559  43.624  0.00  0.00    -0.012 C 
ATOM      5  C   UNL     1      84.486  46.661  43.151  0.00  0.00    +0.012 C 
ATOM      6  N   UNL     1      85.782  47.390  43.052  0.00  0.00    -0.296 N 
ATOM      7  C   UNL     1      85.985  48.557  43.941  0.00  0.00    +0.037 C 
ATOM      8  C   UNL     1      86.086  48.185  45.428  0.00  0.00    -0.045 C 
ATOM      9  C   UNL     1      86.979  46.555  42.856  0.00  0.00    -0.012 C 
ATOM     10  C   UNL     1      84.563  45.383  44.013  0.00  0.00    -0.049 C 
ATOM     11  C   UNL     1      82.504  49.922  43.296  0.00  0.00    -0.016 A 
ATOM     12  C   UNL     1      82.710  51.302  43.302  0.00  0.00    +0.128 A 
ATOM     13  C   UNL     1      84.007  51.818  43.504  0.00  0.00    +0.069 A 
ATOM     14  H   UNL     1      85.647  47.845  42.150  0.00  0.00    +0.000 HD
ENDROOT
BRANCH  13  15
ATOM     15  C   UNL     1      84.238  53.282  43.531  0.00  0.00    +0.034 A 
ATOM     16  C   UNL     1      84.336  54.002  42.319  0.00  0.00    -0.038 A 
ATOM     17  C   UNL     1      84.201  53.313  40.984  0.00  0.00    -0.039 C 
ATOM     18  C   UNL     1      84.543  55.384  42.352  0.00  0.00    -0.050 A 
ATOM     19  C   UNL     1      84.682  56.063  43.567  0.00  0.00    -0.011 A 
ATOM     20  C   UNL     1      84.600  55.356  44.797  0.00  0.00    +0.066 A 
ATOM     21  C   UNL     1      84.365  53.958  44.770  0.00  0.00    +0.136 A 
ATOM     22  C   UNL     1      84.750  56.076  46.014  0.00  0.00    +0.131 A 
ATOM     23  C   UNL     1      84.972  57.467  45.973  0.00  0.00    -0.019 A 
ATOM     24  C   UNL     1      85.046  58.141  44.758  0.00  0.00    -0.058 A 
ATOM     25  C   UNL     1      84.903  57.447  43.561  0.00  0.00    -0.054 A 
BRANCH  21  26
ATOM     26  O   UNL     1      84.249  53.250  45.971  0.00  0.00    -0.505 OA
ATOM     27  H   UNL     1      83.421  53.197  46.406  0.00  0.00    +0.000 HD
ENDBRANCH  21  26
BRANCH  22  28
ATOM     28  O   UNL     1      84.677  55.398  47.245  0.00  0.00    -0.494 OA
ATOM     29  C   UNL     1      83.729  55.670  48.272  0.00  0.00    +0.079 C 
ENDBRANCH  22  28
ENDBRANCH  13  15
BRANCH   1  31
ATOM     30  C   UNL     1      87.297  51.697  42.935  0.00  0.00    +0.079 C 
ATOM     31  O   UNL     1      86.369  51.425  43.978  0.00  0.00    -0.494 OA
ENDBRANCH   1  31
BRANCH  12  32
ATOM     32  O   UNL     1      81.604  52.136  43.127  0.00  0.00    -0.506 OA
ATOM     33  H   UNL     1      81.627  53.019  43.442  0.00  0.00    +0.000 HD
ENDBRANCH  12  32
TORSDOF 5
ENDMDL
