MODEL 1
REMARK VINA RESULT:    -9.267      0.000      0.000
REMARK INTER + INTRA:         -12.907
REMARK INTER:                 -11.724
REMARK INTRA:                  -1.183
REMARK UNBOUND:                -1.202
REMARK  Name = 
REMARK  11 active torsions:
REMARK  status: ('A' for Active; 'I' for Inactive)
REMARK    1  A    between atoms: C_1  and  O_2
REMARK    2  A    between atoms: O_2  and  C_3
REMARK    3  A    between atoms: C_5  and  O_6
REMARK    4  A    between atoms: C_7  and  C_16
REMARK    5  A    between atoms: C_10  and  C_11
REMARK    6  A    between atoms: C_13  and  C_15
REMARK    7  A    between atoms: C_19  and  O_29
REMARK    8  A    between atoms: C_23  and  C_24
REMARK    9  A    between atoms: C_26  and  O_27
REMARK   10  A    between atoms: O_27  and  C_28
REMARK   11  A    between atoms: O_29  and  C_30
REMARK                            x       y       z     vdW  Elec       q    Type
REMARK                         _______ _______ _______ _____ _____    ______ ____
ROOT
ATOM      1  C   UNL     1      85.854  55.309  44.295  0.00  0.00    +0.128 A 
ATOM      2  C   UNL     1      86.245  54.479  43.232  0.00  0.00    +0.022 A 
ATOM      3  C   UNL     1      86.128  53.094  43.323  0.00  0.00    +0.128 A 
ATOM      4  C   UNL     1      85.606  52.508  44.491  0.00  0.00    +0.028 A 
ATOM      5  C   UNL     1      85.224  53.325  45.583  0.00  0.00    -0.027 A 
ATOM      6  C   UNL     1      85.344  54.733  45.478  0.00  0.00    +0.015 A 
ATOM      7  C   UNL     1      84.973  55.638  46.649  0.00  0.00    +0.034 C 
ATOM      8  C   UNL     1      86.228  56.187  47.344  0.00  0.00    -0.045 C 
ATOM      9  N   UNL     1      84.089  54.976  47.625  0.00  0.00    -0.307 N 
ATOM     10  C   UNL     1      84.582  53.646  48.011  0.00  0.00    +0.009 C 
ATOM     11  C   UNL     1      84.582  52.701  46.804  0.00  0.00    -0.011 C 
ATOM     12  C   UNL     1      83.716  53.084  49.141  0.00  0.00    -0.049 C 
ATOM     13  H   UNL     1      83.162  54.876  47.213  0.00  0.00    +0.000 HD
ATOM     14  H   UNL     1      84.063  55.554  48.464  0.00  0.00    +0.000 HD
ENDROOT
BRANCH   4  15
ATOM     15  C   UNL     1      85.455  51.034  44.565  0.00  0.00    -0.006 A 
ATOM     16  C   UNL     1      86.535  50.288  45.039  0.00  0.00    -0.050 A 
ATOM     17  C   UNL     1      86.456  48.904  45.128  0.00  0.00    -0.019 A 
ATOM     18  C   UNL     1      85.290  48.220  44.742  0.00  0.00    +0.131 A 
ATOM     19  C   UNL     1      84.176  48.956  44.254  0.00  0.00    +0.066 A 
ATOM     20  C   UNL     1      84.264  50.377  44.170  0.00  0.00    -0.003 A 
ATOM     21  C   UNL     1      83.165  51.113  43.686  0.00  0.00    -0.050 A 
ATOM     22  C   UNL     1      81.986  50.474  43.302  0.00  0.00    -0.046 A 
ATOM     23  C   UNL     1      80.841  51.275  42.752  0.00  0.00    -0.040 C 
ATOM     24  C   UNL     1      81.902  49.082  43.365  0.00  0.00    -0.016 A 
ATOM     25  C   UNL     1      82.978  48.311  43.841  0.00  0.00    +0.132 A 
BRANCH  25  26
ATOM     26  O   UNL     1      82.878  46.909  43.909  0.00  0.00    -0.494 OA
ATOM     27  C   UNL     1      81.724  46.189  44.332  0.00  0.00    +0.079 C 
ENDBRANCH  25  26
BRANCH  18  28
ATOM     28  O   UNL     1      85.221  46.819  44.836  0.00  0.00    -0.494 OA
ATOM     29  C   UNL     1      86.038  45.908  44.108  0.00  0.00    +0.079 C 
ENDBRANCH  18  28
ENDBRANCH   4  15
BRANCH   1  31
ATOM     30  C   UNL     1      84.961  57.561  43.650  0.00  0.00    +0.079 C 
ATOM     31  O   UNL     1      85.955  56.708  44.207  0.00  0.00    -0.495 OA
ENDBRANCH   1  31
BRANCH   3  32
ATOM     32  O   UNL     1      86.536  52.325  42.230  0.00  0.00    -0.506 OA
ATOM     33  H   UNL     1      87.142  52.678  41.608  0.00  0.00    +0.000 HD
ENDBRANCH   3  32
TORSDOF 5
ENDMDL
MODEL 2
REMARK VINA RESULT:    -8.876      1.456      1.680
REMARK INTER + INTRA:         -12.413
REMARK INTER:                 -11.110
REMARK INTRA:                  -1.303
REMARK UNBOUND:                -1.202
REMARK  Name = 
REMARK  11 active torsions:
REMARK  status: ('A' for Active; 'I' for Inactive)
REMARK    1  A    between atoms: C_1  and  O_2
REMARK    2  A    between atoms: O_2  and  C_3
REMARK    3  A    between atoms: C_5  and  O_6
REMARK    4  A    between atoms: C_7  and  C_16
REMARK    5  A    between atoms: C_10  and  C_11
REMARK    6  A    between atoms: C_13  and  C_15
REMARK    7  A    between atoms: C_19  and  O_29
REMARK    8  A    between atoms: C_23  and  C_24
REMARK    9  A    between atoms: C_26  and  O_27
REMARK   10  A    between atoms: O_27  and  C_28
REMARK   11  A    between atoms: O_29  and  C_30
REMARK                            x       y       z     vdW  Elec       q    Type
REMARK                         _______ _______ _______ _____ _____    ______ ____
ROOT
ATOM      1  C   UNL     1      84.612  54.977  44.488  0.00  0.00    +0.128 A 
ATOM      2  C   UNL     1      84.694  54.418  43.204  0.00  0.00    +0.022 A 
ATOM      3  C   UNL     1      85.110  53.102  43.019  0.00  0.00    +0.128 A 
ATOM      4  C   UNL     1      85.450  52.309  44.132  0.00  0.00    +0.028 A 
ATOM      5  C   UNL     1      85.394  52.860  45.435  0.00  0.00    -0.027 A 
ATOM      6  C   UNL     1      84.965  54.199  45.612  0.00  0.00    +0.015 A 
ATOM      7  C   UNL     1      84.927  54.831  47.000  0.00  0.00    +0.034 C 
ATOM      8  C   UNL     1      86.093  55.813  47.194  0.00  0.00    -0.045 C 
ATOM      9  N   UNL     1      84.908  53.831  48.082  0.00  0.00    -0.307 N 
ATOM     10  C   UNL     1      85.940  52.799  47.907  0.00  0.00    +0.009 C 
ATOM     11  C   UNL     1      85.675  51.982  46.637  0.00  0.00    -0.011 C 
ATOM     12  C   UNL     1      85.975  51.892  49.139  0.00  0.00    -0.049 C 
ATOM     13  H   UNL     1      83.993  53.381  48.096  0.00  0.00    +0.000 HD
ATOM     14  H   UNL     1      85.097  54.316  48.959  0.00  0.00    +0.000 HD
ENDROOT
BRANCH   4  15
ATOM     15  C   UNL     1      85.860  50.898  43.928  0.00  0.00    -0.006 A 
ATOM     16  C   UNL     1      87.216  50.633  43.736  0.00  0.00    -0.050 A 
ATOM     17  C   UNL     1      87.662  49.332  43.535  0.00  0.00    -0.019 A 
ATOM     18  C   UNL     1      86.761  48.253  43.518  0.00  0.00    +0.131 A 
ATOM     19  C   UNL     1      85.373  48.497  43.709  0.00  0.00    +0.066 A 
ATOM     20  C   UNL     1      84.925  49.835  43.918  0.00  0.00    -0.003 A 
ATOM     21  C   UNL     1      83.551  50.085  44.108  0.00  0.00    -0.050 A 
ATOM     22  C   UNL     1      82.625  49.042  44.108  0.00  0.00    -0.046 A 
ATOM     23  C   UNL     1      81.161  49.336  44.271  0.00  0.00    -0.040 C 
ATOM     24  C   UNL     1      83.057  47.734  43.884  0.00  0.00    -0.016 A 
ATOM     25  C   UNL     1      84.420  47.442  43.690  0.00  0.00    +0.132 A 
BRANCH  25  26
ATOM     26  O   UNL     1      84.844  46.118  43.475  0.00  0.00    -0.494 OA
ATOM     27  C   UNL     1      84.485  45.001  44.283  0.00  0.00    +0.079 C 
ENDBRANCH  25  26
BRANCH  18  28
ATOM     28  O   UNL     1      87.222  46.941  43.314  0.00  0.00    -0.494 OA
ATOM     29  C   UNL     1      88.160  46.548  42.317  0.00  0.00    +0.079 C 
ENDBRANCH  18  28
ENDBRANCH   4  15
BRANCH   1  31
ATOM     30  C   UNL     1      84.729  57.440  44.032  0.00  0.00    +0.079 C 
ATOM     31  O   UNL     1      84.180  56.300  44.686  0.00  0.00    -0.495 OA
ENDBRANCH   1  31
BRANCH   3  32
ATOM     32  O   UNL     1      85.170  52.605  41.714  0.00  0.00    -0.506 OA
ATOM     33  H   UNL     1      85.777  52.973  41.100  0.00  0.00    +0.000 HD
ENDBRANCH   3  32
TORSDOF 5
ENDMDL
MODEL 3
REMARK VINA RESULT:    -8.861      2.329      7.296
REMARK INTER + INTRA:         -12.394
REMARK INTER:                 -11.121
REMARK INTRA:                  -1.272
REMARK UNBOUND:                -1.202
REMARK  Name = 
REMARK  11 active torsions:
REMARK  status: ('A' for Active; 'I' for Inactive)
REMARK    1  A    between atoms: C_1  and  O_2
REMARK    2  A    between atoms: O_2  and  C_3
REMARK    3  A    between atoms: C_5  and  O_6
REMARK    4  A    between atoms: C_7  and  C_16
REMARK    5  A    between atoms: C_10  and  C_11
REMARK    6  A    between atoms: C_13  and  C_15
REMARK    7  A    between atoms: C_19  and  O_29
REMARK    8  A    between atoms: C_23  and  C_24
REMARK    9  A    between atoms: C_26  and  O_27
REMARK   10  A    between atoms: O_27  and  C_28
REMARK   11  A    between atoms: O_29  and  C_30
REMARK                            x       y       z     vdW  Elec       q    Type
REMARK                         _______ _______ _______ _____ _____    ______ ____
ROOT
ATOM      1  C   UNL     1      86.436  47.587  43.622  0.00  0.00    +0.128 A 
ATOM      2  C   UNL     1      87.395  48.609  43.535  0.00  0.00    +0.022 A 
ATOM      3  C   UNL     1      87.028  49.948  43.645  0.00  0.00    +0.128 A 
ATOM      4  C   UNL     1      85.679  50.293  43.852  0.00  0.00    +0.028 A 
ATOM      5  C   UNL     1      84.693  49.279  43.922  0.00  0.00    -0.027 A 
ATOM      6  C   UNL     1      85.078  47.919  43.813  0.00  0.00    +0.015 A 
ATOM      7  C   UNL     1      84.034  46.807  43.850  0.00  0.00    +0.034 C 
ATOM      8  C   UNL     1      83.794  46.225  42.449  0.00  0.00    -0.045 C 
ATOM      9  N   UNL     1      82.763  47.236  44.458  0.00  0.00    -0.307 N 
ATOM     10  C   UNL     1      82.280  48.509  43.901  0.00  0.00    +0.009 C 
ATOM     11  C   UNL     1      83.256  49.644  44.232  0.00  0.00    -0.011 C 
ATOM     12  C   UNL     1      80.885  48.815  44.450  0.00  0.00    -0.049 C 
ATOM     13  H   UNL     1      82.900  47.348  45.462  0.00  0.00    +0.000 HD
ATOM     14  H   UNL     1      82.063  46.522  44.255  0.00  0.00    +0.000 HD
ENDROOT
BRANCH   4  15
ATOM     15  C   UNL     1      85.303  51.720  44.000  0.00  0.00    -0.006 A 
ATOM     16  C   UNL     1      84.894  52.411  42.859  0.00  0.00    -0.050 A 
ATOM     17  C   UNL     1      84.533  53.750  42.933  0.00  0.00    -0.019 A 
ATOM     18  C   UNL     1      84.573  54.444  44.156  0.00  0.00    +0.131 A 
ATOM     19  C   UNL     1      84.988  53.764  45.333  0.00  0.00    +0.066 A 
ATOM     20  C   UNL     1      85.353  52.387  45.248  0.00  0.00    -0.003 A 
ATOM     21  C   UNL     1      85.766  51.706  46.410  0.00  0.00    -0.050 A 
ATOM     22  C   UNL     1      85.810  52.354  47.645  0.00  0.00    -0.046 A 
ATOM     23  C   UNL     1      86.293  51.620  48.863  0.00  0.00    -0.040 C 
ATOM     24  C   UNL     1      85.473  53.706  47.729  0.00  0.00    -0.016 A 
ATOM     25  C   UNL     1      85.056  54.422  46.591  0.00  0.00    +0.132 A 
BRANCH  25  26
ATOM     26  O   UNL     1      84.709  55.782  46.690  0.00  0.00    -0.494 OA
ATOM     27  C   UNL     1      83.729  56.315  47.576  0.00  0.00    +0.079 C 
ENDBRANCH  25  26
BRANCH  18  28
ATOM     28  O   UNL     1      84.206  55.800  44.220  0.00  0.00    -0.494 OA
ATOM     29  C   UNL     1      84.621  56.805  43.300  0.00  0.00    +0.079 C 
ENDBRANCH  18  28
ENDBRANCH   4  15
BRANCH   1  31
ATOM     30  C   UNL     1      87.665  45.692  42.535  0.00  0.00    +0.079 C 
ATOM     31  O   UNL     1      86.798  46.232  43.526  0.00  0.00    -0.495 OA
ENDBRANCH   1  31
BRANCH   3  32
ATOM     32  O   UNL     1      88.031  50.917  43.549  0.00  0.00    -0.506 OA
ATOM     33  H   UNL     1      87.802  51.825  43.507  0.00  0.00    +0.000 HD
ENDBRANCH   3  32
TORSDOF 5
ENDMDL
MODEL 4
REMARK VINA RESULT:    -8.843      1.087      2.905
REMARK INTER + INTRA:         -12.371
REMARK INTER:                 -11.253
REMARK INTRA:                  -1.119
REMARK UNBOUND:                -1.202
REMARK  Name = 
REMARK  11 active torsions:
REMARK  status: ('A' for Active; 'I' for Inactive)
REMARK    1  A    between atoms: C_1  and  O_2
REMARK    2  A    between atoms: O_2  and  C_3
REMARK    3  A    between atoms: C_5  and  O_6
REMARK    4  A    between atoms: C_7  and  C_16
REMARK    5  A    between atoms: C_10  and  C_11
REMARK    6  A    between atoms: C_13  and  C_15
REMARK    7  A    between atoms: C_19  and  O_29
REMARK    8  A    between atoms: C_23  and  C_24
REMARK    9  A    between atoms: C_26  and  O_27
REMARK   10  A    between atoms: O_27  and  C_28
REMARK   11  A    between atoms: O_29  and  C_30
REMARK                            x       y       z     vdW  Elec       q    Type
REMARK                         _______ _______ _______ _____ _____    ______ ____
ROOT
ATOM      1  C   UNL     1      85.262  55.230  43.621  0.00  0.00    +0.128 A 
ATOM      2  C   UNL     1      85.056  54.477  42.454  0.00  0.00    +0.022 A 
ATOM      3  C   UNL     1      84.604  53.162  42.519  0.00  0.00    +0.128 A 
ATOM      4  C   UNL     1      84.340  52.570  43.770  0.00  0.00    +0.028 A 
ATOM      5  C   UNL     1      84.560  53.305  44.960  0.00  0.00    -0.027 A 
ATOM      6  C   UNL     1      85.017  54.644  44.881  0.00  0.00    +0.015 A 
ATOM      7  C   UNL     1      85.296  55.450  46.146  0.00  0.00    +0.034 C 
ATOM      8  C   UNL     1      86.806  55.585  46.396  0.00  0.00    -0.045 C 
ATOM      9  N   UNL     1      84.622  54.898  47.335  0.00  0.00    -0.307 N 
ATOM     10  C   UNL     1      84.832  53.450  47.473  0.00  0.00    +0.009 C 
ATOM     11  C   UNL     1      84.194  52.700  46.299  0.00  0.00    -0.011 C 
ATOM     12  C   UNL     1      84.250  52.970  48.805  0.00  0.00    -0.049 C 
ATOM     13  H   UNL     1      83.622  55.079  47.259  0.00  0.00    +0.000 HD
ATOM     14  H   UNL     1      85.021  55.351  48.157  0.00  0.00    +0.000 HD
ENDROOT
BRANCH   4  15
ATOM     15  C   UNL     1      83.827  51.180  43.827  0.00  0.00    -0.006 A 
ATOM     16  C   UNL     1      82.446  50.989  43.764  0.00  0.00    -0.050 A 
ATOM     17  C   UNL     1      81.904  49.711  43.817  0.00  0.00    -0.019 A 
ATOM     18  C   UNL     1      82.730  48.579  43.938  0.00  0.00    +0.131 A 
ATOM     19  C   UNL     1      84.140  48.746  44.007  0.00  0.00    +0.066 A 
ATOM     20  C   UNL     1      84.688  50.062  43.947  0.00  0.00    -0.003 A 
ATOM     21  C   UNL     1      86.084  50.236  44.015  0.00  0.00    -0.050 A 
ATOM     22  C   UNL     1      86.940  49.139  44.125  0.00  0.00    -0.046 A 
ATOM     23  C   UNL     1      88.423  49.351  44.237  0.00  0.00    -0.040 C 
ATOM     24  C   UNL     1      86.407  47.852  44.203  0.00  0.00    -0.016 A 
ATOM     25  C   UNL     1      85.018  47.636  44.140  0.00  0.00    +0.132 A 
BRANCH  25  26
ATOM     26  O   UNL     1      84.493  46.332  44.210  0.00  0.00    -0.494 OA
ATOM     27  C   UNL     1      85.199  45.189  44.680  0.00  0.00    +0.079 C 
ENDBRANCH  25  26
BRANCH  18  28
ATOM     28  O   UNL     1      82.171  47.290  43.992  0.00  0.00    -0.494 OA
ATOM     29  C   UNL     1      80.862  46.984  44.462  0.00  0.00    +0.079 C 
ENDBRANCH  18  28
ENDBRANCH   4  15
BRANCH   1  31
ATOM     30  C   UNL     1      84.862  57.704  43.672  0.00  0.00    +0.079 C 
ATOM     31  O   UNL     1      85.705  56.563  43.564  0.00  0.00    -0.495 OA
ENDBRANCH   1  31
BRANCH   3  32
ATOM     32  O   UNL     1      84.419  52.467  41.321  0.00  0.00    -0.506 OA
ATOM     33  H   UNL     1      85.045  52.554  40.628  0.00  0.00    +0.000 HD
ENDBRANCH   3  32
TORSDOF 5
ENDMDL
MODEL 5
REMARK VINA RESULT:    -8.714      3.190      8.043
REMARK INTER + INTRA:         -12.208
REMARK INTER:                 -11.054
REMARK INTRA:                  -1.154
REMARK UNBOUND:                -1.202
REMARK  Name = 
REMARK  11 active torsions:
REMARK  status: ('A' for Active; 'I' for Inactive)
REMARK    1  A    between atoms: C_1  and  O_2
REMARK    2  A    between atoms: O_2  and  C_3
REMARK    3  A    between atoms: C_5  and  O_6
REMARK    4  A    between atoms: C_7  and  C_16
REMARK    5  A    between atoms: C_10  and  C_11
REMARK    6  A    between atoms: C_13  and  C_15
REMARK    7  A    between atoms: C_19  and  O_29
REMARK    8  A    between atoms: C_23  and  C_24
REMARK    9  A    between atoms: C_26  and  O_27
REMARK   10  A    between atoms: O_27  and  C_28
REMARK   11  A    between atoms: O_29  and  C_30
REMARK                            x       y       z     vdW  Elec       q    Type
REMARK                         _______ _______ _______ _____ _____    ______ ____
ROOT
ATOM      1  C   UNL     1      87.819  45.360  43.136  0.00  0.00    +0.128 A 
ATOM      2  C   UNL     1      88.868  46.238  42.825  0.00  0.00    +0.022 A 
ATOM      3  C   UNL     1      88.657  47.613  42.754  0.00  0.00    +0.128 A 
ATOM      4  C   UNL     1      87.376  48.141  43.003  0.00  0.00    +0.028 A 
ATOM      5  C   UNL     1      86.298  47.271  43.299  0.00  0.00    -0.027 A 
ATOM      6  C   UNL     1      86.525  45.874  43.372  0.00  0.00    +0.015 A 
ATOM      7  C   UNL     1      85.378  44.910  43.655  0.00  0.00    +0.034 C 
ATOM      8  C   UNL     1      84.953  44.165  42.381  0.00  0.00    -0.045 C 
ATOM      9  N   UNL     1      84.218  45.570  44.280  0.00  0.00    -0.307 N 
ATOM     10  C   UNL     1      83.825  46.796  43.571  0.00  0.00    +0.009 C 
ATOM     11  C   UNL     1      84.942  47.845  43.652  0.00  0.00    -0.011 C 
ATOM     12  C   UNL     1      82.525  47.341  44.166  0.00  0.00    -0.049 C 
ATOM     13  H   UNL     1      84.455  45.808  45.243  0.00  0.00    +0.000 HD
ATOM     14  H   UNL     1      83.432  44.922  44.240  0.00  0.00    +0.000 HD
ENDROOT
BRANCH   4  15
ATOM     15  C   UNL     1      87.168  49.609  42.958  0.00  0.00    -0.006 A 
ATOM     16  C   UNL     1      86.954  50.201  41.712  0.00  0.00    -0.050 A 
ATOM     17  C   UNL     1      86.757  51.572  41.605  0.00  0.00    -0.019 A 
ATOM     18  C   UNL     1      86.770  52.397  42.743  0.00  0.00    +0.131 A 
ATOM     19  C   UNL     1      86.988  51.819  44.023  0.00  0.00    +0.066 A 
ATOM     20  C   UNL     1      87.186  50.409  44.125  0.00  0.00    -0.003 A 
ATOM     21  C   UNL     1      87.403  49.829  45.391  0.00  0.00    -0.050 A 
ATOM     22  C   UNL     1      87.414  50.610  46.546  0.00  0.00    -0.046 A 
ATOM     23  C   UNL     1      87.688  49.976  47.880  0.00  0.00    -0.040 C 
ATOM     24  C   UNL     1      87.241  51.992  46.449  0.00  0.00    -0.016 A 
ATOM     25  C   UNL     1      87.022  52.610  45.204  0.00  0.00    +0.132 A 
BRANCH  25  26
ATOM     26  O   UNL     1      86.838  54.002  45.120  0.00  0.00    -0.494 OA
ATOM     27  C   UNL     1      86.507  54.853  46.213  0.00  0.00    +0.079 C 
ENDBRANCH  25  26
BRANCH  18  28
ATOM     28  O   UNL     1      86.570  53.784  42.623  0.00  0.00    -0.494 OA
ATOM     29  C   UNL     1      85.390  54.400  42.117  0.00  0.00    +0.079 C 
ENDBRANCH  18  28
ENDBRANCH   4  15
BRANCH   1  31
ATOM     30  C   UNL     1      88.677  43.315  44.305  0.00  0.00    +0.079 C 
ATOM     31  O   UNL     1      88.025  43.973  43.223  0.00  0.00    -0.495 OA
ENDBRANCH   1  31
BRANCH   3  32
ATOM     32  O   UNL     1      89.744  48.433  42.439  0.00  0.00    -0.506 OA
ATOM     33  H   UNL     1      90.571  48.050  42.216  0.00  0.00    +0.000 HD
ENDBRANCH   3  32
TORSDOF 5
ENDMDL
MODEL 6
REMARK VINA RESULT:    -8.679      2.194      3.644
REMARK INTER + INTRA:         -12.164
REMARK INTER:                 -11.176
REMARK INTRA:                  -0.989
REMARK UNBOUND:                -1.202
REMARK  Name = 
REMARK  11 active torsions:
REMARK  status: ('A' for Active; 'I' for Inactive)
REMARK    1  A    between atoms: C_1  and  O_2
REMARK    2  A    between atoms: O_2  and  C_3
REMARK    3  A    between atoms: C_5  and  O_6
REMARK    4  A    between atoms: C_7  and  C_16
REMARK    5  A    between atoms: C_10  and  C_11
REMARK    6  A    between atoms: C_13  and  C_15
REMARK    7  A    between atoms: C_19  and  O_29
REMARK    8  A    between atoms: C_23  and  C_24
REMARK    9  A    between atoms: C_26  and  O_27
REMARK   10  A    between atoms: O_27  and  C_28
REMARK   11  A    between atoms: O_29  and  C_30
REMARK                            x       y       z     vdW  Elec       q    Type
REMARK                         _______ _______ _______ _____ _____    ______ ____
ROOT
ATOM      1  C   UNL     1      84.524  54.834  44.270  0.00  0.00    +0.128 A 
ATOM      2  C   UNL     1      84.442  54.212  43.015  0.00  0.00    +0.022 A 
ATOM      3  C   UNL     1      84.764  52.866  42.858  0.00  0.00    +0.128 A 
ATOM      4  C   UNL     1      85.173  52.107  43.972  0.00  0.00    +0.028 A 
ATOM      5  C   UNL     1      85.282  52.720  45.243  0.00  0.00    -0.027 A 
ATOM      6  C   UNL     1      84.949  54.089  45.392  0.00  0.00    +0.015 A 
ATOM      7  C   UNL     1      85.089  54.786  46.741  0.00  0.00    +0.034 C 
ATOM      8  C   UNL     1      86.320  55.704  46.766  0.00  0.00    -0.045 C 
ATOM      9  N   UNL     1      85.126  53.841  47.871  0.00  0.00    -0.307 N 
ATOM     10  C   UNL     1      86.077  52.742  47.648  0.00  0.00    +0.009 C 
ATOM     11  C   UNL     1      85.637  51.884  46.456  0.00  0.00    -0.011 C 
ATOM     12  C   UNL     1      86.189  51.892  48.916  0.00  0.00    -0.049 C 
ATOM     13  H   UNL     1      84.194  53.447  48.001  0.00  0.00    +0.000 HD
ATOM     14  H   UNL     1      85.431  54.354  48.697  0.00  0.00    +0.000 HD
ENDROOT
BRANCH   4  15
ATOM     15  C   UNL     1      85.481  50.666  43.802  0.00  0.00    -0.006 A 
ATOM     16  C   UNL     1      84.539  49.738  44.248  0.00  0.00    -0.050 A 
ATOM     17  C   UNL     1      84.771  48.375  44.120  0.00  0.00    -0.019 A 
ATOM     18  C   UNL     1      85.959  47.895  43.541  0.00  0.00    +0.131 A 
ATOM     19  C   UNL     1      86.936  48.818  43.081  0.00  0.00    +0.066 A 
ATOM     20  C   UNL     1      86.688  50.217  43.212  0.00  0.00    -0.003 A 
ATOM     21  C   UNL     1      87.651  51.139  42.758  0.00  0.00    -0.050 A 
ATOM     22  C   UNL     1      88.839  50.705  42.169  0.00  0.00    -0.046 A 
ATOM     23  C   UNL     1      89.870  51.705  41.729  0.00  0.00    -0.040 C 
ATOM     24  C   UNL     1      89.095  49.337  42.056  0.00  0.00    -0.016 A 
ATOM     25  C   UNL     1      88.159  48.384  42.498  0.00  0.00    +0.132 A 
BRANCH  25  26
ATOM     26  O   UNL     1      88.424  47.009  42.369  0.00  0.00    -0.494 OA
ATOM     27  C   UNL     1      89.704  46.403  42.520  0.00  0.00    +0.079 C 
ENDBRANCH  25  26
BRANCH  18  28
ATOM     28  O   UNL     1      86.185  46.512  43.417  0.00  0.00    -0.494 OA
ATOM     29  C   UNL     1      85.809  45.531  44.379  0.00  0.00    +0.079 C 
ENDBRANCH  18  28
ENDBRANCH   4  15
BRANCH   1  31
ATOM     30  C   UNL     1      84.779  57.267  43.723  0.00  0.00    +0.079 C 
ATOM     31  O   UNL     1      84.189  56.188  44.440  0.00  0.00    -0.495 OA
ENDBRANCH   1  31
BRANCH   3  32
ATOM     32  O   UNL     1      84.661  52.306  41.582  0.00  0.00    -0.506 OA
ATOM     33  H   UNL     1      85.404  51.886  41.194  0.00  0.00    +0.000 HD
ENDBRANCH   3  32
TORSDOF 5
ENDMDL
MODEL 7
REMARK VINA RESULT:    -8.498      3.159      7.758
REMARK INTER + INTRA:         -11.935
REMARK INTER:                 -10.673
REMARK INTRA:                  -1.262
REMARK UNBOUND:                -1.202
REMARK  Name = 
REMARK  11 active torsions:
REMARK  status: ('A' for Active; 'I' for Inactive)
REMARK    1  A    between atoms: C_1  and  O_2
REMARK    2  A    between atoms: O_2  and  C_3
REMARK    3  A    between atoms: C_5  and  O_6
REMARK    4  A    between atoms: C_7  and  C_16
REMARK    5  A    between atoms: C_10  and  C_11
REMARK    6  A    between atoms: C_13  and  C_15
REMARK    7  A    between atoms: C_19  and  O_29
REMARK    8  A    between atoms: C_23  and  C_24
REMARK    9  A    between atoms: C_26  and  O_27
REMARK   10  A    between atoms: O_27  and  C_28
REMARK   11  A    between atoms: O_29  and  C_30
REMARK                            x       y       z     vdW  Elec       q    Type
REMARK                         _______ _______ _______ _____ _____    ______ ____
ROOT
ATOM      1  C   UNL     1      86.731  46.539  42.773  0.00  0.00    +0.128 A 
ATOM      2  C   UNL     1      85.536  46.723  43.487  0.00  0.00    +0.022 A 
ATOM      3  C   UNL     1      85.150  47.987  43.926  0.00  0.00    +0.128 A 
ATOM      4  C   UNL     1      85.959  49.105  43.650  0.00  0.00    +0.028 A 
ATOM      5  C   UNL     1      87.179  48.939  42.950  0.00  0.00    -0.027 A 
ATOM      6  C   UNL     1      87.560  47.649  42.504  0.00  0.00    +0.015 A 
ATOM      7  C   UNL     1      88.884  47.434  41.777  0.00  0.00    +0.034 C 
ATOM      8  C   UNL     1      89.918  46.763  42.694  0.00  0.00    -0.045 C 
ATOM      9  N   UNL     1      89.430  48.677  41.204  0.00  0.00    -0.307 N 
ATOM     10  C   UNL     1      89.437  49.782  42.173  0.00  0.00    +0.009 C 
ATOM     11  C   UNL     1      88.005  50.152  42.577  0.00  0.00    -0.011 C 
ATOM     12  C   UNL     1      90.162  50.989  41.573  0.00  0.00    -0.049 C 
ATOM     13  H   UNL     1      88.860  48.947  40.402  0.00  0.00    +0.000 HD
ATOM     14  H   UNL     1      90.395  48.496  40.930  0.00  0.00    +0.000 HD
ENDROOT
BRANCH   4  15
ATOM     15  C   UNL     1      85.523  50.452  44.093  0.00  0.00    -0.006 A 
ATOM     16  C   UNL     1      84.708  51.191  43.234  0.00  0.00    -0.050 A 
ATOM     17  C   UNL     1      84.270  52.460  43.591  0.00  0.00    -0.019 A 
ATOM     18  C   UNL     1      84.636  53.032  44.822  0.00  0.00    +0.131 A 
ATOM     19  C   UNL     1      85.467  52.301  45.714  0.00  0.00    +0.066 A 
ATOM     20  C   UNL     1      85.909  50.997  45.342  0.00  0.00    -0.003 A 
ATOM     21  C   UNL     1      86.733  50.266  46.220  0.00  0.00    -0.050 A 
ATOM     22  C   UNL     1      87.111  50.794  47.455  0.00  0.00    -0.046 A 
ATOM     23  C   UNL     1      88.023  50.014  48.358  0.00  0.00    -0.040 C 
ATOM     24  C   UNL     1      86.697  52.077  47.815  0.00  0.00    -0.016 A 
ATOM     25  C   UNL     1      85.874  52.839  46.966  0.00  0.00    +0.132 A 
BRANCH  25  26
ATOM     26  O   UNL     1      85.454  54.128  47.344  0.00  0.00    -0.494 OA
ATOM     27  C   UNL     1      84.743  54.440  48.538  0.00  0.00    +0.079 C 
ENDBRANCH  25  26
BRANCH  18  28
ATOM     28  O   UNL     1      84.187  54.318  45.173  0.00  0.00    -0.494 OA
ATOM     29  C   UNL     1      84.472  55.511  44.449  0.00  0.00    +0.079 C 
ENDBRANCH  18  28
ENDBRANCH   4  15
BRANCH   1  31
ATOM     30  C   UNL     1      87.198  44.101  43.123  0.00  0.00    +0.079 C 
ATOM     31  O   UNL     1      87.123  45.270  42.314  0.00  0.00    -0.495 OA
ENDBRANCH   1  31
BRANCH   3  32
ATOM     32  O   UNL     1      83.949  48.102  44.631  0.00  0.00    -0.506 OA
ATOM     33  H   UNL     1      83.131  48.014  44.181  0.00  0.00    +0.000 HD
ENDBRANCH   3  32
TORSDOF 5
ENDMDL
MODEL 8
REMARK VINA RESULT:    -8.470      3.207      7.313
REMARK INTER + INTRA:         -11.900
REMARK INTER:                 -11.075
REMARK INTRA:                  -0.825
REMARK UNBOUND:                -1.202
REMARK  Name = 
REMARK  11 active torsions:
REMARK  status: ('A' for Active; 'I' for Inactive)
REMARK    1  A    between atoms: C_1  and  O_2
REMARK    2  A    between atoms: O_2  and  C_3
REMARK    3  A    between atoms: C_5  and  O_6
REMARK    4  A    between atoms: C_7  and  C_16
REMARK    5  A    between atoms: C_10  and  C_11
REMARK    6  A    between atoms: C_13  and  C_15
REMARK    7  A    between atoms: C_19  and  O_29
REMARK    8  A    between atoms: C_23  and  C_24
REMARK    9  A    between atoms: C_26  and  O_27
REMARK   10  A    between atoms: O_27  and  C_28
REMARK   11  A    between atoms: O_29  and  C_30
REMARK                            x       y       z     vdW  Elec       q    Type
REMARK                         _______ _______ _______ _____ _____    ______ ____
ROOT
ATOM      1  C   UNL     1      87.432  48.246  42.527  0.00  0.00    +0.128 A 
ATOM      2  C   UNL     1      86.484  48.273  43.562  0.00  0.00    +0.022 A 
ATOM      3  C   UNL     1      86.191  49.457  44.235  0.00  0.00    +0.128 A 
ATOM      4  C   UNL     1      86.844  50.651  43.875  0.00  0.00    +0.028 A 
ATOM      5  C   UNL     1      87.818  50.641  42.847  0.00  0.00    -0.027 A 
ATOM      6  C   UNL     1      88.106  49.432  42.167  0.00  0.00    +0.015 A 
ATOM      7  C   UNL     1      89.174  49.384  41.079  0.00  0.00    +0.034 C 
ATOM      8  C   UNL     1      90.452  48.699  41.586  0.00  0.00    -0.045 C 
ATOM      9  N   UNL     1      89.485  50.713  40.523  0.00  0.00    -0.307 N 
ATOM     10  C   UNL     1      89.726  51.713  41.573  0.00  0.00    +0.009 C 
ATOM     11  C   UNL     1      88.456  51.941  42.401  0.00  0.00    -0.011 C 
ATOM     12  C   UNL     1      90.202  53.022  40.938  0.00  0.00    -0.049 C 
ATOM     13  H   UNL     1      88.700  51.021  39.950  0.00  0.00    +0.000 HD
ATOM     14  H   UNL     1      90.338  50.628  39.971  0.00  0.00    +0.000 HD
ENDROOT
BRANCH   4  15
ATOM     15  C   UNL     1      86.500  51.912  44.575  0.00  0.00    -0.006 A 
ATOM     16  C   UNL     1      87.014  52.110  45.858  0.00  0.00    -0.050 A 
ATOM     17  C   UNL     1      86.724  53.270  46.566  0.00  0.00    -0.019 A 
ATOM     18  C   UNL     1      85.907  54.270  46.012  0.00  0.00    +0.131 A 
ATOM     19  C   UNL     1      85.369  54.093  44.709  0.00  0.00    +0.066 A 
ATOM     20  C   UNL     1      85.675  52.901  43.986  0.00  0.00    -0.003 A 
ATOM     21  C   UNL     1      85.145  52.718  42.694  0.00  0.00    -0.050 A 
ATOM     22  C   UNL     1      84.338  53.691  42.104  0.00  0.00    -0.046 A 
ATOM     23  C   UNL     1      83.752  53.456  40.741  0.00  0.00    -0.040 C 
ATOM     24  C   UNL     1      84.021  54.849  42.814  0.00  0.00    -0.016 A 
ATOM     25  C   UNL     1      84.529  55.070  44.108  0.00  0.00    +0.132 A 
BRANCH  25  26
ATOM     26  O   UNL     1      84.210  56.247  44.810  0.00  0.00    -0.494 OA
ATOM     27  C   UNL     1      84.578  57.564  44.411  0.00  0.00    +0.079 C 
ENDBRANCH  25  26
BRANCH  18  28
ATOM     28  O   UNL     1      85.620  55.440  46.738  0.00  0.00    -0.494 OA
ATOM     29  C   UNL     1      84.846  55.494  47.932  0.00  0.00    +0.079 C 
ENDBRANCH  18  28
ENDBRANCH   4  15
BRANCH   1  31
ATOM     30  C   UNL     1      87.874  45.780  42.439  0.00  0.00    +0.079 C 
ATOM     31  O   UNL     1      87.725  47.059  41.833  0.00  0.00    -0.495 OA
ENDBRANCH   1  31
BRANCH   3  32
ATOM     32  O   UNL     1      85.238  49.416  45.257  0.00  0.00    -0.506 OA
ATOM     33  H   UNL     1      84.365  49.720  45.096  0.00  0.00    +0.000 HD
ENDBRANCH   3  32
TORSDOF 5
ENDMDL
MODEL 9
REMARK VINA RESULT:    -8.428      2.480      4.594
REMARK INTER + INTRA:         -11.847
REMARK INTER:                 -10.645
REMARK INTRA:                  -1.202
REMARK UNBOUND:                -1.202
REMARK  Name = 
REMARK  11 active torsions:
REMARK  status: ('A' for Active; 'I' for Inactive)
REMARK    1  A    between atoms: C_1  and  O_2
REMARK    2  A    between atoms: O_2  and  C_3
REMARK    3  A    between atoms: C_5  and  O_6
REMARK    4  A    between atoms: C_7  and  C_16
REMARK    5  A    between atoms: C_10  and  C_11
REMARK    6  A    between atoms: C_13  and  C_15
REMARK    7  A    between atoms: C_19  and  O_29
REMARK    8  A    between atoms: C_23  and  C_24
REMARK    9  A    between atoms: C_26  and  O_27
REMARK   10  A    between atoms: O_27  and  C_28
REMARK   11  A    between atoms: O_29  and  C_30
REMARK                            x       y       z     vdW  Elec       q    Type
REMARK                         _______ _______ _______ _____ _____    ______ ____
ROOT
ATOM      1  C   UNL     1      86.552  53.758  45.933  0.00  0.00    +0.128 A 
ATOM      2  C   UNL     1      86.787  52.607  46.702  0.00  0.00    +0.022 A 
ATOM      3  C   UNL     1      86.518  51.338  46.196  0.00  0.00    +0.128 A 
ATOM      4  C   UNL     1      86.008  51.195  44.891  0.00  0.00    +0.028 A 
ATOM      5  C   UNL     1      85.745  52.344  44.106  0.00  0.00    -0.027 A 
ATOM      6  C   UNL     1      86.026  53.630  44.630  0.00  0.00    +0.015 A 
ATOM      7  C   UNL     1      85.722  54.887  43.821  0.00  0.00    +0.034 C 
ATOM      8  C   UNL     1      84.472  55.603  44.358  0.00  0.00    -0.045 C 
ATOM      9  N   UNL     1      85.585  54.619  42.378  0.00  0.00    -0.307 N 
ATOM     10  C   UNL     1      84.691  53.484  42.104  0.00  0.00    +0.009 C 
ATOM     11  C   UNL     1      85.280  52.187  42.673  0.00  0.00    -0.011 C 
ATOM     12  C   UNL     1      84.462  53.361  40.596  0.00  0.00    -0.049 C 
ATOM     13  H   UNL     1      86.506  54.412  41.994  0.00  0.00    +0.000 HD
ATOM     14  H   UNL     1      85.178  55.447  41.944  0.00  0.00    +0.000 HD
ENDROOT
BRANCH   4  15
ATOM     15  C   UNL     1      85.756  49.838  44.348  0.00  0.00    -0.006 A 
ATOM     16  C   UNL     1      84.474  49.305  44.489  0.00  0.00    -0.050 A 
ATOM     17  C   UNL     1      84.177  48.037  44.005  0.00  0.00    -0.019 A 
ATOM     18  C   UNL     1      85.158  47.259  43.365  0.00  0.00    +0.131 A 
ATOM     19  C   UNL     1      86.472  47.778  43.211  0.00  0.00    +0.066 A 
ATOM     20  C   UNL     1      86.768  49.083  43.707  0.00  0.00    -0.003 A 
ATOM     21  C   UNL     1      88.068  49.604  43.558  0.00  0.00    -0.050 A 
ATOM     22  C   UNL     1      89.067  48.868  42.920  0.00  0.00    -0.046 A 
ATOM     23  C   UNL     1      90.457  49.427  42.809  0.00  0.00    -0.040 C 
ATOM     24  C   UNL     1      88.788  47.584  42.451  0.00  0.00    -0.016 A 
ATOM     25  C   UNL     1      87.502  47.027  42.580  0.00  0.00    +0.132 A 
BRANCH  25  26
ATOM     26  O   UNL     1      87.231  45.736  42.093  0.00  0.00    -0.494 OA
ATOM     27  C   UNL     1      87.910  44.549  42.493  0.00  0.00    +0.079 C 
ENDBRANCH  25  26
BRANCH  18  28
ATOM     28  O   UNL     1      84.847  45.977  42.879  0.00  0.00    -0.494 OA
ATOM     29  C   UNL     1      84.232  44.940  43.638  0.00  0.00    +0.079 C 
ENDBRANCH  18  28
ENDBRANCH   4  15
BRANCH   1  31
ATOM     30  C   UNL     1      86.105  55.687  47.470  0.00  0.00    +0.079 C 
ATOM     31  O   UNL     1      86.833  55.041  46.431  0.00  0.00    -0.495 OA
ENDBRANCH   1  31
BRANCH   3  32
ATOM     32  O   UNL     1      86.773  50.233  47.013  0.00  0.00    -0.506 OA
ATOM     33  H   UNL     1      86.181  49.506  47.016  0.00  0.00    +0.000 HD
ENDBRANCH   3  32
TORSDOF 5
ENDMDL
