MODEL 1
REMARK VINA RESULT:    -9.591      0.000      0.000
REMARK INTER + INTRA:         -12.814
REMARK INTER:                 -12.089
REMARK INTRA:                  -0.725
REMARK UNBOUND:                -0.700
REMARK  Name = 
REMARK  11 active torsions:
REMARK  status: ('A' for Active; 'I' for Inactive)
REMARK    1  A    between atoms: C_1  and  O_2
REMARK    2  A    between atoms: O_2  and  C_3
REMARK    3  A    between atoms: C_7  and  C_8
REMARK    4  A    between atoms: C_10  and  C_30
REMARK    5  A    between atoms: C_12  and  O_28
REMARK    6  A    between atoms: C_13  and  C_14
REMARK    7  A    between atoms: C_15  and  C_16
REMARK    8  A    between atoms: C_20  and  O_21
REMARK    9  A    between atoms: C_22  and  O_23
REMARK   10  A    between atoms: O_23  and  C_24
REMARK   11  A    between atoms: O_28  and  C_29
REMARK                            x       y       z     vdW  Elec       q    Type
REMARK                         _______ _______ _______ _____ _____    ______ ____
ROOT
ATOM      1  C   UNL     1      88.116  49.609  42.920  0.00  0.00    +0.132 A 
ATOM      2  C   UNL     1      88.337  48.316  42.429  0.00  0.00    -0.015 A 
ATOM      3  C   UNL     1      87.396  47.305  42.636  0.00  0.00    -0.030 A 
ATOM      4  C   UNL     1      87.659  45.920  42.100  0.00  0.00    -0.005 C 
ATOM      5  C   UNL     1      86.988  44.879  43.010  0.00  0.00    +0.052 C 
ATOM      6  C   UNL     1      87.071  43.479  42.405  0.00  0.00    -0.042 C 
ATOM      7  N   UNL     1      85.588  45.237  43.233  0.00  0.00    -0.284 NA
ATOM      8  C   UNL     1      85.187  46.465  43.402  0.00  0.00    +0.044 C 
ATOM      9  C   UNL     1      86.175  47.587  43.282  0.00  0.00    +0.041 A 
ATOM     10  C   UNL     1      85.934  48.893  43.780  0.00  0.00    +0.140 A 
ATOM     11  C   UNL     1      86.924  49.896  43.611  0.00  0.00    +0.070 A 
ATOM     12  C   UNL     1      83.720  46.697  43.616  0.00  0.00    -0.022 C 
ENDROOT
BRANCH  11  13
ATOM     13  C   UNL     1      86.785  51.240  44.225  0.00  0.00    +0.034 A 
ATOM     14  C   UNL     1      87.179  51.462  45.561  0.00  0.00    -0.038 A 
ATOM     15  C   UNL     1      87.755  50.353  46.405  0.00  0.00    -0.039 C 
ATOM     16  C   UNL     1      86.971  52.717  46.138  0.00  0.00    -0.050 A 
ATOM     17  C   UNL     1      86.470  53.782  45.381  0.00  0.00    -0.011 A 
ATOM     18  C   UNL     1      86.147  53.602  44.008  0.00  0.00    +0.066 A 
ATOM     19  C   UNL     1      86.240  52.291  43.459  0.00  0.00    +0.136 A 
ATOM     20  C   UNL     1      85.784  54.744  43.239  0.00  0.00    +0.131 A 
ATOM     21  C   UNL     1      85.616  55.987  43.883  0.00  0.00    -0.019 A 
ATOM     22  C   UNL     1      85.864  56.123  45.245  0.00  0.00    -0.058 A 
ATOM     23  C   UNL     1      86.309  55.035  45.988  0.00  0.00    -0.054 A 
BRANCH  19  24
ATOM     24  O   UNL     1      85.756  51.971  42.186  0.00  0.00    -0.505 OA
ATOM     25  H   UNL     1      85.347  52.631  41.661  0.00  0.00    +0.000 HD
ENDBRANCH  19  24
BRANCH  20  26
ATOM     26  O   UNL     1      85.645  54.644  41.845  0.00  0.00    -0.494 OA
ATOM     27  C   UNL     1      84.521  55.097  41.098  0.00  0.00    +0.079 C 
ENDBRANCH  20  26
ENDBRANCH  11  13
BRANCH   1  29
ATOM     28  C   UNL     1      89.421  51.221  41.510  0.00  0.00    +0.079 C 
ATOM     29  O   UNL     1      89.067  50.633  42.757  0.00  0.00    -0.494 OA
ENDBRANCH   1  29
BRANCH  10  30
ATOM     30  O   UNL     1      84.732  49.143  44.464  0.00  0.00    -0.494 OA
ATOM     31  C   UNL     1      83.627  49.869  43.933  0.00  0.00    +0.079 C 
ENDBRANCH  10  30
TORSDOF 5
ENDMDL
MODEL 2
REMARK VINA RESULT:    -9.286      2.725      7.692
REMARK INTER + INTRA:         -12.429
REMARK INTER:                 -11.594
REMARK INTRA:                  -0.835
REMARK UNBOUND:                -0.700
REMARK  Name = 
REMARK  11 active torsions:
REMARK  status: ('A' for Active; 'I' for Inactive)
REMARK    1  A    between atoms: C_1  and  O_2
REMARK    2  A    between atoms: O_2  and  C_3
REMARK    3  A    between atoms: C_7  and  C_8
REMARK    4  A    between atoms: C_10  and  C_30
REMARK    5  A    between atoms: C_12  and  O_28
REMARK    6  A    between atoms: C_13  and  C_14
REMARK    7  A    between atoms: C_15  and  C_16
REMARK    8  A    between atoms: C_20  and  O_21
REMARK    9  A    between atoms: C_22  and  O_23
REMARK   10  A    between atoms: O_23  and  C_24
REMARK   11  A    between atoms: O_28  and  C_29
REMARK                            x       y       z     vdW  Elec       q    Type
REMARK                         _______ _______ _______ _____ _____    ______ ____
ROOT
ATOM      1  C   UNL     1      85.618  52.245  45.952  0.00  0.00    +0.132 A 
ATOM      2  C   UNL     1      85.506  53.558  46.425  0.00  0.00    -0.015 A 
ATOM      3  C   UNL     1      85.198  54.606  45.554  0.00  0.00    -0.030 A 
ATOM      4  C   UNL     1      85.085  56.012  46.087  0.00  0.00    -0.005 C 
ATOM      5  C   UNL     1      85.497  57.012  44.996  0.00  0.00    +0.052 C 
ATOM      6  C   UNL     1      85.222  58.450  45.431  0.00  0.00    -0.042 C 
ATOM      7  N   UNL     1      84.777  56.725  43.756  0.00  0.00    -0.284 NA
ATOM      8  C   UNL     1      84.534  55.515  43.339  0.00  0.00    +0.044 C 
ATOM      9  C   UNL     1      84.926  54.347  44.194  0.00  0.00    +0.041 A 
ATOM     10  C   UNL     1      85.031  53.022  43.701  0.00  0.00    +0.140 A 
ATOM     11  C   UNL     1      85.400  51.976  44.588  0.00  0.00    +0.070 A 
ATOM     12  C   UNL     1      83.779  55.359  42.052  0.00  0.00    -0.022 C 
ENDROOT
BRANCH  11  13
ATOM     13  C   UNL     1      85.654  50.597  44.103  0.00  0.00    +0.034 A 
ATOM     14  C   UNL     1      86.962  50.181  43.777  0.00  0.00    -0.038 A 
ATOM     15  C   UNL     1      88.139  51.114  43.911  0.00  0.00    -0.039 C 
ATOM     16  C   UNL     1      87.165  48.901  43.255  0.00  0.00    -0.050 A 
ATOM     17  C   UNL     1      86.105  47.993  43.144  0.00  0.00    -0.011 A 
ATOM     18  C   UNL     1      84.793  48.364  43.550  0.00  0.00    +0.066 A 
ATOM     19  C   UNL     1      84.567  49.709  43.960  0.00  0.00    +0.136 A 
ATOM     20  C   UNL     1      83.778  47.366  43.561  0.00  0.00    +0.131 A 
ATOM     21  C   UNL     1      84.060  46.086  43.042  0.00  0.00    -0.019 A 
ATOM     22  C   UNL     1      85.333  45.769  42.579  0.00  0.00    -0.058 A 
ATOM     23  C   UNL     1      86.357  46.707  42.649  0.00  0.00    -0.054 A 
BRANCH  19  24
ATOM     24  O   UNL     1      83.286  50.224  44.182  0.00  0.00    -0.505 OA
ATOM     25  H   UNL     1      82.726  50.415  43.456  0.00  0.00    +0.000 HD
ENDBRANCH  19  24
BRANCH  20  26
ATOM     26  O   UNL     1      82.525  47.638  44.133  0.00  0.00    -0.494 OA
ATOM     27  C   UNL     1      81.472  46.692  44.292  0.00  0.00    +0.079 C 
ENDBRANCH  20  26
ENDBRANCH  11  13
BRANCH   1  29
ATOM     28  C   UNL     1      86.345  51.324  48.169  0.00  0.00    +0.079 C 
ATOM     29  O   UNL     1      85.965  51.180  46.804  0.00  0.00    -0.494 OA
ENDBRANCH   1  29
BRANCH  10  30
ATOM     30  O   UNL     1      84.805  52.791  42.333  0.00  0.00    -0.494 OA
ATOM     31  C   UNL     1      85.825  52.667  41.347  0.00  0.00    +0.079 C 
ENDBRANCH  10  30
TORSDOF 5
ENDMDL
MODEL 3
REMARK VINA RESULT:    -9.211      2.524      7.550
REMARK INTER + INTRA:         -12.334
REMARK INTER:                 -11.406
REMARK INTRA:                  -0.928
REMARK UNBOUND:                -0.700
REMARK  Name = 
REMARK  11 active torsions:
REMARK  status: ('A' for Active; 'I' for Inactive)
REMARK    1  A    between atoms: C_1  and  O_2
REMARK    2  A    between atoms: O_2  and  C_3
REMARK    3  A    between atoms: C_7  and  C_8
REMARK    4  A    between atoms: C_10  and  C_30
REMARK    5  A    between atoms: C_12  and  O_28
REMARK    6  A    between atoms: C_13  and  C_14
REMARK    7  A    between atoms: C_15  and  C_16
REMARK    8  A    between atoms: C_20  and  O_21
REMARK    9  A    between atoms: C_22  and  O_23
REMARK   10  A    between atoms: O_23  and  C_24
REMARK   11  A    between atoms: O_28  and  C_29
REMARK                            x       y       z     vdW  Elec       q    Type
REMARK                         _______ _______ _______ _____ _____    ______ ____
ROOT
ATOM      1  C   UNL     1      85.749  52.158  45.533  0.00  0.00    +0.132 A 
ATOM      2  C   UNL     1      85.634  53.489  45.955  0.00  0.00    -0.015 A 
ATOM      3  C   UNL     1      85.445  54.517  45.029  0.00  0.00    -0.030 A 
ATOM      4  C   UNL     1      85.327  55.942  45.508  0.00  0.00    -0.005 C 
ATOM      5  C   UNL     1      85.873  56.895  44.433  0.00  0.00    +0.052 C 
ATOM      6  C   UNL     1      85.604  58.353  44.798  0.00  0.00    -0.042 C 
ATOM      7  N   UNL     1      85.265  56.590  43.139  0.00  0.00    -0.284 NA
ATOM      8  C   UNL     1      85.024  55.375  42.735  0.00  0.00    +0.044 C 
ATOM      9  C   UNL     1      85.296  54.223  43.657  0.00  0.00    +0.041 A 
ATOM     10  C   UNL     1      85.404  52.881  43.214  0.00  0.00    +0.140 A 
ATOM     11  C   UNL     1      85.653  51.853  44.162  0.00  0.00    +0.070 A 
ATOM     12  C   UNL     1      84.390  55.201  41.387  0.00  0.00    -0.022 C 
ENDROOT
BRANCH  11  13
ATOM     13  C   UNL     1      85.907  50.452  43.744  0.00  0.00    +0.034 A 
ATOM     14  C   UNL     1      84.846  49.528  43.652  0.00  0.00    -0.038 A 
ATOM     15  C   UNL     1      83.427  49.926  43.971  0.00  0.00    -0.039 C 
ATOM     16  C   UNL     1      85.121  48.198  43.325  0.00  0.00    -0.050 A 
ATOM     17  C   UNL     1      86.419  47.793  42.991  0.00  0.00    -0.011 A 
ATOM     18  C   UNL     1      87.489  48.730  42.992  0.00  0.00    +0.066 A 
ATOM     19  C   UNL     1      87.228  50.053  43.449  0.00  0.00    +0.136 A 
ATOM     20  C   UNL     1      88.759  48.312  42.503  0.00  0.00    +0.131 A 
ATOM     21  C   UNL     1      88.959  46.958  42.166  0.00  0.00    -0.019 A 
ATOM     22  C   UNL     1      87.916  46.041  42.246  0.00  0.00    -0.058 A 
ATOM     23  C   UNL     1      86.647  46.457  42.634  0.00  0.00    -0.054 A 
BRANCH  19  24
ATOM     24  O   UNL     1      88.244  50.985  43.680  0.00  0.00    -0.505 OA
ATOM     25  H   UNL     1      88.749  51.315  42.963  0.00  0.00    +0.000 HD
ENDBRANCH  19  24
BRANCH  20  26
ATOM     26  O   UNL     1      89.785  49.250  42.307  0.00  0.00    -0.494 OA
ATOM     27  C   UNL     1      91.164  49.028  42.586  0.00  0.00    +0.079 C 
ENDBRANCH  20  26
ENDBRANCH  11  13
BRANCH   1  29
ATOM     28  C   UNL     1      87.135  50.991  47.267  0.00  0.00    +0.079 C 
ATOM     29  O   UNL     1      85.979  51.111  46.444  0.00  0.00    -0.494 OA
ENDBRANCH   1  29
BRANCH  10  30
ATOM     30  O   UNL     1      85.302  52.614  41.838  0.00  0.00    -0.494 OA
ATOM     31  C   UNL     1      86.406  52.476  40.950  0.00  0.00    +0.079 C 
ENDBRANCH  10  30
TORSDOF 5
ENDMDL
MODEL 4
REMARK VINA RESULT:    -9.002      2.861      7.436
REMARK INTER + INTRA:         -12.070
REMARK INTER:                 -11.366
REMARK INTRA:                  -0.704
REMARK UNBOUND:                -0.700
REMARK  Name = 
REMARK  11 active torsions:
REMARK  status: ('A' for Active; 'I' for Inactive)
REMARK    1  A    between atoms: C_1  and  O_2
REMARK    2  A    between atoms: O_2  and  C_3
REMARK    3  A    between atoms: C_7  and  C_8
REMARK    4  A    between atoms: C_10  and  C_30
REMARK    5  A    between atoms: C_12  and  O_28
REMARK    6  A    between atoms: C_13  and  C_14
REMARK    7  A    between atoms: C_15  and  C_16
REMARK    8  A    between atoms: C_20  and  O_21
REMARK    9  A    between atoms: C_22  and  O_23
REMARK   10  A    between atoms: O_23  and  C_24
REMARK   11  A    between atoms: O_28  and  C_29
REMARK                            x       y       z     vdW  Elec       q    Type
REMARK                         _______ _______ _______ _____ _____    ______ ____
ROOT
ATOM      1  C   UNL     1      85.867  53.122  42.876  0.00  0.00    +0.132 A 
ATOM      2  C   UNL     1      85.933  54.519  42.963  0.00  0.00    -0.015 A 
ATOM      3  C   UNL     1      85.759  55.165  44.188  0.00  0.00    -0.030 A 
ATOM      4  C   UNL     1      85.833  56.670  44.255  0.00  0.00    -0.005 C 
ATOM      5  C   UNL     1      84.923  57.182  45.383  0.00  0.00    +0.052 C 
ATOM      6  C   UNL     1      85.109  58.681  45.607  0.00  0.00    -0.042 C 
ATOM      7  N   UNL     1      85.209  56.459  46.622  0.00  0.00    -0.284 NA
ATOM      8  C   UNL     1      85.475  55.185  46.657  0.00  0.00    +0.044 C 
ATOM      9  C   UNL     1      85.584  54.418  45.371  0.00  0.00    +0.041 A 
ATOM     10  C   UNL     1      85.519  53.004  45.301  0.00  0.00    +0.140 A 
ATOM     11  C   UNL     1      85.641  52.363  44.040  0.00  0.00    +0.070 A 
ATOM     12  C   UNL     1      85.757  54.566  47.994  0.00  0.00    -0.022 C 
ENDROOT
BRANCH  11  13
ATOM     13  C   UNL     1      85.450  50.900  43.888  0.00  0.00    +0.034 A 
ATOM     14  C   UNL     1      86.558  50.027  43.897  0.00  0.00    -0.038 A 
ATOM     15  C   UNL     1      87.965  50.545  44.063  0.00  0.00    -0.039 C 
ATOM     16  C   UNL     1      86.357  48.661  43.681  0.00  0.00    -0.050 A 
ATOM     17  C   UNL     1      85.067  48.135  43.554  0.00  0.00    -0.011 A 
ATOM     18  C   UNL     1      83.931  48.987  43.629  0.00  0.00    +0.066 A 
ATOM     19  C   UNL     1      84.144  50.392  43.721  0.00  0.00    +0.136 A 
ATOM     20  C   UNL     1      82.636  48.394  43.646  0.00  0.00    +0.131 A 
ATOM     21  C   UNL     1      82.509  47.004  43.447  0.00  0.00    -0.019 A 
ATOM     22  C   UNL     1      83.634  46.199  43.299  0.00  0.00    -0.058 A 
ATOM     23  C   UNL     1      84.906  46.755  43.373  0.00  0.00    -0.054 A 
BRANCH  19  24
ATOM     24  O   UNL     1      83.107  51.322  43.597  0.00  0.00    -0.505 OA
ATOM     25  H   UNL     1      82.313  51.205  44.080  0.00  0.00    +0.000 HD
ENDBRANCH  19  24
BRANCH  20  26
ATOM     26  O   UNL     1      81.502  49.179  43.911  0.00  0.00    -0.494 OA
ATOM     27  C   UNL     1      80.185  48.901  43.445  0.00  0.00    +0.079 C 
ENDBRANCH  20  26
ENDBRANCH  11  13
BRANCH   1  29
ATOM     28  C   UNL     1      87.192  52.413  40.868  0.00  0.00    +0.079 C 
ATOM     29  O   UNL     1      86.000  52.451  41.646  0.00  0.00    -0.494 OA
ENDBRANCH   1  29
BRANCH  10  30
ATOM     30  O   UNL     1      85.294  52.279  46.484  0.00  0.00    -0.494 OA
ATOM     31  C   UNL     1      86.283  51.525  47.179  0.00  0.00    +0.079 C 
ENDBRANCH  10  30
TORSDOF 5
ENDMDL
MODEL 5
REMARK VINA RESULT:    -8.807      1.893      3.021
REMARK INTER + INTRA:         -11.823
REMARK INTER:                 -11.094
REMARK INTRA:                  -0.728
REMARK UNBOUND:                -0.700
REMARK  Name = 
REMARK  11 active torsions:
REMARK  status: ('A' for Active; 'I' for Inactive)
REMARK    1  A    between atoms: C_1  and  O_2
REMARK    2  A    between atoms: O_2  and  C_3
REMARK    3  A    between atoms: C_7  and  C_8
REMARK    4  A    between atoms: C_10  and  C_30
REMARK    5  A    between atoms: C_12  and  O_28
REMARK    6  A    between atoms: C_13  and  C_14
REMARK    7  A    between atoms: C_15  and  C_16
REMARK    8  A    between atoms: C_20  and  O_21
REMARK    9  A    between atoms: C_22  and  O_23
REMARK   10  A    between atoms: O_23  and  C_24
REMARK   11  A    between atoms: O_28  and  C_29
REMARK                            x       y       z     vdW  Elec       q    Type
REMARK                         _______ _______ _______ _____ _____    ______ ____
ROOT
ATOM      1  C   UNL     1      87.055  50.043  43.454  0.00  0.00    +0.132 A 
ATOM      2  C   UNL     1      87.100  48.653  43.278  0.00  0.00    -0.015 A 
ATOM      3  C   UNL     1      85.941  47.883  43.389  0.00  0.00    -0.030 A 
ATOM      4  C   UNL     1      86.016  46.389  43.197  0.00  0.00    -0.005 C 
ATOM      5  C   UNL     1      84.939  45.704  44.054  0.00  0.00    +0.052 C 
ATOM      6  C   UNL     1      84.858  44.210  43.749  0.00  0.00    -0.042 C 
ATOM      7  N   UNL     1      83.638  46.328  43.814  0.00  0.00    -0.284 NA
ATOM      8  C   UNL     1      83.484  47.610  43.648  0.00  0.00    +0.044 C 
ATOM      9  C   UNL     1      84.692  48.500  43.612  0.00  0.00    +0.041 A 
ATOM     10  C   UNL     1      84.629  49.905  43.787  0.00  0.00    +0.140 A 
ATOM     11  C   UNL     1      85.825  50.669  43.727  0.00  0.00    +0.070 A 
ATOM     12  C   UNL     1      82.095  48.121  43.403  0.00  0.00    -0.022 C 
ENDROOT
BRANCH  11  13
ATOM     13  C   UNL     1      85.838  52.120  44.034  0.00  0.00    +0.034 A 
ATOM     14  C   UNL     1      85.755  53.073  42.997  0.00  0.00    -0.038 A 
ATOM     15  C   UNL     1      85.648  52.654  41.553  0.00  0.00    -0.039 C 
ATOM     16  C   UNL     1      85.841  54.433  43.307  0.00  0.00    -0.050 A 
ATOM     17  C   UNL     1      85.909  54.865  44.636  0.00  0.00    -0.011 A 
ATOM     18  C   UNL     1      85.906  53.923  45.701  0.00  0.00    +0.066 A 
ATOM     19  C   UNL     1      85.947  52.537  45.378  0.00  0.00    +0.136 A 
ATOM     20  C   UNL     1      85.825  54.408  47.038  0.00  0.00    +0.131 A 
ATOM     21  C   UNL     1      85.892  55.796  47.275  0.00  0.00    -0.019 A 
ATOM     22  C   UNL     1      85.972  56.697  46.218  0.00  0.00    -0.058 A 
ATOM     23  C   UNL     1      85.959  56.239  44.906  0.00  0.00    -0.054 A 
BRANCH  19  24
ATOM     24  O   UNL     1      86.150  51.544  46.341  0.00  0.00    -0.505 OA
ATOM     25  H   UNL     1      86.305  50.658  46.076  0.00  0.00    +0.000 HD
ENDBRANCH  19  24
BRANCH  20  26
ATOM     26  O   UNL     1      85.626  53.515  48.103  0.00  0.00    -0.494 OA
ATOM     27  C   UNL     1      84.406  53.352  48.820  0.00  0.00    +0.079 C 
ENDBRANCH  20  26
ENDBRANCH  11  13
BRANCH   1  29
ATOM     28  C   UNL     1      88.957  51.086  42.196  0.00  0.00    +0.079 C 
ATOM     29  O   UNL     1      88.216  50.834  43.386  0.00  0.00    -0.494 OA
ENDBRANCH   1  29
BRANCH  10  30
ATOM     30  O   UNL     1      83.383  50.496  44.057  0.00  0.00    -0.494 OA
ATOM     31  C   UNL     1      82.617  51.249  43.121  0.00  0.00    +0.079 C 
ENDBRANCH  10  30
TORSDOF 5
ENDMDL
MODEL 6
REMARK VINA RESULT:    -8.741      1.921      4.099
REMARK INTER + INTRA:         -11.740
REMARK INTER:                 -10.790
REMARK INTRA:                  -0.950
REMARK UNBOUND:                -0.700
REMARK  Name = 
REMARK  11 active torsions:
REMARK  status: ('A' for Active; 'I' for Inactive)
REMARK    1  A    between atoms: C_1  and  O_2
REMARK    2  A    between atoms: O_2  and  C_3
REMARK    3  A    between atoms: C_7  and  C_8
REMARK    4  A    between atoms: C_10  and  C_30
REMARK    5  A    between atoms: C_12  and  O_28
REMARK    6  A    between atoms: C_13  and  C_14
REMARK    7  A    between atoms: C_15  and  C_16
REMARK    8  A    between atoms: C_20  and  O_21
REMARK    9  A    between atoms: C_22  and  O_23
REMARK   10  A    between atoms: O_23  and  C_24
REMARK   11  A    between atoms: O_28  and  C_29
REMARK                            x       y       z     vdW  Elec       q    Type
REMARK                         _______ _______ _______ _____ _____    ______ ____
ROOT
ATOM      1  C   UNL     1      84.922  50.588  43.739  0.00  0.00    +0.132 A 
ATOM      2  C   UNL     1      85.081  49.203  43.598  0.00  0.00    -0.015 A 
ATOM      3  C   UNL     1      86.317  48.661  43.240  0.00  0.00    -0.030 A 
ATOM      4  C   UNL     1      86.463  47.167  43.092  0.00  0.00    -0.005 C 
ATOM      5  C   UNL     1      87.533  46.855  42.034  0.00  0.00    +0.052 C 
ATOM      6  C   UNL     1      87.844  45.361  41.985  0.00  0.00    -0.042 C 
ATOM      7  N   UNL     1      88.756  47.604  42.323  0.00  0.00    -0.284 NA
ATOM      8  C   UNL     1      88.751  48.829  42.766  0.00  0.00    +0.044 C 
ATOM      9  C   UNL     1      87.444  49.495  43.081  0.00  0.00    +0.041 A 
ATOM     10  C   UNL     1      87.300  50.898  43.225  0.00  0.00    +0.140 A 
ATOM     11  C   UNL     1      86.024  51.439  43.535  0.00  0.00    +0.070 A 
ATOM     12  C   UNL     1      90.076  49.481  43.028  0.00  0.00    -0.022 C 
ENDROOT
BRANCH  11  13
ATOM     13  C   UNL     1      85.786  52.903  43.567  0.00  0.00    +0.034 A 
ATOM     14  C   UNL     1      85.345  53.583  42.412  0.00  0.00    -0.038 A 
ATOM     15  C   UNL     1      85.100  52.852  41.116  0.00  0.00    -0.039 C 
ATOM     16  C   UNL     1      85.197  54.972  42.449  0.00  0.00    -0.050 A 
ATOM     17  C   UNL     1      85.383  55.684  43.639  0.00  0.00    -0.011 A 
ATOM     18  C   UNL     1      85.743  55.006  44.836  0.00  0.00    +0.066 A 
ATOM     19  C   UNL     1      86.018  53.610  44.766  0.00  0.00    +0.136 A 
ATOM     20  C   UNL     1      85.776  55.745  46.053  0.00  0.00    +0.131 A 
ATOM     21  C   UNL     1      85.592  57.142  46.019  0.00  0.00    -0.019 A 
ATOM     22  C   UNL     1      85.316  57.796  44.822  0.00  0.00    -0.058 A 
ATOM     23  C   UNL     1      85.191  57.072  43.642  0.00  0.00    -0.054 A 
BRANCH  19  24
ATOM     24  O   UNL     1      86.571  52.896  45.833  0.00  0.00    -0.505 OA
ATOM     25  H   UNL     1      87.292  52.316  45.685  0.00  0.00    +0.000 HD
ENDBRANCH  19  24
BRANCH  20  26
ATOM     26  O   UNL     1      85.937  55.081  47.280  0.00  0.00    -0.494 OA
ATOM     27  C   UNL     1      84.889  54.791  48.199  0.00  0.00    +0.079 C 
ENDBRANCH  20  26
ENDBRANCH  11  13
BRANCH   1  29
ATOM     28  C   UNL     1      82.523  51.113  43.229  0.00  0.00    +0.079 C 
ATOM     29  O   UNL     1      83.677  51.159  44.062  0.00  0.00    -0.494 OA
ENDBRANCH   1  29
BRANCH  10  30
ATOM     30  O   UNL     1      88.423  51.716  43.015  0.00  0.00    -0.494 OA
ATOM     31  C   UNL     1      88.727  52.388  41.796  0.00  0.00    +0.079 C 
ENDBRANCH  10  30
TORSDOF 5
ENDMDL
MODEL 7
REMARK VINA RESULT:    -8.614      1.432      3.180
REMARK INTER + INTRA:         -11.579
REMARK INTER:                 -10.682
REMARK INTRA:                  -0.897
REMARK UNBOUND:                -0.700
REMARK  Name = 
REMARK  11 active torsions:
REMARK  status: ('A' for Active; 'I' for Inactive)
REMARK    1  A    between atoms: C_1  and  O_2
REMARK    2  A    between atoms: O_2  and  C_3
REMARK    3  A    between atoms: C_7  and  C_8
REMARK    4  A    between atoms: C_10  and  C_30
REMARK    5  A    between atoms: C_12  and  O_28
REMARK    6  A    between atoms: C_13  and  C_14
REMARK    7  A    between atoms: C_15  and  C_16
REMARK    8  A    between atoms: C_20  and  O_21
REMARK    9  A    between atoms: C_22  and  O_23
REMARK   10  A    between atoms: O_23  and  C_24
REMARK   11  A    between atoms: O_28  and  C_29
REMARK                            x       y       z     vdW  Elec       q    Type
REMARK                         _______ _______ _______ _____ _____    ______ ____
ROOT
ATOM      1  C   UNL     1      84.882  49.796  44.134  0.00  0.00    +0.132 A 
ATOM      2  C   UNL     1      85.084  48.441  43.844  0.00  0.00    -0.015 A 
ATOM      3  C   UNL     1      86.332  47.981  43.420  0.00  0.00    -0.030 A 
ATOM      4  C   UNL     1      86.524  46.517  43.112  0.00  0.00    -0.005 C 
ATOM      5  C   UNL     1      87.592  46.356  42.018  0.00  0.00    +0.052 C 
ATOM      6  C   UNL     1      87.950  44.886  41.807  0.00  0.00    -0.042 C 
ATOM      7  N   UNL     1      88.793  47.109  42.377  0.00  0.00    -0.284 NA
ATOM      8  C   UNL     1      88.754  48.279  42.948  0.00  0.00    +0.044 C 
ATOM      9  C   UNL     1      87.430  48.864  43.344  0.00  0.00    +0.041 A 
ATOM     10  C   UNL     1      87.243  50.238  43.639  0.00  0.00    +0.140 A 
ATOM     11  C   UNL     1      85.954  50.700  44.015  0.00  0.00    +0.070 A 
ATOM     12  C   UNL     1      90.060  48.943  43.270  0.00  0.00    -0.022 C 
ENDROOT
BRANCH  11  13
ATOM     13  C   UNL     1      85.669  52.144  44.205  0.00  0.00    +0.034 A 
ATOM     14  C   UNL     1      85.788  52.735  45.481  0.00  0.00    -0.038 A 
ATOM     15  C   UNL     1      86.208  51.930  46.684  0.00  0.00    -0.039 C 
ATOM     16  C   UNL     1      85.446  54.080  45.647  0.00  0.00    -0.050 A 
ATOM     17  C   UNL     1      85.083  54.871  44.551  0.00  0.00    -0.011 A 
ATOM     18  C   UNL     1      85.041  54.315  43.243  0.00  0.00    +0.066 A 
ATOM     19  C   UNL     1      85.266  52.916  43.096  0.00  0.00    +0.136 A 
ATOM     20  C   UNL     1      84.814  55.187  42.140  0.00  0.00    +0.131 A 
ATOM     21  C   UNL     1      84.498  56.539  42.382  0.00  0.00    -0.019 A 
ATOM     22  C   UNL     1      84.469  57.045  43.678  0.00  0.00    -0.058 A 
ATOM     23  C   UNL     1      84.780  56.224  44.756  0.00  0.00    -0.054 A 
BRANCH  19  24
ATOM     24  O   UNL     1      85.049  52.241  41.891  0.00  0.00    -0.505 OA
ATOM     25  H   UNL     1      84.681  52.695  41.159  0.00  0.00    +0.000 HD
ENDBRANCH  19  24
BRANCH  20  26
ATOM     26  O   UNL     1      84.955  54.715  40.825  0.00  0.00    -0.494 OA
ATOM     27  C   UNL     1      84.017  54.924  39.774  0.00  0.00    +0.079 C 
ENDBRANCH  20  26
ENDBRANCH  11  13
BRANCH   1  29
ATOM     28  C   UNL     1      82.385  49.917  43.927  0.00  0.00    +0.079 C 
ATOM     29  O   UNL     1      83.623  50.288  44.526  0.00  0.00    -0.494 OA
ENDBRANCH   1  29
BRANCH  10  30
ATOM     30  O   UNL     1      88.337  51.111  43.510  0.00  0.00    -0.494 OA
ATOM     31  C   UNL     1      88.618  51.902  42.359  0.00  0.00    +0.079 C 
ENDBRANCH  10  30
TORSDOF 5
ENDMDL
MODEL 8
REMARK VINA RESULT:    -8.453      2.436      7.337
REMARK INTER + INTRA:         -11.377
REMARK INTER:                 -10.736
REMARK INTRA:                  -0.640
REMARK UNBOUND:                -0.700
REMARK  Name = 
REMARK  11 active torsions:
REMARK  status: ('A' for Active; 'I' for Inactive)
REMARK    1  A    between atoms: C_1  and  O_2
REMARK    2  A    between atoms: O_2  and  C_3
REMARK    3  A    between atoms: C_7  and  C_8
REMARK    4  A    between atoms: C_10  and  C_30
REMARK    5  A    between atoms: C_12  and  O_28
REMARK    6  A    between atoms: C_13  and  C_14
REMARK    7  A    between atoms: C_15  and  C_16
REMARK    8  A    between atoms: C_20  and  O_21
REMARK    9  A    between atoms: C_22  and  O_23
REMARK   10  A    between atoms: O_23  and  C_24
REMARK   11  A    between atoms: O_28  and  C_29
REMARK                            x       y       z     vdW  Elec       q    Type
REMARK                         _______ _______ _______ _____ _____    ______ ____
ROOT
ATOM      1  C   UNL     1      85.881  52.525  42.958  0.00  0.00    +0.132 A 
ATOM      2  C   UNL     1      85.595  53.861  43.267  0.00  0.00    -0.015 A 
ATOM      3  C   UNL     1      85.397  54.260  44.591  0.00  0.00    -0.030 A 
ATOM      4  C   UNL     1      85.088  55.704  44.898  0.00  0.00    -0.005 C 
ATOM      5  C   UNL     1      84.207  55.787  46.154  0.00  0.00    +0.052 C 
ATOM      6  C   UNL     1      84.024  57.234  46.607  0.00  0.00    -0.042 C 
ATOM      7  N   UNL     1      84.804  55.004  47.236  0.00  0.00    -0.284 NA
ATOM      8  C   UNL     1      85.391  53.857  47.043  0.00  0.00    +0.044 C 
ATOM      9  C   UNL     1      85.550  53.336  45.645  0.00  0.00    +0.041 A 
ATOM     10  C   UNL     1      85.845  51.981  45.350  0.00  0.00    +0.140 A 
ATOM     11  C   UNL     1      85.988  51.579  43.995  0.00  0.00    +0.070 A 
ATOM     12  C   UNL     1      85.968  53.159  48.239  0.00  0.00    -0.022 C 
ENDROOT
BRANCH  11  13
ATOM     13  C   UNL     1      86.163  50.155  43.619  0.00  0.00    +0.034 A 
ATOM     14  C   UNL     1      85.057  49.281  43.584  0.00  0.00    -0.038 A 
ATOM     15  C   UNL     1      83.667  49.759  43.921  0.00  0.00    -0.039 C 
ATOM     16  C   UNL     1      85.259  47.929  43.297  0.00  0.00    -0.050 A 
ATOM     17  C   UNL     1      86.527  47.450  42.947  0.00  0.00    -0.011 A 
ATOM     18  C   UNL     1      87.641  48.332  42.892  0.00  0.00    +0.066 A 
ATOM     19  C   UNL     1      87.455  49.682  43.308  0.00  0.00    +0.136 A 
ATOM     20  C   UNL     1      88.877  47.836  42.388  0.00  0.00    +0.131 A 
ATOM     21  C   UNL     1      89.003  46.463  42.094  0.00  0.00    -0.019 A 
ATOM     22  C   UNL     1      87.918  45.603  42.229  0.00  0.00    -0.058 A 
ATOM     23  C   UNL     1      86.682  46.093  42.632  0.00  0.00    -0.054 A 
BRANCH  19  24
ATOM     24  O   UNL     1      88.521  50.569  43.484  0.00  0.00    -0.505 OA
ATOM     25  H   UNL     1      88.965  50.923  42.737  0.00  0.00    +0.000 HD
ENDBRANCH  19  24
BRANCH  20  26
ATOM     26  O   UNL     1      89.942  48.716  42.136  0.00  0.00    -0.494 OA
ATOM     27  C   UNL     1      91.203  48.687  42.798  0.00  0.00    +0.079 C 
ENDBRANCH  20  26
ENDBRANCH  11  13
BRANCH   1  29
ATOM     28  C   UNL     1      87.134  52.459  40.787  0.00  0.00    +0.079 C 
ATOM     29  O   UNL     1      86.046  52.093  41.629  0.00  0.00    -0.494 OA
ENDBRANCH   1  29
BRANCH  10  30
ATOM     30  O   UNL     1      85.945  51.065  46.410  0.00  0.00    -0.494 OA
ATOM     31  C   UNL     1      87.151  50.435  46.833  0.00  0.00    +0.079 C 
ENDBRANCH  10  30
TORSDOF 5
ENDMDL
MODEL 9
REMARK VINA RESULT:    -8.164      2.723      4.189
REMARK INTER + INTRA:         -11.012
REMARK INTER:                 -10.312
REMARK INTRA:                  -0.700
REMARK UNBOUND:                -0.700
REMARK  Name = 
REMARK  11 active torsions:
REMARK  status: ('A' for Active; 'I' for Inactive)
REMARK    1  A    between atoms: C_1  and  O_2
REMARK    2  A    between atoms: O_2  and  C_3
REMARK    3  A    between atoms: C_7  and  C_8
REMARK    4  A    between atoms: C_10  and  C_30
REMARK    5  A    between atoms: C_12  and  O_28
REMARK    6  A    between atoms: C_13  and  C_14
REMARK    7  A    between atoms: C_15  and  C_16
REMARK    8  A    between atoms: C_20  and  O_21
REMARK    9  A    between atoms: C_22  and  O_23
REMARK   10  A    between atoms: O_23  and  C_24
REMARK   11  A    between atoms: O_28  and  C_29
REMARK                            x       y       z     vdW  Elec       q    Type
REMARK                         _______ _______ _______ _____ _____    ______ ____
ROOT
ATOM      1  C   UNL     1      85.257  50.102  43.857  0.00  0.00    +0.132 A 
ATOM      2  C   UNL     1      84.759  48.792  43.891  0.00  0.00    -0.015 A 
ATOM      3  C   UNL     1      83.408  48.537  43.646  0.00  0.00    -0.030 A 
ATOM      4  C   UNL     1      82.896  47.119  43.691  0.00  0.00    -0.005 C 
ATOM      5  C   UNL     1      81.429  47.115  44.148  0.00  0.00    +0.052 C 
ATOM      6  C   UNL     1      80.816  45.721  44.030  0.00  0.00    -0.042 C 
ATOM      7  N   UNL     1      80.654  48.063  43.348  0.00  0.00    -0.284 NA
ATOM      8  C   UNL     1      81.116  49.221  42.972  0.00  0.00    +0.044 C 
ATOM      9  C   UNL     1      82.537  49.587  43.290  0.00  0.00    +0.041 A 
ATOM     10  C   UNL     1      83.026  50.917  43.245  0.00  0.00    +0.140 A 
ATOM     11  C   UNL     1      84.390  51.167  43.553  0.00  0.00    +0.070 A 
ATOM     12  C   UNL     1      80.220  50.097  42.148  0.00  0.00    -0.022 C 
ENDROOT
BRANCH  11  13
ATOM     13  C   UNL     1      84.925  52.547  43.652  0.00  0.00    +0.034 A 
ATOM     14  C   UNL     1      85.633  53.121  42.575  0.00  0.00    -0.038 A 
ATOM     15  C   UNL     1      85.868  52.359  41.295  0.00  0.00    -0.039 C 
ATOM     16  C   UNL     1      86.188  54.395  42.720  0.00  0.00    -0.050 A 
ATOM     17  C   UNL     1      85.968  55.148  43.879  0.00  0.00    -0.011 A 
ATOM     18  C   UNL     1      85.183  54.622  44.941  0.00  0.00    +0.066 A 
ATOM     19  C   UNL     1      84.727  53.276  44.843  0.00  0.00    +0.136 A 
ATOM     20  C   UNL     1      84.858  55.476  46.034  0.00  0.00    +0.131 A 
ATOM     21  C   UNL     1      85.436  56.760  46.103  0.00  0.00    -0.019 A 
ATOM     22  C   UNL     1      86.263  57.226  45.087  0.00  0.00    -0.058 A 
ATOM     23  C   UNL     1      86.513  56.436  43.970  0.00  0.00    -0.054 A 
BRANCH  19  24
ATOM     24  O   UNL     1      84.126  52.604  45.912  0.00  0.00    -0.505 OA
ATOM     25  H   UNL     1      84.588  52.503  46.721  0.00  0.00    +0.000 HD
ENDBRANCH  19  24
BRANCH  20  26
ATOM     26  O   UNL     1      83.933  55.061  47.005  0.00  0.00    -0.494 OA
ATOM     27  C   UNL     1      84.157  55.076  48.412  0.00  0.00    +0.079 C 
ENDBRANCH  20  26
ENDBRANCH  11  13
BRANCH   1  29
ATOM     28  C   UNL     1      87.716  49.814  43.456  0.00  0.00    +0.079 C 
ATOM     29  O   UNL     1      86.606  50.387  44.139  0.00  0.00    -0.494 OA
ENDBRANCH   1  29
BRANCH  10  30
ATOM     30  O   UNL     1      82.131  51.955  42.937  0.00  0.00    -0.494 OA
ATOM     31  C   UNL     1      82.113  52.679  41.710  0.00  0.00    +0.079 C 
ENDBRANCH  10  30
TORSDOF 5
ENDMDL
