MODEL 1
REMARK VINA RESULT:    -8.955      0.000      0.000
REMARK INTER + INTRA:         -12.736
REMARK INTER:                 -11.466
REMARK INTRA:                  -1.270
REMARK UNBOUND:                -1.425
REMARK  Name = 
REMARK  11 active torsions:
REMARK  status: ('A' for Active; 'I' for Inactive)
REMARK    1  A    between atoms: C_1  and  O_2
REMARK    2  A    between atoms: O_2  and  C_3
REMARK    3  A    between atoms: C_5  and  O_6
REMARK    4  A    between atoms: C_7  and  C_16
REMARK    5  A    between atoms: C_10  and  C_11
REMARK    6  A    between atoms: C_13  and  C_15
REMARK    7  A    between atoms: C_17  and  C_18
REMARK    8  A    between atoms: C_20  and  O_29
REMARK    9  A    between atoms: C_26  and  O_27
REMARK   10  A    between atoms: O_27  and  C_28
REMARK   11  A    between atoms: O_29  and  C_30
REMARK                            x       y       z     vdW  Elec       q    Type
REMARK                         _______ _______ _______ _____ _____    ______ ____
ROOT
ATOM      1  C   UNL     1      87.439  47.162  42.712  0.00  0.00    +0.128 A 
ATOM      2  C   UNL     1      86.164  47.233  43.298  0.00  0.00    +0.022 A 
ATOM      3  C   UNL     1      85.721  48.409  43.905  0.00  0.00    +0.128 A 
ATOM      4  C   UNL     1      86.537  49.548  43.907  0.00  0.00    +0.028 A 
ATOM      5  C   UNL     1      87.815  49.502  43.302  0.00  0.00    -0.027 A 
ATOM      6  C   UNL     1      88.298  48.284  42.767  0.00  0.00    +0.015 A 
ATOM      7  C   UNL     1      89.713  48.183  42.186  0.00  0.00    +0.034 C 
ATOM      8  C   UNL     1      90.555  47.199  43.011  0.00  0.00    -0.045 C 
ATOM      9  N   UNL     1      90.454  49.463  42.149  0.00  0.00    -0.307 N 
ATOM     10  C   UNL     1      89.625  50.667  42.027  0.00  0.00    +0.009 C 
ATOM     11  C   UNL     1      88.668  50.743  43.215  0.00  0.00    -0.011 C 
ATOM     12  C   UNL     1      88.902  50.746  40.669  0.00  0.00    -0.049 C 
ATOM     13  H   UNL     1      91.088  49.436  41.351  0.00  0.00    +0.000 HD
ATOM     14  H   UNL     1      90.927  49.539  43.049  0.00  0.00    +0.000 HD
ENDROOT
BRANCH   4  15
ATOM     15  C   UNL     1      86.025  50.797  44.532  0.00  0.00    -0.003 A 
ATOM     16  C   UNL     1      85.360  51.746  43.731  0.00  0.00    -0.039 A 
ATOM     17  C   UNL     1      85.165  51.517  42.252  0.00  0.00    -0.039 C 
ATOM     18  C   UNL     1      84.877  52.923  44.309  0.00  0.00    -0.016 A 
ATOM     19  C   UNL     1      85.035  53.186  45.680  0.00  0.00    +0.132 A 
ATOM     20  C   UNL     1      85.700  52.241  46.503  0.00  0.00    +0.066 A 
ATOM     21  C   UNL     1      86.198  51.039  45.919  0.00  0.00    -0.003 A 
ATOM     22  C   UNL     1      86.853  50.096  46.738  0.00  0.00    -0.053 A 
ATOM     23  C   UNL     1      87.018  50.325  48.098  0.00  0.00    -0.058 A 
ATOM     24  C   UNL     1      86.540  51.495  48.675  0.00  0.00    -0.019 A 
ATOM     25  C   UNL     1      85.879  52.464  47.898  0.00  0.00    +0.131 A 
BRANCH  25  26
ATOM     26  O   UNL     1      85.397  53.645  48.489  0.00  0.00    -0.494 OA
ATOM     27  C   UNL     1      84.248  53.732  49.326  0.00  0.00    +0.079 C 
ENDBRANCH  25  26
BRANCH  19  28
ATOM     28  O   UNL     1      84.540  54.378  46.239  0.00  0.00    -0.494 OA
ATOM     29  C   UNL     1      84.740  55.683  45.704  0.00  0.00    +0.079 C 
ENDBRANCH  19  28
ENDBRANCH   4  15
BRANCH   1  31
ATOM     30  C   UNL     1      87.774  44.681  42.576  0.00  0.00    +0.079 C 
ATOM     31  O   UNL     1      87.874  46.000  42.052  0.00  0.00    -0.495 OA
ENDBRANCH   1  31
BRANCH   3  32
ATOM     32  O   UNL     1      84.458  48.454  44.498  0.00  0.00    -0.506 OA
ATOM     33  H   UNL     1      84.140  49.257  44.861  0.00  0.00    +0.000 HD
ENDBRANCH   3  32
TORSDOF 5
ENDMDL
MODEL 2
REMARK VINA RESULT:    -8.847      1.076      3.010
REMARK INTER + INTRA:         -12.600
REMARK INTER:                 -11.121
REMARK INTRA:                  -1.479
REMARK UNBOUND:                -1.425
REMARK  Name = 
REMARK  11 active torsions:
REMARK  status: ('A' for Active; 'I' for Inactive)
REMARK    1  A    between atoms: C_1  and  O_2
REMARK    2  A    between atoms: O_2  and  C_3
REMARK    3  A    between atoms: C_5  and  O_6
REMARK    4  A    between atoms: C_7  and  C_16
REMARK    5  A    between atoms: C_10  and  C_11
REMARK    6  A    between atoms: C_13  and  C_15
REMARK    7  A    between atoms: C_17  and  C_18
REMARK    8  A    between atoms: C_20  and  O_29
REMARK    9  A    between atoms: C_26  and  O_27
REMARK   10  A    between atoms: O_27  and  C_28
REMARK   11  A    between atoms: O_29  and  C_30
REMARK                            x       y       z     vdW  Elec       q    Type
REMARK                         _______ _______ _______ _____ _____    ______ ____
ROOT
ATOM      1  C   UNL     1      87.346  47.163  42.817  0.00  0.00    +0.128 A 
ATOM      2  C   UNL     1      86.116  47.360  43.466  0.00  0.00    +0.022 A 
ATOM      3  C   UNL     1      85.807  48.586  44.056  0.00  0.00    +0.128 A 
ATOM      4  C   UNL     1      86.715  49.651  43.978  0.00  0.00    +0.028 A 
ATOM      5  C   UNL     1      87.950  49.478  43.308  0.00  0.00    -0.027 A 
ATOM      6  C   UNL     1      88.299  48.208  42.789  0.00  0.00    +0.015 A 
ATOM      7  C   UNL     1      89.666  47.969  42.139  0.00  0.00    +0.034 C 
ATOM      8  C   UNL     1      90.466  46.941  42.952  0.00  0.00    -0.045 C 
ATOM      9  N   UNL     1      90.509  49.179  42.021  0.00  0.00    -0.307 N 
ATOM     10  C   UNL     1      89.779  50.446  41.902  0.00  0.00    +0.009 C 
ATOM     11  C   UNL     1      88.898  50.638  43.135  0.00  0.00    -0.011 C 
ATOM     12  C   UNL     1      88.992  50.548  40.582  0.00  0.00    -0.049 C 
ATOM     13  H   UNL     1      91.094  49.075  41.192  0.00  0.00    +0.000 HD
ATOM     14  H   UNL     1      91.036  49.240  42.892  0.00  0.00    +0.000 HD
ENDROOT
BRANCH   4  15
ATOM     15  C   UNL     1      86.345  50.956  44.587  0.00  0.00    -0.003 A 
ATOM     16  C   UNL     1      86.671  51.205  45.935  0.00  0.00    -0.039 A 
ATOM     17  C   UNL     1      87.383  50.168  46.768  0.00  0.00    -0.039 C 
ATOM     18  C   UNL     1      86.326  52.428  46.516  0.00  0.00    -0.016 A 
ATOM     19  C   UNL     1      85.660  53.426  45.786  0.00  0.00    +0.132 A 
ATOM     20  C   UNL     1      85.325  53.194  44.427  0.00  0.00    +0.066 A 
ATOM     21  C   UNL     1      85.672  51.948  43.827  0.00  0.00    -0.003 A 
ATOM     22  C   UNL     1      85.346  51.720  42.474  0.00  0.00    -0.053 A 
ATOM     23  C   UNL     1      84.694  52.690  41.725  0.00  0.00    -0.058 A 
ATOM     24  C   UNL     1      84.348  53.906  42.301  0.00  0.00    -0.019 A 
ATOM     25  C   UNL     1      84.654  54.179  43.647  0.00  0.00    +0.131 A 
BRANCH  25  26
ATOM     26  O   UNL     1      84.302  55.413  44.222  0.00  0.00    -0.494 OA
ATOM     27  C   UNL     1      84.288  56.661  43.537  0.00  0.00    +0.079 C 
ENDBRANCH  25  26
BRANCH  19  28
ATOM     28  O   UNL     1      85.323  54.650  46.392  0.00  0.00    -0.494 OA
ATOM     29  C   UNL     1      86.211  55.462  47.155  0.00  0.00    +0.079 C 
ENDBRANCH  19  28
ENDBRANCH   4  15
BRANCH   1  31
ATOM     30  C   UNL     1      87.488  44.660  42.756  0.00  0.00    +0.079 C 
ATOM     31  O   UNL     1      87.644  45.950  42.174  0.00  0.00    -0.495 OA
ENDBRANCH   1  31
BRANCH   3  32
ATOM     32  O   UNL     1      84.587  48.758  44.712  0.00  0.00    -0.506 OA
ATOM     33  H   UNL     1      84.060  48.012  44.922  0.00  0.00    +0.000 HD
ENDBRANCH   3  32
TORSDOF 5
ENDMDL
MODEL 3
REMARK VINA RESULT:    -8.220      2.351      7.305
REMARK INTER + INTRA:         -11.808
REMARK INTER:                 -10.368
REMARK INTRA:                  -1.440
REMARK UNBOUND:                -1.425
REMARK  Name = 
REMARK  11 active torsions:
REMARK  status: ('A' for Active; 'I' for Inactive)
REMARK    1  A    between atoms: C_1  and  O_2
REMARK    2  A    between atoms: O_2  and  C_3
REMARK    3  A    between atoms: C_5  and  O_6
REMARK    4  A    between atoms: C_7  and  C_16
REMARK    5  A    between atoms: C_10  and  C_11
REMARK    6  A    between atoms: C_13  and  C_15
REMARK    7  A    between atoms: C_17  and  C_18
REMARK    8  A    between atoms: C_20  and  O_29
REMARK    9  A    between atoms: C_26  and  O_27
REMARK   10  A    between atoms: O_27  and  C_28
REMARK   11  A    between atoms: O_29  and  C_30
REMARK                            x       y       z     vdW  Elec       q    Type
REMARK                         _______ _______ _______ _____ _____    ______ ____
ROOT
ATOM      1  C   UNL     1      84.551  54.928  44.273  0.00  0.00    +0.128 A 
ATOM      2  C   UNL     1      84.319  54.234  43.074  0.00  0.00    +0.022 A 
ATOM      3  C   UNL     1      84.635  52.880  42.960  0.00  0.00    +0.128 A 
ATOM      4  C   UNL     1      85.162  52.187  44.059  0.00  0.00    +0.028 A 
ATOM      5  C   UNL     1      85.381  52.865  45.281  0.00  0.00    -0.027 A 
ATOM      6  C   UNL     1      85.144  54.257  45.368  0.00  0.00    +0.015 A 
ATOM      7  C   UNL     1      85.458  55.034  46.652  0.00  0.00    +0.034 C 
ATOM      8  C   UNL     1      86.557  56.072  46.386  0.00  0.00    -0.045 C 
ATOM      9  N   UNL     1      85.918  54.194  47.779  0.00  0.00    -0.307 N 
ATOM     10  C   UNL     1      85.418  52.815  47.782  0.00  0.00    +0.009 C 
ATOM     11  C   UNL     1      85.861  52.115  46.499  0.00  0.00    -0.011 C 
ATOM     12  C   UNL     1      83.896  52.744  48.009  0.00  0.00    -0.049 C 
ATOM     13  H   UNL     1      85.617  54.639  48.646  0.00  0.00    +0.000 HD
ATOM     14  H   UNL     1      86.931  54.124  47.682  0.00  0.00    +0.000 HD
ENDROOT
BRANCH   4  15
ATOM     15  C   UNL     1      85.458  50.736  43.918  0.00  0.00    -0.003 A 
ATOM     16  C   UNL     1      84.452  49.795  44.212  0.00  0.00    -0.039 A 
ATOM     17  C   UNL     1      83.083  50.237  44.671  0.00  0.00    -0.039 C 
ATOM     18  C   UNL     1      84.721  48.431  44.085  0.00  0.00    -0.016 A 
ATOM     19  C   UNL     1      85.979  47.966  43.665  0.00  0.00    +0.132 A 
ATOM     20  C   UNL     1      87.004  48.899  43.362  0.00  0.00    +0.066 A 
ATOM     21  C   UNL     1      86.737  50.294  43.492  0.00  0.00    -0.003 A 
ATOM     22  C   UNL     1      87.754  51.222  43.185  0.00  0.00    -0.053 A 
ATOM     23  C   UNL     1      89.005  50.794  42.760  0.00  0.00    -0.058 A 
ATOM     24  C   UNL     1      89.276  49.437  42.634  0.00  0.00    -0.019 A 
ATOM     25  C   UNL     1      88.292  48.475  42.928  0.00  0.00    +0.131 A 
BRANCH  25  26
ATOM     26  O   UNL     1      88.574  47.103  42.797  0.00  0.00    -0.494 OA
ATOM     27  C   UNL     1      89.873  46.549  42.608  0.00  0.00    +0.079 C 
ENDBRANCH  25  26
BRANCH  19  28
ATOM     28  O   UNL     1      86.227  46.587  43.543  0.00  0.00    -0.494 OA
ATOM     29  C   UNL     1      85.690  45.577  44.393  0.00  0.00    +0.079 C 
ENDBRANCH  19  28
ENDBRANCH   4  15
BRANCH   1  31
ATOM     30  C   UNL     1      84.596  57.328  43.545  0.00  0.00    +0.079 C 
ATOM     31  O   UNL     1      84.187  56.278  44.415  0.00  0.00    -0.495 OA
ENDBRANCH   1  31
BRANCH   3  32
ATOM     32  O   UNL     1      84.414  52.211  41.755  0.00  0.00    -0.506 OA
ATOM     33  H   UNL     1      83.589  52.292  41.319  0.00  0.00    +0.000 HD
ENDBRANCH   3  32
TORSDOF 5
ENDMDL
MODEL 4
REMARK VINA RESULT:    -8.171      2.058      6.898
REMARK INTER + INTRA:         -11.746
REMARK INTER:                 -10.380
REMARK INTRA:                  -1.366
REMARK UNBOUND:                -1.425
REMARK  Name = 
REMARK  11 active torsions:
REMARK  status: ('A' for Active; 'I' for Inactive)
REMARK    1  A    between atoms: C_1  and  O_2
REMARK    2  A    between atoms: O_2  and  C_3
REMARK    3  A    between atoms: C_5  and  O_6
REMARK    4  A    between atoms: C_7  and  C_16
REMARK    5  A    between atoms: C_10  and  C_11
REMARK    6  A    between atoms: C_13  and  C_15
REMARK    7  A    between atoms: C_17  and  C_18
REMARK    8  A    between atoms: C_20  and  O_29
REMARK    9  A    between atoms: C_26  and  O_27
REMARK   10  A    between atoms: O_27  and  C_28
REMARK   11  A    between atoms: O_29  and  C_30
REMARK                            x       y       z     vdW  Elec       q    Type
REMARK                         _______ _______ _______ _____ _____    ______ ____
ROOT
ATOM      1  C   UNL     1      86.478  53.424  45.702  0.00  0.00    +0.128 A 
ATOM      2  C   UNL     1      86.609  52.299  46.533  0.00  0.00    +0.022 A 
ATOM      3  C   UNL     1      86.417  51.012  46.029  0.00  0.00    +0.128 A 
ATOM      4  C   UNL     1      86.121  50.827  44.672  0.00  0.00    +0.028 A 
ATOM      5  C   UNL     1      86.007  51.947  43.815  0.00  0.00    -0.027 A 
ATOM      6  C   UNL     1      86.114  53.254  44.346  0.00  0.00    +0.015 A 
ATOM      7  C   UNL     1      85.906  54.487  43.457  0.00  0.00    +0.034 C 
ATOM      8  C   UNL     1      84.682  55.282  43.935  0.00  0.00    -0.045 C 
ATOM      9  N   UNL     1      85.694  54.182  42.026  0.00  0.00    -0.307 N 
ATOM     10  C   UNL     1      86.326  52.948  41.544  0.00  0.00    +0.009 C 
ATOM     11  C   UNL     1      85.780  51.761  42.336  0.00  0.00    -0.011 C 
ATOM     12  C   UNL     1      87.864  53.028  41.568  0.00  0.00    -0.049 C 
ATOM     13  H   UNL     1      86.067  54.959  41.481  0.00  0.00    +0.000 HD
ATOM     14  H   UNL     1      84.690  54.045  41.914  0.00  0.00    +0.000 HD
ENDROOT
BRANCH   4  15
ATOM     15  C   UNL     1      85.954  49.442  44.156  0.00  0.00    -0.003 A 
ATOM     16  C   UNL     1      84.673  48.855  44.156  0.00  0.00    -0.039 A 
ATOM     17  C   UNL     1      83.473  49.609  44.674  0.00  0.00    -0.039 C 
ATOM     18  C   UNL     1      84.507  47.555  43.675  0.00  0.00    -0.016 A 
ATOM     19  C   UNL     1      85.592  46.809  43.184  0.00  0.00    +0.132 A 
ATOM     20  C   UNL     1      86.889  47.382  43.175  0.00  0.00    +0.066 A 
ATOM     21  C   UNL     1      87.067  48.710  43.667  0.00  0.00    -0.003 A 
ATOM     22  C   UNL     1      88.355  49.283  43.651  0.00  0.00    -0.053 A 
ATOM     23  C   UNL     1      89.446  48.573  43.167  0.00  0.00    -0.058 A 
ATOM     24  C   UNL     1      89.284  47.279  42.689  0.00  0.00    -0.019 A 
ATOM     25  C   UNL     1      88.017  46.666  42.684  0.00  0.00    +0.131 A 
BRANCH  25  26
ATOM     26  O   UNL     1      87.861  45.355  42.198  0.00  0.00    -0.494 OA
ATOM     27  C   UNL     1      88.345  44.181  42.841  0.00  0.00    +0.079 C 
ENDBRANCH  25  26
BRANCH  19  28
ATOM     28  O   UNL     1      85.400  45.500  42.705  0.00  0.00    -0.494 OA
ATOM     29  C   UNL     1      84.593  44.506  43.329  0.00  0.00    +0.079 C 
ENDBRANCH  19  28
ENDBRANCH   4  15
BRANCH   1  31
ATOM     30  C   UNL     1      86.076  55.303  47.313  0.00  0.00    +0.079 C 
ATOM     31  O   UNL     1      86.722  54.720  46.187  0.00  0.00    -0.495 OA
ENDBRANCH   1  31
BRANCH   3  32
ATOM     32  O   UNL     1      86.534  49.907  46.874  0.00  0.00    -0.506 OA
ATOM     33  H   UNL     1      85.812  49.653  47.414  0.00  0.00    +0.000 HD
ENDBRANCH   3  32
TORSDOF 5
ENDMDL
MODEL 5
REMARK VINA RESULT:    -8.095      2.654      7.445
REMARK INTER + INTRA:         -11.650
REMARK INTER:                 -10.309
REMARK INTRA:                  -1.341
REMARK UNBOUND:                -1.425
REMARK  Name = 
REMARK  11 active torsions:
REMARK  status: ('A' for Active; 'I' for Inactive)
REMARK    1  A    between atoms: C_1  and  O_2
REMARK    2  A    between atoms: O_2  and  C_3
REMARK    3  A    between atoms: C_5  and  O_6
REMARK    4  A    between atoms: C_7  and  C_16
REMARK    5  A    between atoms: C_10  and  C_11
REMARK    6  A    between atoms: C_13  and  C_15
REMARK    7  A    between atoms: C_17  and  C_18
REMARK    8  A    between atoms: C_20  and  O_29
REMARK    9  A    between atoms: C_26  and  O_27
REMARK   10  A    between atoms: O_27  and  C_28
REMARK   11  A    between atoms: O_29  and  C_30
REMARK                            x       y       z     vdW  Elec       q    Type
REMARK                         _______ _______ _______ _____ _____    ______ ____
ROOT
ATOM      1  C   UNL     1      84.664  55.379  44.860  0.00  0.00    +0.128 A 
ATOM      2  C   UNL     1      84.552  54.822  43.576  0.00  0.00    +0.022 A 
ATOM      3  C   UNL     1      84.827  53.471  43.356  0.00  0.00    +0.128 A 
ATOM      4  C   UNL     1      85.189  52.645  44.429  0.00  0.00    +0.028 A 
ATOM      5  C   UNL     1      85.285  53.185  45.734  0.00  0.00    -0.027 A 
ATOM      6  C   UNL     1      85.093  54.572  45.939  0.00  0.00    +0.015 A 
ATOM      7  C   UNL     1      85.279  55.198  47.326  0.00  0.00    +0.034 C 
ATOM      8  C   UNL     1      86.442  56.201  47.302  0.00  0.00    -0.045 C 
ATOM      9  N   UNL     1      85.566  54.227  48.404  0.00  0.00    -0.307 N 
ATOM     10  C   UNL     1      85.015  52.882  48.203  0.00  0.00    +0.009 C 
ATOM     11  C   UNL     1      85.583  52.293  46.913  0.00  0.00    -0.011 C 
ATOM     12  C   UNL     1      83.476  52.867  48.242  0.00  0.00    -0.049 C 
ATOM     13  H   UNL     1      85.179  54.598  49.272  0.00  0.00    +0.000 HD
ATOM     14  H   UNL     1      86.579  54.115  48.419  0.00  0.00    +0.000 HD
ENDROOT
BRANCH   4  15
ATOM     15  C   UNL     1      85.443  51.203  44.171  0.00  0.00    -0.003 A 
ATOM     16  C   UNL     1      86.768  50.758  43.993  0.00  0.00    -0.039 A 
ATOM     17  C   UNL     1      87.928  51.721  44.056  0.00  0.00    -0.039 C 
ATOM     18  C   UNL     1      87.017  49.405  43.749  0.00  0.00    -0.016 A 
ATOM     19  C   UNL     1      85.973  48.467  43.677  0.00  0.00    +0.132 A 
ATOM     20  C   UNL     1      84.633  48.897  43.856  0.00  0.00    +0.066 A 
ATOM     21  C   UNL     1      84.371  50.277  44.104  0.00  0.00    -0.003 A 
ATOM     22  C   UNL     1      83.039  50.703  44.289  0.00  0.00    -0.053 A 
ATOM     23  C   UNL     1      81.987  49.798  44.231  0.00  0.00    -0.058 A 
ATOM     24  C   UNL     1      82.232  48.453  43.987  0.00  0.00    -0.019 A 
ATOM     25  C   UNL     1      83.544  47.981  43.797  0.00  0.00    +0.131 A 
BRANCH  25  26
ATOM     26  O   UNL     1      83.783  46.618  43.551  0.00  0.00    -0.494 OA
ATOM     27  C   UNL     1      83.096  45.539  44.179  0.00  0.00    +0.079 C 
ENDBRANCH  25  26
BRANCH  19  28
ATOM     28  O   UNL     1      86.248  47.110  43.430  0.00  0.00    -0.494 OA
ATOM     29  C   UNL     1      87.238  46.623  42.529  0.00  0.00    +0.079 C 
ENDBRANCH  19  28
ENDBRANCH   4  15
BRANCH   1  31
ATOM     30  C   UNL     1      84.886  57.834  44.397  0.00  0.00    +0.079 C 
ATOM     31  O   UNL     1      84.338  56.725  45.101  0.00  0.00    -0.495 OA
ENDBRANCH   1  31
BRANCH   3  32
ATOM     32  O   UNL     1      84.728  52.939  42.070  0.00  0.00    -0.506 OA
ATOM     33  H   UNL     1      84.173  53.348  41.436  0.00  0.00    +0.000 HD
ENDBRANCH   3  32
TORSDOF 5
ENDMDL
MODEL 6
REMARK VINA RESULT:    -7.950      2.194      6.875
REMARK INTER + INTRA:         -11.467
REMARK INTER:                 -10.084
REMARK INTRA:                  -1.383
REMARK UNBOUND:                -1.425
REMARK  Name = 
REMARK  11 active torsions:
REMARK  status: ('A' for Active; 'I' for Inactive)
REMARK    1  A    between atoms: C_1  and  O_2
REMARK    2  A    between atoms: O_2  and  C_3
REMARK    3  A    between atoms: C_5  and  O_6
REMARK    4  A    between atoms: C_7  and  C_16
REMARK    5  A    between atoms: C_10  and  C_11
REMARK    6  A    between atoms: C_13  and  C_15
REMARK    7  A    between atoms: C_17  and  C_18
REMARK    8  A    between atoms: C_20  and  O_29
REMARK    9  A    between atoms: C_26  and  O_27
REMARK   10  A    between atoms: O_27  and  C_28
REMARK   11  A    between atoms: O_29  and  C_30
REMARK                            x       y       z     vdW  Elec       q    Type
REMARK                         _______ _______ _______ _____ _____    ______ ____
ROOT
ATOM      1  C   UNL     1      86.665  53.157  45.332  0.00  0.00    +0.128 A 
ATOM      2  C   UNL     1      86.880  52.074  46.200  0.00  0.00    +0.022 A 
ATOM      3  C   UNL     1      86.900  50.764  45.718  0.00  0.00    +0.128 A 
ATOM      4  C   UNL     1      86.737  50.519  44.348  0.00  0.00    +0.028 A 
ATOM      5  C   UNL     1      86.541  51.599  43.456  0.00  0.00    -0.027 A 
ATOM      6  C   UNL     1      86.432  52.918  43.958  0.00  0.00    +0.015 A 
ATOM      7  C   UNL     1      86.131  54.096  43.024  0.00  0.00    +0.034 C 
ATOM      8  C   UNL     1      84.779  54.727  43.388  0.00  0.00    -0.045 C 
ATOM      9  N   UNL     1      86.072  53.742  41.590  0.00  0.00    -0.307 N 
ATOM     10  C   UNL     1      86.897  52.597  41.189  0.00  0.00    +0.009 C 
ATOM     11  C   UNL     1      86.455  51.360  41.969  0.00  0.00    -0.011 C 
ATOM     12  C   UNL     1      88.405  52.884  41.325  0.00  0.00    -0.049 C 
ATOM     13  H   UNL     1      86.379  54.553  41.053  0.00  0.00    +0.000 HD
ATOM     14  H   UNL     1      85.107  53.469  41.407  0.00  0.00    +0.000 HD
ENDROOT
BRANCH   4  15
ATOM     15  C   UNL     1      86.796  49.116  43.858  0.00  0.00    -0.003 A 
ATOM     16  C   UNL     1      88.040  48.566  43.490  0.00  0.00    -0.039 A 
ATOM     17  C   UNL     1      89.308  49.379  43.582  0.00  0.00    -0.039 C 
ATOM     18  C   UNL     1      88.106  47.250  43.028  0.00  0.00    -0.016 A 
ATOM     19  C   UNL     1      86.956  46.451  42.920  0.00  0.00    +0.132 A 
ATOM     20  C   UNL     1      85.694  46.986  43.287  0.00  0.00    +0.066 A 
ATOM     21  C   UNL     1      85.619  48.330  43.758  0.00  0.00    -0.003 A 
ATOM     22  C   UNL     1      84.366  48.861  44.130  0.00  0.00    -0.053 A 
ATOM     23  C   UNL     1      83.212  48.093  44.041  0.00  0.00    -0.058 A 
ATOM     24  C   UNL     1      83.275  46.785  43.580  0.00  0.00    -0.019 A 
ATOM     25  C   UNL     1      84.502  46.212  43.199  0.00  0.00    +0.131 A 
BRANCH  25  26
ATOM     26  O   UNL     1      84.557  44.886  42.734  0.00  0.00    -0.494 OA
ATOM     27  C   UNL     1      84.314  43.729  43.528  0.00  0.00    +0.079 C 
ENDBRANCH  25  26
BRANCH  19  28
ATOM     28  O   UNL     1      87.046  45.128  42.451  0.00  0.00    -0.494 OA
ATOM     29  C   UNL     1      88.005  44.166  42.882  0.00  0.00    +0.079 C 
ENDBRANCH  19  28
ENDBRANCH   4  15
BRANCH   1  31
ATOM     30  C   UNL     1      86.057  54.942  46.985  0.00  0.00    +0.079 C 
ATOM     31  O   UNL     1      86.696  54.482  45.799  0.00  0.00    -0.495 OA
ENDBRANCH   1  31
BRANCH   3  32
ATOM     32  O   UNL     1      87.098  49.700  46.598  0.00  0.00    -0.506 OA
ATOM     33  H   UNL     1      86.366  49.314  47.038  0.00  0.00    +0.000 HD
ENDBRANCH   3  32
TORSDOF 5
ENDMDL
MODEL 7
REMARK VINA RESULT:    -7.810      2.584      7.077
REMARK INTER + INTRA:         -11.289
REMARK INTER:                 -10.030
REMARK INTRA:                  -1.260
REMARK UNBOUND:                -1.425
REMARK  Name = 
REMARK  11 active torsions:
REMARK  status: ('A' for Active; 'I' for Inactive)
REMARK    1  A    between atoms: C_1  and  O_2
REMARK    2  A    between atoms: O_2  and  C_3
REMARK    3  A    between atoms: C_5  and  O_6
REMARK    4  A    between atoms: C_7  and  C_16
REMARK    5  A    between atoms: C_10  and  C_11
REMARK    6  A    between atoms: C_13  and  C_15
REMARK    7  A    between atoms: C_17  and  C_18
REMARK    8  A    between atoms: C_20  and  O_29
REMARK    9  A    between atoms: C_26  and  O_27
REMARK   10  A    between atoms: O_27  and  C_28
REMARK   11  A    between atoms: O_29  and  C_30
REMARK                            x       y       z     vdW  Elec       q    Type
REMARK                         _______ _______ _______ _____ _____    ______ ____
ROOT
ATOM      1  C   UNL     1      85.533  54.785  42.797  0.00  0.00    +0.128 A 
ATOM      2  C   UNL     1      85.575  54.002  41.631  0.00  0.00    +0.022 A 
ATOM      3  C   UNL     1      86.139  52.726  41.647  0.00  0.00    +0.128 A 
ATOM      4  C   UNL     1      86.643  52.197  42.843  0.00  0.00    +0.028 A 
ATOM      5  C   UNL     1      86.589  52.963  44.032  0.00  0.00    -0.027 A 
ATOM      6  C   UNL     1      86.099  54.290  43.994  0.00  0.00    +0.015 A 
ATOM      7  C   UNL     1      86.111  55.173  45.248  0.00  0.00    +0.034 C 
ATOM      8  C   UNL     1      87.033  56.382  45.033  0.00  0.00    -0.045 C 
ATOM      9  N   UNL     1      86.573  54.489  46.474  0.00  0.00    -0.307 N 
ATOM     10  C   UNL     1      86.330  53.042  46.519  0.00  0.00    +0.009 C 
ATOM     11  C   UNL     1      87.042  52.375  45.345  0.00  0.00    -0.011 C 
ATOM     12  C   UNL     1      84.829  52.702  46.581  0.00  0.00    -0.049 C 
ATOM     13  H   UNL     1      86.095  54.912  47.270  0.00  0.00    +0.000 HD
ATOM     14  H   UNL     1      87.587  54.602  46.495  0.00  0.00    +0.000 HD
ENDROOT
BRANCH   4  15
ATOM     15  C   UNL     1      87.208  50.821  42.838  0.00  0.00    -0.003 A 
ATOM     16  C   UNL     1      88.543  50.625  42.434  0.00  0.00    -0.039 A 
ATOM     17  C   UNL     1      89.404  51.788  42.004  0.00  0.00    -0.039 C 
ATOM     18  C   UNL     1      89.082  49.337  42.424  0.00  0.00    -0.016 A 
ATOM     19  C   UNL     1      88.322  48.220  42.812  0.00  0.00    +0.132 A 
ATOM     20  C   UNL     1      86.976  48.398  43.224  0.00  0.00    +0.066 A 
ATOM     21  C   UNL     1      86.419  49.711  43.234  0.00  0.00    -0.003 A 
ATOM     22  C   UNL     1      85.083  49.888  43.650  0.00  0.00    -0.053 A 
ATOM     23  C   UNL     1      84.309  48.805  44.046  0.00  0.00    -0.058 A 
ATOM     24  C   UNL     1      84.842  47.522  44.035  0.00  0.00    -0.019 A 
ATOM     25  C   UNL     1      86.170  47.296  43.630  0.00  0.00    +0.131 A 
BRANCH  25  26
ATOM     26  O   UNL     1      86.702  45.994  43.623  0.00  0.00    -0.494 OA
ATOM     27  C   UNL     1      86.107  44.864  44.252  0.00  0.00    +0.079 C 
ENDBRANCH  25  26
BRANCH  19  28
ATOM     28  O   UNL     1      88.886  46.932  42.794  0.00  0.00    -0.494 OA
ATOM     29  C   UNL     1      90.100  46.575  42.141  0.00  0.00    +0.079 C 
ENDBRANCH  19  28
ENDBRANCH   4  15
BRANCH   1  31
ATOM     30  C   UNL     1      83.556  56.292  43.128  0.00  0.00    +0.079 C 
ATOM     31  O   UNL     1      84.920  56.050  42.803  0.00  0.00    -0.495 OA
ENDBRANCH   1  31
BRANCH   3  32
ATOM     32  O   UNL     1      86.188  51.970  40.476  0.00  0.00    -0.506 OA
ATOM     33  H   UNL     1      85.741  52.267  39.708  0.00  0.00    +0.000 HD
ENDBRANCH   3  32
TORSDOF 5
ENDMDL
MODEL 8
REMARK VINA RESULT:    -7.617      2.854      6.926
REMARK INTER + INTRA:         -11.046
REMARK INTER:                  -9.984
REMARK INTRA:                  -1.062
REMARK UNBOUND:                -1.425
REMARK  Name = 
REMARK  11 active torsions:
REMARK  status: ('A' for Active; 'I' for Inactive)
REMARK    1  A    between atoms: C_1  and  O_2
REMARK    2  A    between atoms: O_2  and  C_3
REMARK    3  A    between atoms: C_5  and  O_6
REMARK    4  A    between atoms: C_7  and  C_16
REMARK    5  A    between atoms: C_10  and  C_11
REMARK    6  A    between atoms: C_13  and  C_15
REMARK    7  A    between atoms: C_17  and  C_18
REMARK    8  A    between atoms: C_20  and  O_29
REMARK    9  A    between atoms: C_26  and  O_27
REMARK   10  A    between atoms: O_27  and  C_28
REMARK   11  A    between atoms: O_29  and  C_30
REMARK                            x       y       z     vdW  Elec       q    Type
REMARK                         _______ _______ _______ _____ _____    ______ ____
ROOT
ATOM      1  C   UNL     1      85.797  54.459  44.864  0.00  0.00    +0.128 A 
ATOM      2  C   UNL     1      85.838  53.569  45.950  0.00  0.00    +0.022 A 
ATOM      3  C   UNL     1      85.558  52.213  45.773  0.00  0.00    +0.128 A 
ATOM      4  C   UNL     1      85.264  51.718  44.496  0.00  0.00    +0.028 A 
ATOM      5  C   UNL     1      85.240  52.596  43.387  0.00  0.00    -0.027 A 
ATOM      6  C   UNL     1      85.436  53.984  43.582  0.00  0.00    +0.015 A 
ATOM      7  C   UNL     1      85.327  54.969  42.412  0.00  0.00    +0.034 C 
ATOM      8  C   UNL     1      84.159  55.939  42.644  0.00  0.00    -0.045 C 
ATOM      9  N   UNL     1      85.108  54.335  41.094  0.00  0.00    -0.307 N 
ATOM     10  C   UNL     1      85.654  52.980  40.949  0.00  0.00    +0.009 C 
ATOM     11  C   UNL     1      85.016  52.066  41.993  0.00  0.00    -0.011 C 
ATOM     12  C   UNL     1      87.193  52.960  40.996  0.00  0.00    -0.049 C 
ATOM     13  H   UNL     1      85.542  54.926  40.385  0.00  0.00    +0.000 HD
ATOM     14  H   UNL     1      84.098  54.242  40.991  0.00  0.00    +0.000 HD
ENDROOT
BRANCH   4  15
ATOM     15  C   UNL     1      85.003  50.263  44.332  0.00  0.00    -0.003 A 
ATOM     16  C   UNL     1      86.087  49.362  44.348  0.00  0.00    -0.039 A 
ATOM     17  C   UNL     1      87.503  49.852  44.524  0.00  0.00    -0.039 C 
ATOM     18  C   UNL     1      85.852  47.994  44.194  0.00  0.00    -0.016 A 
ATOM     19  C   UNL     1      84.553  47.486  44.024  0.00  0.00    +0.132 A 
ATOM     20  C   UNL     1      83.449  48.378  44.007  0.00  0.00    +0.066 A 
ATOM     21  C   UNL     1      83.682  49.776  44.162  0.00  0.00    -0.003 A 
ATOM     22  C   UNL     1      82.584  50.662  44.152  0.00  0.00    -0.053 A 
ATOM     23  C   UNL     1      81.288  50.190  43.993  0.00  0.00    -0.058 A 
ATOM     24  C   UNL     1      81.052  48.830  43.838  0.00  0.00    -0.019 A 
ATOM     25  C   UNL     1      82.115  47.908  43.842  0.00  0.00    +0.131 A 
BRANCH  25  26
ATOM     26  O   UNL     1      81.867  46.533  43.686  0.00  0.00    -0.494 OA
ATOM     27  C   UNL     1      80.664  45.869  44.060  0.00  0.00    +0.079 C 
ENDBRANCH  25  26
BRANCH  19  28
ATOM     28  O   UNL     1      84.340  46.104  43.871  0.00  0.00    -0.494 OA
ATOM     29  C   UNL     1      84.960  45.086  44.650  0.00  0.00    +0.079 C 
ENDBRANCH  19  28
ENDBRANCH   4  15
BRANCH   1  31
ATOM     30  C   UNL     1      85.649  56.655  46.066  0.00  0.00    +0.079 C 
ATOM     31  O   UNL     1      86.129  55.816  45.021  0.00  0.00    -0.495 OA
ENDBRANCH   1  31
BRANCH   3  32
ATOM     32  O   UNL     1      85.586  51.347  46.867  0.00  0.00    -0.506 OA
ATOM     33  H   UNL     1      85.093  51.549  47.637  0.00  0.00    +0.000 HD
ENDBRANCH   3  32
TORSDOF 5
ENDMDL
