MODEL 1
REMARK VINA RESULT:    -6.933      0.000      0.000
REMARK INTER + INTRA:          -7.753
REMARK INTER:                  -7.686
REMARK INTRA:                  -0.067
REMARK UNBOUND:                -0.009
REMARK  Name = 
REMARK  5 active torsions:
REMARK  status: ('A' for Active; 'I' for Inactive)
REMARK    1  A    between atoms: C_1  and  O_2
REMARK    2  A    between atoms: O_2  and  C_3
REMARK    3  A    between atoms: C_4  and  O_5
REMARK    4  A    between atoms: O_5  and  C_6
REMARK    5  A    between atoms: C_15  and  C_18
REMARK                            x       y       z     vdW  Elec       q    Type
REMARK                         _______ _______ _______ _____ _____    ______ ____
ROOT
ATOM      1  C   UNL     1      86.552  53.439  43.054  0.00  0.00    +0.173 A 
ATOM      2  C   UNL     1      86.222  53.531  44.429  0.00  0.00    +0.162 A 
ATOM      3  C   UNL     1      86.730  52.575  45.322  0.00  0.00    -0.016 A 
ATOM      4  C   UNL     1      87.532  51.532  44.875  0.00  0.00    -0.047 A 
ATOM      5  C   UNL     1      87.848  51.394  43.514  0.00  0.00    +0.031 A 
ATOM      6  C   UNL     1      87.378  52.373  42.601  0.00  0.00    +0.081 A 
ATOM      7  C   UNL     1      87.790  52.266  41.178  0.00  0.00    +0.237 C 
ATOM      8  O   UNL     1      87.383  53.081  40.308  0.00  0.00    -0.283 OA
ATOM      9  C   UNL     1      88.701  51.191  40.773  0.00  0.00    +0.232 C 
ATOM     10  O   UNL     1      89.088  51.123  39.575  0.00  0.00    -0.283 OA
ATOM     11  C   UNL     1      89.141  50.188  41.764  0.00  0.00    +0.042 C 
ATOM     12  C   UNL     1      88.697  50.245  43.037  0.00  0.00    +0.131 C 
ATOM     13  O   UNL     1      89.035  49.190  43.893  0.00  0.00    -0.506 OA
ATOM     14  C   UNL     1      90.001  49.031  41.314  0.00  0.00    -0.032 C 
ENDROOT
BRANCH   1  16
ATOM     15  C   UNL     1      84.751  54.612  41.704  0.00  0.00    +0.079 C 
ATOM     16  O   UNL     1      86.097  54.371  42.099  0.00  0.00    -0.491 OA
ENDBRANCH   1  16
BRANCH   2  17
ATOM     17  O   UNL     1      85.400  54.572  44.890  0.00  0.00    -0.491 OA
ATOM     18  C   UNL     1      85.865  55.808  45.427  0.00  0.00    +0.079 C 
ENDBRANCH   2  17
TORSDOF 2
ENDMDL
MODEL 2
REMARK VINA RESULT:    -6.749      3.142      6.002
REMARK INTER + INTRA:          -7.548
REMARK INTER:                  -7.527
REMARK INTRA:                  -0.021
REMARK UNBOUND:                -0.009
REMARK  Name = 
REMARK  5 active torsions:
REMARK  status: ('A' for Active; 'I' for Inactive)
REMARK    1  A    between atoms: C_1  and  O_2
REMARK    2  A    between atoms: O_2  and  C_3
REMARK    3  A    between atoms: C_4  and  O_5
REMARK    4  A    between atoms: O_5  and  C_6
REMARK    5  A    between atoms: C_15  and  C_18
REMARK                            x       y       z     vdW  Elec       q    Type
REMARK                         _______ _______ _______ _____ _____    ______ ____
ROOT
ATOM      1  C   UNL     1      84.854  53.160  43.444  0.00  0.00    +0.173 A 
ATOM      2  C   UNL     1      84.639  51.997  44.225  0.00  0.00    +0.162 A 
ATOM      3  C   UNL     1      84.478  52.123  45.612  0.00  0.00    -0.016 A 
ATOM      4  C   UNL     1      84.546  53.364  46.232  0.00  0.00    -0.047 A 
ATOM      5  C   UNL     1      84.794  54.531  45.491  0.00  0.00    +0.031 A 
ATOM      6  C   UNL     1      84.920  54.429  44.081  0.00  0.00    +0.081 A 
ATOM      7  C   UNL     1      85.094  55.680  43.298  0.00  0.00    +0.237 C 
ATOM      8  O   UNL     1      85.245  55.660  42.047  0.00  0.00    -0.283 OA
ATOM      9  C   UNL     1      85.082  56.971  43.991  0.00  0.00    +0.232 C 
ATOM     10  O   UNL     1      85.186  58.036  43.326  0.00  0.00    -0.283 OA
ATOM     11  C   UNL     1      84.970  57.012  45.464  0.00  0.00    +0.042 C 
ATOM     12  C   UNL     1      84.893  55.868  46.176  0.00  0.00    +0.131 C 
ATOM     13  O   UNL     1      84.930  55.966  47.572  0.00  0.00    -0.506 OA
ATOM     14  C   UNL     1      85.056  58.342  46.175  0.00  0.00    -0.032 C 
ENDROOT
BRANCH   1  16
ATOM     15  C   UNL     1      86.116  52.607  41.312  0.00  0.00    +0.079 C 
ATOM     16  O   UNL     1      85.006  53.118  42.042  0.00  0.00    -0.491 OA
ENDBRANCH   1  16
BRANCH   2  17
ATOM     17  O   UNL     1      84.581  50.735  43.611  0.00  0.00    -0.491 OA
ATOM     18  C   UNL     1      84.378  49.500  44.292  0.00  0.00    +0.079 C 
ENDBRANCH   2  17
TORSDOF 2
ENDMDL
MODEL 3
REMARK VINA RESULT:    -6.660      2.823      5.699
REMARK INTER + INTRA:          -7.448
REMARK INTER:                  -7.395
REMARK INTRA:                  -0.053
REMARK UNBOUND:                -0.009
REMARK  Name = 
REMARK  5 active torsions:
REMARK  status: ('A' for Active; 'I' for Inactive)
REMARK    1  A    between atoms: C_1  and  O_2
REMARK    2  A    between atoms: O_2  and  C_3
REMARK    3  A    between atoms: C_4  and  O_5
REMARK    4  A    between atoms: O_5  and  C_6
REMARK    5  A    between atoms: C_15  and  C_18
REMARK                            x       y       z     vdW  Elec       q    Type
REMARK                         _______ _______ _______ _____ _____    ______ ____
ROOT
ATOM      1  C   UNL     1      85.628  54.486  42.907  0.00  0.00    +0.173 A 
ATOM      2  C   UNL     1      84.879  55.546  42.336  0.00  0.00    +0.162 A 
ATOM      3  C   UNL     1      84.150  56.400  43.176  0.00  0.00    -0.016 A 
ATOM      4  C   UNL     1      84.135  56.211  44.552  0.00  0.00    -0.047 A 
ATOM      5  C   UNL     1      84.838  55.150  45.145  0.00  0.00    +0.031 A 
ATOM      6  C   UNL     1      85.614  54.299  44.317  0.00  0.00    +0.081 A 
ATOM      7  C   UNL     1      86.423  53.234  44.963  0.00  0.00    +0.237 C 
ATOM      8  O   UNL     1      87.110  52.422  44.285  0.00  0.00    -0.283 OA
ATOM      9  C   UNL     1      86.434  53.125  46.424  0.00  0.00    +0.232 C 
ATOM     10  O   UNL     1      87.153  52.251  46.978  0.00  0.00    -0.283 OA
ATOM     11  C   UNL     1      85.588  54.026  47.234  0.00  0.00    +0.042 C 
ATOM     12  C   UNL     1      84.794  54.938  46.635  0.00  0.00    +0.131 C 
ATOM     13  O   UNL     1      83.913  55.666  47.445  0.00  0.00    -0.506 OA
ATOM     14  C   UNL     1      85.533  53.842  48.732  0.00  0.00    -0.032 C 
ENDROOT
BRANCH   1  16
ATOM     15  C   UNL     1      85.927  52.556  41.286  0.00  0.00    +0.079 C 
ATOM     16  O   UNL     1      86.402  53.598  42.132  0.00  0.00    -0.491 OA
ENDBRANCH   1  16
BRANCH   2  17
ATOM     17  O   UNL     1      84.875  55.738  40.945  0.00  0.00    -0.491 OA
ATOM     18  C   UNL     1      83.838  55.322  40.062  0.00  0.00    +0.079 C 
ENDBRANCH   2  17
TORSDOF 2
ENDMDL
MODEL 4
REMARK VINA RESULT:    -6.616      2.958      4.321
REMARK INTER + INTRA:          -7.399
REMARK INTER:                  -7.334
REMARK INTRA:                  -0.065
REMARK UNBOUND:                -0.009
REMARK  Name = 
REMARK  5 active torsions:
REMARK  status: ('A' for Active; 'I' for Inactive)
REMARK    1  A    between atoms: C_1  and  O_2
REMARK    2  A    between atoms: O_2  and  C_3
REMARK    3  A    between atoms: C_4  and  O_5
REMARK    4  A    between atoms: O_5  and  C_6
REMARK    5  A    between atoms: C_15  and  C_18
REMARK                            x       y       z     vdW  Elec       q    Type
REMARK                         _______ _______ _______ _____ _____    ______ ____
ROOT
ATOM      1  C   UNL     1      85.405  55.257  45.047  0.00  0.00    +0.173 A 
ATOM      2  C   UNL     1      84.764  56.155  45.937  0.00  0.00    +0.162 A 
ATOM      3  C   UNL     1      84.674  55.824  47.297  0.00  0.00    -0.016 A 
ATOM      4  C   UNL     1      85.183  54.624  47.779  0.00  0.00    -0.047 A 
ATOM      5  C   UNL     1      85.791  53.698  46.916  0.00  0.00    +0.031 A 
ATOM      6  C   UNL     1      85.928  54.032  45.544  0.00  0.00    +0.081 A 
ATOM      7  C   UNL     1      86.651  53.084  44.657  0.00  0.00    +0.237 C 
ATOM      8  O   UNL     1      86.781  53.302  43.422  0.00  0.00    -0.283 OA
ATOM      9  C   UNL     1      87.237  51.868  45.229  0.00  0.00    +0.232 C 
ATOM     10  O   UNL     1      87.888  51.084  44.488  0.00  0.00    -0.283 OA
ATOM     11  C   UNL     1      87.042  51.563  46.661  0.00  0.00    +0.042 C 
ATOM     12  C   UNL     1      86.316  52.389  47.443  0.00  0.00    +0.131 C 
ATOM     13  O   UNL     1      86.049  51.977  48.755  0.00  0.00    -0.506 OA
ATOM     14  C   UNL     1      87.567  50.261  47.218  0.00  0.00    -0.032 C 
ENDROOT
BRANCH   1  16
ATOM     15  C   UNL     1      84.515  55.706  42.712  0.00  0.00    +0.079 C 
ATOM     16  O   UNL     1      85.552  55.527  43.670  0.00  0.00    -0.491 OA
ENDBRANCH   1  16
BRANCH   2  17
ATOM     17  O   UNL     1      84.234  57.365  45.460  0.00  0.00    -0.491 OA
ATOM     18  C   UNL     1      84.928  58.608  45.425  0.00  0.00    +0.079 C 
ENDBRANCH   2  17
TORSDOF 2
ENDMDL
MODEL 5
REMARK VINA RESULT:    -6.541      4.849      6.696
REMARK INTER + INTRA:          -7.315
REMARK INTER:                  -7.306
REMARK INTRA:                  -0.009
REMARK UNBOUND:                -0.009
REMARK  Name = 
REMARK  5 active torsions:
REMARK  status: ('A' for Active; 'I' for Inactive)
REMARK    1  A    between atoms: C_1  and  O_2
REMARK    2  A    between atoms: O_2  and  C_3
REMARK    3  A    between atoms: C_4  and  O_5
REMARK    4  A    between atoms: O_5  and  C_6
REMARK    5  A    between atoms: C_15  and  C_18
REMARK                            x       y       z     vdW  Elec       q    Type
REMARK                         _______ _______ _______ _____ _____    ______ ____
ROOT
ATOM      1  C   UNL     1      83.090  49.454  43.954  0.00  0.00    +0.173 A 
ATOM      2  C   UNL     1      81.808  48.859  44.062  0.00  0.00    +0.162 A 
ATOM      3  C   UNL     1      80.705  49.496  43.474  0.00  0.00    -0.016 A 
ATOM      4  C   UNL     1      80.848  50.706  42.807  0.00  0.00    -0.047 A 
ATOM      5  C   UNL     1      82.098  51.339  42.714  0.00  0.00    +0.031 A 
ATOM      6  C   UNL     1      83.233  50.691  43.268  0.00  0.00    +0.081 A 
ATOM      7  C   UNL     1      84.564  51.325  43.087  0.00  0.00    +0.237 C 
ATOM      8  O   UNL     1      85.609  50.822  43.580  0.00  0.00    -0.283 OA
ATOM      9  C   UNL     1      84.671  52.563  42.309  0.00  0.00    +0.232 C 
ATOM     10  O   UNL     1      85.804  53.081  42.117  0.00  0.00    -0.283 OA
ATOM     11  C   UNL     1      83.451  53.203  41.776  0.00  0.00    +0.042 C 
ATOM     12  C   UNL     1      82.237  52.664  42.013  0.00  0.00    +0.131 C 
ATOM     13  O   UNL     1      81.111  53.388  41.603  0.00  0.00    -0.506 OA
ATOM     14  C   UNL     1      83.564  54.528  41.060  0.00  0.00    -0.032 C 
ENDROOT
BRANCH   1  16
ATOM     15  C   UNL     1      84.918  47.695  44.046  0.00  0.00    +0.079 C 
ATOM     16  O   UNL     1      84.249  48.866  44.502  0.00  0.00    -0.491 OA
ENDBRANCH   1  16
BRANCH   2  17
ATOM     17  O   UNL     1      81.649  47.642  44.745  0.00  0.00    -0.491 OA
ATOM     18  C   UNL     1      80.401  47.079  45.139  0.00  0.00    +0.079 C 
ENDBRANCH   2  17
TORSDOF 2
ENDMDL
MODEL 6
REMARK VINA RESULT:    -6.496      1.639      2.930
REMARK INTER + INTRA:          -7.264
REMARK INTER:                  -7.212
REMARK INTRA:                  -0.052
REMARK UNBOUND:                -0.009
REMARK  Name = 
REMARK  5 active torsions:
REMARK  status: ('A' for Active; 'I' for Inactive)
REMARK    1  A    between atoms: C_1  and  O_2
REMARK    2  A    between atoms: O_2  and  C_3
REMARK    3  A    between atoms: C_4  and  O_5
REMARK    4  A    between atoms: O_5  and  C_6
REMARK    5  A    between atoms: C_15  and  C_18
REMARK                            x       y       z     vdW  Elec       q    Type
REMARK                         _______ _______ _______ _____ _____    ______ ____
ROOT
ATOM      1  C   UNL     1      85.606  54.731  45.543  0.00  0.00    +0.173 A 
ATOM      2  C   UNL     1      85.449  54.495  46.932  0.00  0.00    +0.162 A 
ATOM      3  C   UNL     1      86.001  53.335  47.497  0.00  0.00    -0.016 A 
ATOM      4  C   UNL     1      86.678  52.408  46.714  0.00  0.00    -0.047 A 
ATOM      5  C   UNL     1      86.819  52.596  45.330  0.00  0.00    +0.031 A 
ATOM      6  C   UNL     1      86.304  53.782  44.746  0.00  0.00    +0.081 A 
ATOM      7  C   UNL     1      86.535  54.012  43.296  0.00  0.00    +0.237 C 
ATOM      8  O   UNL     1      86.077  55.027  42.707  0.00  0.00    -0.283 OA
ATOM      9  C   UNL     1      87.322  53.041  42.531  0.00  0.00    +0.232 C 
ATOM     10  O   UNL     1      87.557  53.254  41.311  0.00  0.00    -0.283 OA
ATOM     11  C   UNL     1      87.815  51.813  43.189  0.00  0.00    +0.042 C 
ATOM     12  C   UNL     1      87.532  51.573  44.486  0.00  0.00    +0.131 C 
ATOM     13  O   UNL     1      87.905  50.331  45.014  0.00  0.00    -0.506 OA
ATOM     14  C   UNL     1      88.541  50.775  42.367  0.00  0.00    -0.032 C 
ENDROOT
BRANCH   1  16
ATOM     15  C   UNL     1      85.510  57.229  45.105  0.00  0.00    +0.079 C 
ATOM     16  O   UNL     1      85.098  55.881  44.906  0.00  0.00    -0.491 OA
ENDBRANCH   1  16
BRANCH   2  17
ATOM     17  O   UNL     1      84.755  55.417  47.731  0.00  0.00    -0.491 OA
ATOM     18  C   UNL     1      83.416  55.260  48.192  0.00  0.00    +0.079 C 
ENDBRANCH   2  17
TORSDOF 2
ENDMDL
MODEL 7
REMARK VINA RESULT:    -6.459      4.306      6.206
REMARK INTER + INTRA:          -7.224
REMARK INTER:                  -7.193
REMARK INTRA:                  -0.031
REMARK UNBOUND:                -0.009
REMARK  Name = 
REMARK  5 active torsions:
REMARK  status: ('A' for Active; 'I' for Inactive)
REMARK    1  A    between atoms: C_1  and  O_2
REMARK    2  A    between atoms: O_2  and  C_3
REMARK    3  A    between atoms: C_4  and  O_5
REMARK    4  A    between atoms: O_5  and  C_6
REMARK    5  A    between atoms: C_15  and  C_18
REMARK                            x       y       z     vdW  Elec       q    Type
REMARK                         _______ _______ _______ _____ _____    ______ ____
ROOT
ATOM      1  C   UNL     1      85.515  46.473  43.489  0.00  0.00    +0.173 A 
ATOM      2  C   UNL     1      84.409  47.241  43.932  0.00  0.00    +0.162 A 
ATOM      3  C   UNL     1      84.556  48.628  44.088  0.00  0.00    -0.016 A 
ATOM      4  C   UNL     1      85.771  49.253  43.836  0.00  0.00    -0.047 A 
ATOM      5  C   UNL     1      86.895  48.514  43.431  0.00  0.00    +0.031 A 
ATOM      6  C   UNL     1      86.756  47.117  43.228  0.00  0.00    +0.081 A 
ATOM      7  C   UNL     1      87.927  46.359  42.715  0.00  0.00    +0.237 C 
ATOM      8  O   UNL     1      87.883  45.111  42.544  0.00  0.00    -0.283 OA
ATOM      9  C   UNL     1      89.162  47.078  42.392  0.00  0.00    +0.232 C 
ATOM     10  O   UNL     1      90.143  46.445  41.915  0.00  0.00    -0.283 OA
ATOM     11  C   UNL     1      89.255  48.531  42.644  0.00  0.00    +0.042 C 
ATOM     12  C   UNL     1      88.214  49.197  43.186  0.00  0.00    +0.131 C 
ATOM     13  O   UNL     1      88.410  50.540  43.532  0.00  0.00    -0.506 OA
ATOM     14  C   UNL     1      90.564  49.242  42.398  0.00  0.00    -0.032 C 
ENDROOT
BRANCH   1  16
ATOM     15  C   UNL     1      85.284  44.074  44.285  0.00  0.00    +0.079 C 
ATOM     16  O   UNL     1      85.441  45.079  43.290  0.00  0.00    -0.491 OA
ENDBRANCH   1  16
BRANCH   2  17
ATOM     17  O   UNL     1      83.180  46.619  44.203  0.00  0.00    -0.491 OA
ATOM     18  C   UNL     1      81.903  47.126  43.825  0.00  0.00    +0.079 C 
ENDBRANCH   2  17
TORSDOF 2
ENDMDL
MODEL 8
REMARK VINA RESULT:    -6.439      3.535      5.738
REMARK INTER + INTRA:          -7.201
REMARK INTER:                  -7.144
REMARK INTRA:                  -0.057
REMARK UNBOUND:                -0.009
REMARK  Name = 
REMARK  5 active torsions:
REMARK  status: ('A' for Active; 'I' for Inactive)
REMARK    1  A    between atoms: C_1  and  O_2
REMARK    2  A    between atoms: O_2  and  C_3
REMARK    3  A    between atoms: C_4  and  O_5
REMARK    4  A    between atoms: O_5  and  C_6
REMARK    5  A    between atoms: C_15  and  C_18
REMARK                            x       y       z     vdW  Elec       q    Type
REMARK                         _______ _______ _______ _____ _____    ______ ____
ROOT
ATOM      1  C   UNL     1      88.022  49.432  42.629  0.00  0.00    +0.173 A 
ATOM      2  C   UNL     1      89.249  49.544  41.928  0.00  0.00    +0.162 A 
ATOM      3  C   UNL     1      89.930  48.378  41.546  0.00  0.00    -0.016 A 
ATOM      4  C   UNL     1      89.432  47.121  41.864  0.00  0.00    -0.047 A 
ATOM      5  C   UNL     1      88.237  46.977  42.589  0.00  0.00    +0.031 A 
ATOM      6  C   UNL     1      87.513  48.143  42.948  0.00  0.00    +0.081 A 
ATOM      7  C   UNL     1      86.208  47.977  43.638  0.00  0.00    +0.237 C 
ATOM      8  O   UNL     1      85.528  48.969  44.014  0.00  0.00    -0.283 OA
ATOM      9  C   UNL     1      85.689  46.628  43.880  0.00  0.00    +0.232 C 
ATOM     10  O   UNL     1      84.562  46.483  44.425  0.00  0.00    -0.283 OA
ATOM     11  C   UNL     1      86.499  45.451  43.503  0.00  0.00    +0.042 C 
ATOM     12  C   UNL     1      87.719  45.610  42.950  0.00  0.00    +0.131 C 
ATOM     13  O   UNL     1      88.496  44.463  42.744  0.00  0.00    -0.506 OA
ATOM     14  C   UNL     1      85.998  44.068  43.845  0.00  0.00    -0.032 C 
ENDROOT
BRANCH   1  16
ATOM     15  C   UNL     1      87.623  51.522  44.013  0.00  0.00    +0.079 C 
ATOM     16  O   UNL     1      87.270  50.556  43.029  0.00  0.00    -0.491 OA
ENDBRANCH   1  16
BRANCH   2  17
ATOM     17  O   UNL     1      89.770  50.810  41.613  0.00  0.00    -0.491 OA
ATOM     18  C   UNL     1      89.378  51.604  40.498  0.00  0.00    +0.079 C 
ENDBRANCH   2  17
TORSDOF 2
ENDMDL
MODEL 9
REMARK VINA RESULT:    -6.437      2.471      5.960
REMARK INTER + INTRA:          -7.199
REMARK INTER:                  -7.190
REMARK INTRA:                  -0.009
REMARK UNBOUND:                -0.009
REMARK  Name = 
REMARK  5 active torsions:
REMARK  status: ('A' for Active; 'I' for Inactive)
REMARK    1  A    between atoms: C_1  and  O_2
REMARK    2  A    between atoms: O_2  and  C_3
REMARK    3  A    between atoms: C_4  and  O_5
REMARK    4  A    between atoms: O_5  and  C_6
REMARK    5  A    between atoms: C_15  and  C_18
REMARK                            x       y       z     vdW  Elec       q    Type
REMARK                         _______ _______ _______ _____ _____    ______ ____
ROOT
ATOM      1  C   UNL     1      85.997  54.533  43.620  0.00  0.00    +0.173 A 
ATOM      2  C   UNL     1      86.797  53.463  43.148  0.00  0.00    +0.162 A 
ATOM      3  C   UNL     1      87.132  52.419  44.023  0.00  0.00    -0.016 A 
ATOM      4  C   UNL     1      86.709  52.430  45.347  0.00  0.00    -0.047 A 
ATOM      5  C   UNL     1      85.945  53.494  45.854  0.00  0.00    +0.031 A 
ATOM      6  C   UNL     1      85.563  54.539  44.974  0.00  0.00    +0.081 A 
ATOM      7  C   UNL     1      84.682  55.614  45.498  0.00  0.00    +0.237 C 
ATOM      8  O   UNL     1      84.331  56.589  44.781  0.00  0.00    -0.283 OA
ATOM      9  C   UNL     1      84.200  55.539  46.880  0.00  0.00    +0.232 C 
ATOM     10  O   UNL     1      83.418  56.426  47.316  0.00  0.00    -0.283 OA
ATOM     11  C   UNL     1      84.650  54.438  47.757  0.00  0.00    +0.042 C 
ATOM     12  C   UNL     1      85.514  53.509  47.297  0.00  0.00    +0.131 C 
ATOM     13  O   UNL     1      86.013  52.573  48.211  0.00  0.00    -0.506 OA
ATOM     14  C   UNL     1      84.225  54.424  49.205  0.00  0.00    -0.032 C 
ENDROOT
BRANCH   1  16
ATOM     15  C   UNL     1      84.578  55.605  41.808  0.00  0.00    +0.079 C 
ATOM     16  O   UNL     1      85.603  55.608  42.797  0.00  0.00    -0.491 OA
ENDBRANCH   1  16
BRANCH   2  17
ATOM     17  O   UNL     1      87.242  53.447  41.816  0.00  0.00    -0.491 OA
ATOM     18  C   UNL     1      86.754  52.578  40.798  0.00  0.00    +0.079 C 
ENDBRANCH   2  17
TORSDOF 2
ENDMDL
