MODEL 1
REMARK VINA RESULT:    -9.849      0.000      0.000
REMARK INTER + INTRA:         -13.381
REMARK INTER:                 -12.014
REMARK INTRA:                  -1.367
REMARK UNBOUND:                -0.653
REMARK  Name = 
REMARK  12 active torsions:
REMARK  status: ('A' for Active; 'I' for Inactive)
REMARK    1  A    between atoms: C_1  and  O_2
REMARK    2  A    between atoms: O_2  and  C_3
REMARK    3  A    between atoms: C_5  and  O_6
REMARK    4  A    between atoms: O_6  and  C_7
REMARK    5  A    between atoms: C_10  and  C_11
REMARK    6  A    between atoms: C_14  and  O_24
REMARK    7  A    between atoms: C_18  and  C_19
REMARK    8  A    between atoms: C_21  and  O_22
REMARK    9  A    between atoms: O_22  and  C_23
REMARK   10  A    between atoms: O_24  and  C_25
REMARK   11  A    between atoms: C_27  and  C_31
REMARK   12  A    between atoms: C_29  and  C_30
REMARK                            x       y       z     vdW  Elec       q    Type
REMARK                         _______ _______ _______ _____ _____    ______ ____
ROOT
ATOM      1  C   UNL     1      86.617  51.115  45.942  0.00  0.00    +0.132 A 
ATOM      2  C   UNL     1      86.773  52.433  46.397  0.00  0.00    +0.023 A 
ATOM      3  C   UNL     1      86.606  53.527  45.528  0.00  0.00    +0.133 A 
ATOM      4  C   UNL     1      86.264  53.295  44.176  0.00  0.00    +0.041 A 
ATOM      5  C   UNL     1      86.165  51.966  43.700  0.00  0.00    -0.022 A 
ATOM      6  C   UNL     1      86.311  50.881  44.593  0.00  0.00    +0.028 A 
ATOM      7  C   UNL     1      85.831  51.736  42.236  0.00  0.00    -0.004 C 
ATOM      8  C   UNL     1      86.409  52.858  41.358  0.00  0.00    +0.052 C 
ATOM      9  N   UNL     1      86.064  54.164  41.920  0.00  0.00    -0.284 NA
ATOM     10  C   UNL     1      86.020  54.406  43.199  0.00  0.00    +0.044 C 
ATOM     11  C   UNL     1      85.641  55.793  43.633  0.00  0.00    -0.022 C 
ATOM     12  C   UNL     1      87.930  52.738  41.211  0.00  0.00    -0.042 C 
ENDROOT
BRANCH   6  13
ATOM     13  C   UNL     1      86.139  49.482  44.131  0.00  0.00    -0.006 A 
ATOM     14  C   UNL     1      84.877  48.900  44.265  0.00  0.00    -0.050 A 
ATOM     15  C   UNL     1      84.657  47.585  43.876  0.00  0.00    -0.019 A 
ATOM     16  C   UNL     1      85.696  46.807  43.334  0.00  0.00    +0.131 A 
ATOM     17  C   UNL     1      86.990  47.378  43.181  0.00  0.00    +0.066 A 
ATOM     18  C   UNL     1      87.206  48.730  43.581  0.00  0.00    -0.003 A 
ATOM     19  C   UNL     1      88.481  49.306  43.418  0.00  0.00    -0.050 A 
ATOM     20  C   UNL     1      89.543  48.564  42.899  0.00  0.00    -0.046 A 
ATOM     21  C   UNL     1      90.886  49.207  42.705  0.00  0.00    -0.040 C 
ATOM     22  C   UNL     1      89.333  47.245  42.495  0.00  0.00    -0.016 A 
ATOM     23  C   UNL     1      88.072  46.636  42.631  0.00  0.00    +0.132 A 
BRANCH  23  24
ATOM     24  O   UNL     1      87.875  45.304  42.227  0.00  0.00    -0.494 OA
ATOM     25  C   UNL     1      88.412  44.159  42.884  0.00  0.00    +0.079 C 
ENDBRANCH  23  24
BRANCH  16  26
ATOM     26  O   UNL     1      85.465  45.476  42.947  0.00  0.00    -0.494 OA
ATOM     27  C   UNL     1      84.676  44.538  43.673  0.00  0.00    +0.079 C 
ENDBRANCH  16  26
ENDBRANCH   6  13
BRANCH   1  29
ATOM     28  C   UNL     1      87.423  50.045  48.062  0.00  0.00    +0.079 C 
ATOM     29  O   UNL     1      86.758  50.013  46.803  0.00  0.00    -0.494 OA
ENDBRANCH   1  29
BRANCH   3  30
ATOM     30  O   UNL     1      86.797  54.843  45.982  0.00  0.00    -0.494 OA
ATOM     31  C   UNL     1      86.185  55.411  47.135  0.00  0.00    +0.079 C 
ENDBRANCH   3  30
TORSDOF 5
ENDMDL
MODEL 2
REMARK VINA RESULT:    -9.373      2.043      7.228
REMARK INTER + INTRA:         -12.766
REMARK INTER:                 -11.460
REMARK INTRA:                  -1.306
REMARK UNBOUND:                -0.653
REMARK  Name = 
REMARK  12 active torsions:
REMARK  status: ('A' for Active; 'I' for Inactive)
REMARK    1  A    between atoms: C_1  and  O_2
REMARK    2  A    between atoms: O_2  and  C_3
REMARK    3  A    between atoms: C_5  and  O_6
REMARK    4  A    between atoms: O_6  and  C_7
REMARK    5  A    between atoms: C_10  and  C_11
REMARK    6  A    between atoms: C_14  and  O_24
REMARK    7  A    between atoms: C_18  and  C_19
REMARK    8  A    between atoms: C_21  and  O_22
REMARK    9  A    between atoms: O_22  and  C_23
REMARK   10  A    between atoms: O_24  and  C_25
REMARK   11  A    between atoms: C_27  and  C_31
REMARK   12  A    between atoms: C_29  and  C_30
REMARK                            x       y       z     vdW  Elec       q    Type
REMARK                         _______ _______ _______ _____ _____    ______ ____
ROOT
ATOM      1  C   UNL     1      85.279  49.445  43.808  0.00  0.00    +0.132 A 
ATOM      2  C   UNL     1      85.757  48.148  43.568  0.00  0.00    +0.023 A 
ATOM      3  C   UNL     1      87.077  47.927  43.137  0.00  0.00    +0.133 A 
ATOM      4  C   UNL     1      87.942  49.031  42.951  0.00  0.00    +0.041 A 
ATOM      5  C   UNL     1      87.446  50.344  43.134  0.00  0.00    -0.022 A 
ATOM      6  C   UNL     1      86.124  50.544  43.592  0.00  0.00    +0.028 A 
ATOM      7  C   UNL     1      88.378  51.518  42.896  0.00  0.00    -0.004 C 
ATOM      8  C   UNL     1      89.397  51.196  41.791  0.00  0.00    +0.052 C 
ATOM      9  N   UNL     1      90.018  49.896  42.044  0.00  0.00    -0.284 NA
ATOM     10  C   UNL     1      89.376  48.878  42.542  0.00  0.00    +0.044 C 
ATOM     11  C   UNL     1      90.145  47.607  42.756  0.00  0.00    -0.022 C 
ATOM     12  C   UNL     1      88.749  51.204  40.402  0.00  0.00    -0.042 C 
ENDROOT
BRANCH   6  13
ATOM     13  C   UNL     1      85.606  51.909  43.861  0.00  0.00    -0.006 A 
ATOM     14  C   UNL     1      85.147  52.658  42.776  0.00  0.00    -0.050 A 
ATOM     15  C   UNL     1      84.674  53.951  42.957  0.00  0.00    -0.019 A 
ATOM     16  C   UNL     1      84.642  54.538  44.235  0.00  0.00    +0.131 A 
ATOM     17  C   UNL     1      85.098  53.794  45.358  0.00  0.00    +0.066 A 
ATOM     18  C   UNL     1      85.580  52.465  45.163  0.00  0.00    -0.003 A 
ATOM     19  C   UNL     1      86.019  51.717  46.273  0.00  0.00    -0.050 A 
ATOM     20  C   UNL     1      86.018  52.267  47.556  0.00  0.00    -0.046 A 
ATOM     21  C   UNL     1      86.462  51.441  48.728  0.00  0.00    -0.040 C 
ATOM     22  C   UNL     1      85.537  53.562  47.752  0.00  0.00    -0.016 A 
ATOM     23  C   UNL     1      85.079  54.338  46.672  0.00  0.00    +0.132 A 
BRANCH  23  24
ATOM     24  O   UNL     1      84.603  55.644  46.882  0.00  0.00    -0.494 OA
ATOM     25  C   UNL     1      83.720  56.038  47.929  0.00  0.00    +0.079 C 
ENDBRANCH  23  24
BRANCH  16  26
ATOM     26  O   UNL     1      84.166  55.850  44.407  0.00  0.00    -0.494 OA
ATOM     27  C   UNL     1      84.525  56.964  43.598  0.00  0.00    +0.079 C 
ENDBRANCH  16  26
ENDBRANCH   6  13
BRANCH   1  29
ATOM     28  C   UNL     1      82.843  48.864  43.953  0.00  0.00    +0.079 C 
ATOM     29  O   UNL     1      83.969  49.680  44.261  0.00  0.00    -0.494 OA
ENDBRANCH   1  29
BRANCH   3  30
ATOM     30  O   UNL     1      87.539  46.629  42.866  0.00  0.00    -0.494 OA
ATOM     31  C   UNL     1      86.820  45.430  43.134  0.00  0.00    +0.079 C 
ENDBRANCH   3  30
TORSDOF 5
ENDMDL
MODEL 3
REMARK VINA RESULT:    -9.267      0.894      2.972
REMARK INTER + INTRA:         -12.629
REMARK INTER:                 -11.265
REMARK INTRA:                  -1.364
REMARK UNBOUND:                -0.653
REMARK  Name = 
REMARK  12 active torsions:
REMARK  status: ('A' for Active; 'I' for Inactive)
REMARK    1  A    between atoms: C_1  and  O_2
REMARK    2  A    between atoms: O_2  and  C_3
REMARK    3  A    between atoms: C_5  and  O_6
REMARK    4  A    between atoms: O_6  and  C_7
REMARK    5  A    between atoms: C_10  and  C_11
REMARK    6  A    between atoms: C_14  and  O_24
REMARK    7  A    between atoms: C_18  and  C_19
REMARK    8  A    between atoms: C_21  and  O_22
REMARK    9  A    between atoms: O_22  and  C_23
REMARK   10  A    between atoms: O_24  and  C_25
REMARK   11  A    between atoms: C_27  and  C_31
REMARK   12  A    between atoms: C_29  and  C_30
REMARK                            x       y       z     vdW  Elec       q    Type
REMARK                         _______ _______ _______ _____ _____    ______ ____
ROOT
ATOM      1  C   UNL     1      86.790  51.120  45.778  0.00  0.00    +0.132 A 
ATOM      2  C   UNL     1      86.725  52.450  46.221  0.00  0.00    +0.023 A 
ATOM      3  C   UNL     1      86.468  53.503  45.325  0.00  0.00    +0.133 A 
ATOM      4  C   UNL     1      86.261  53.217  43.955  0.00  0.00    +0.041 A 
ATOM      5  C   UNL     1      86.385  51.884  43.495  0.00  0.00    -0.022 A 
ATOM      6  C   UNL     1      86.618  50.836  44.414  0.00  0.00    +0.028 A 
ATOM      7  C   UNL     1      86.194  51.600  42.016  0.00  0.00    -0.004 C 
ATOM      8  C   UNL     1      86.669  52.787  41.163  0.00  0.00    +0.052 C 
ATOM      9  N   UNL     1      86.104  54.034  41.677  0.00  0.00    -0.284 NA
ATOM     10  C   UNL     1      85.934  54.276  42.946  0.00  0.00    +0.044 C 
ATOM     11  C   UNL     1      85.333  55.597  43.328  0.00  0.00    -0.022 C 
ATOM     12  C   UNL     1      88.198  52.883  41.126  0.00  0.00    -0.042 C 
ENDROOT
BRANCH   6  13
ATOM     13  C   UNL     1      86.679  49.424  43.964  0.00  0.00    -0.006 A 
ATOM     14  C   UNL     1      87.930  48.893  43.647  0.00  0.00    -0.050 A 
ATOM     15  C   UNL     1      88.051  47.585  43.195  0.00  0.00    -0.019 A 
ATOM     16  C   UNL     1      86.920  46.762  43.049  0.00  0.00    +0.131 A 
ATOM     17  C   UNL     1      85.635  47.276  43.372  0.00  0.00    +0.066 A 
ATOM     18  C   UNL     1      85.519  48.620  43.837  0.00  0.00    -0.003 A 
ATOM     19  C   UNL     1      84.250  49.131  44.173  0.00  0.00    -0.050 A 
ATOM     20  C   UNL     1      83.101  48.352  44.028  0.00  0.00    -0.046 A 
ATOM     21  C   UNL     1      81.762  48.907  44.421  0.00  0.00    -0.040 C 
ATOM     22  C   UNL     1      83.211  47.034  43.584  0.00  0.00    -0.016 A 
ATOM     23  C   UNL     1      84.461  46.482  43.249  0.00  0.00    +0.132 A 
BRANCH  23  24
ATOM     24  O   UNL     1      84.557  45.155  42.796  0.00  0.00    -0.494 OA
ATOM     25  C   UNL     1      84.276  43.998  43.579  0.00  0.00    +0.079 C 
ENDBRANCH  23  24
BRANCH  16  26
ATOM     26  O   UNL     1      87.053  45.441  42.586  0.00  0.00    -0.494 OA
ATOM     27  C   UNL     1      88.121  44.560  42.922  0.00  0.00    +0.079 C 
ENDBRANCH  16  26
ENDBRANCH   6  13
BRANCH   1  29
ATOM     28  C   UNL     1      87.633  50.180  47.945  0.00  0.00    +0.079 C 
ATOM     29  O   UNL     1      87.022  50.054  46.665  0.00  0.00    -0.494 OA
ENDBRANCH   1  29
BRANCH   3  30
ATOM     30  O   UNL     1      86.438  54.836  45.769  0.00  0.00    -0.494 OA
ATOM     31  C   UNL     1      86.006  55.262  47.056  0.00  0.00    +0.079 C 
ENDBRANCH   3  30
TORSDOF 5
ENDMDL
MODEL 4
REMARK VINA RESULT:    -9.178      1.781      7.161
REMARK INTER + INTRA:         -12.515
REMARK INTER:                 -11.044
REMARK INTRA:                  -1.471
REMARK UNBOUND:                -0.653
REMARK  Name = 
REMARK  12 active torsions:
REMARK  status: ('A' for Active; 'I' for Inactive)
REMARK    1  A    between atoms: C_1  and  O_2
REMARK    2  A    between atoms: O_2  and  C_3
REMARK    3  A    between atoms: C_5  and  O_6
REMARK    4  A    between atoms: O_6  and  C_7
REMARK    5  A    between atoms: C_10  and  C_11
REMARK    6  A    between atoms: C_14  and  O_24
REMARK    7  A    between atoms: C_18  and  C_19
REMARK    8  A    between atoms: C_21  and  O_22
REMARK    9  A    between atoms: O_22  and  C_23
REMARK   10  A    between atoms: O_24  and  C_25
REMARK   11  A    between atoms: C_27  and  C_31
REMARK   12  A    between atoms: C_29  and  C_30
REMARK                            x       y       z     vdW  Elec       q    Type
REMARK                         _______ _______ _______ _____ _____    ______ ____
ROOT
ATOM      1  C   UNL     1      85.211  48.641  44.230  0.00  0.00    +0.132 A 
ATOM      2  C   UNL     1      85.166  47.386  43.605  0.00  0.00    +0.023 A 
ATOM      3  C   UNL     1      86.324  46.803  43.060  0.00  0.00    +0.133 A 
ATOM      4  C   UNL     1      87.558  47.488  43.153  0.00  0.00    +0.041 A 
ATOM      5  C   UNL     1      87.596  48.779  43.731  0.00  0.00    -0.022 A 
ATOM      6  C   UNL     1      86.427  49.338  44.295  0.00  0.00    +0.028 A 
ATOM      7  C   UNL     1      88.923  49.515  43.791  0.00  0.00    -0.004 C 
ATOM      8  C   UNL     1      89.808  49.151  42.588  0.00  0.00    +0.052 C 
ATOM      9  N   UNL     1      89.861  47.698  42.425  0.00  0.00    -0.284 NA
ATOM     10  C   UNL     1      88.845  46.913  42.643  0.00  0.00    +0.044 C 
ATOM     11  C   UNL     1      89.048  45.439  42.443  0.00  0.00    -0.022 C 
ATOM     12  C   UNL     1      89.306  49.804  41.296  0.00  0.00    -0.042 C 
ENDROOT
BRANCH   6  13
ATOM     13  C   UNL     1      86.460  50.659  44.970  0.00  0.00    -0.006 A 
ATOM     14  C   UNL     1      86.599  50.680  46.358  0.00  0.00    -0.050 A 
ATOM     15  C   UNL     1      86.610  51.883  47.052  0.00  0.00    -0.019 A 
ATOM     16  C   UNL     1      86.485  53.109  46.376  0.00  0.00    +0.131 A 
ATOM     17  C   UNL     1      86.348  53.117  44.961  0.00  0.00    +0.066 A 
ATOM     18  C   UNL     1      86.340  51.876  44.256  0.00  0.00    -0.003 A 
ATOM     19  C   UNL     1      86.219  51.877  42.852  0.00  0.00    -0.050 A 
ATOM     20  C   UNL     1      86.077  53.071  42.144  0.00  0.00    -0.046 A 
ATOM     21  C   UNL     1      85.981  53.050  40.646  0.00  0.00    -0.040 C 
ATOM     22  C   UNL     1      86.097  54.287  42.829  0.00  0.00    -0.016 A 
ATOM     23  C   UNL     1      86.225  54.330  44.229  0.00  0.00    +0.132 A 
BRANCH  23  24
ATOM     24  O   UNL     1      86.236  55.562  44.907  0.00  0.00    -0.494 OA
ATOM     25  C   UNL     1      86.374  56.838  44.290  0.00  0.00    +0.079 C 
ENDBRANCH  23  24
BRANCH  16  26
ATOM     26  O   UNL     1      86.493  54.322  47.088  0.00  0.00    -0.494 OA
ATOM     27  C   UNL     1      85.624  54.642  48.169  0.00  0.00    +0.079 C 
ENDBRANCH  16  26
ENDBRANCH   6  13
BRANCH   1  29
ATOM     28  C   UNL     1      82.789  49.290  44.174  0.00  0.00    +0.079 C 
ATOM     29  O   UNL     1      84.067  49.226  44.800  0.00  0.00    -0.494 OA
ENDBRANCH   1  29
BRANCH   3  30
ATOM     30  O   UNL     1      86.266  45.561  42.404  0.00  0.00    -0.494 OA
ATOM     31  C   UNL     1      85.486  44.447  42.824  0.00  0.00    +0.079 C 
ENDBRANCH   3  30
TORSDOF 5
ENDMDL
MODEL 5
REMARK VINA RESULT:    -9.129      2.194      3.801
REMARK INTER + INTRA:         -12.451
REMARK INTER:                 -11.195
REMARK INTRA:                  -1.256
REMARK UNBOUND:                -0.653
REMARK  Name = 
REMARK  12 active torsions:
REMARK  status: ('A' for Active; 'I' for Inactive)
REMARK    1  A    between atoms: C_1  and  O_2
REMARK    2  A    between atoms: O_2  and  C_3
REMARK    3  A    between atoms: C_5  and  O_6
REMARK    4  A    between atoms: O_6  and  C_7
REMARK    5  A    between atoms: C_10  and  C_11
REMARK    6  A    between atoms: C_14  and  O_24
REMARK    7  A    between atoms: C_18  and  C_19
REMARK    8  A    between atoms: C_21  and  O_22
REMARK    9  A    between atoms: O_22  and  C_23
REMARK   10  A    between atoms: O_24  and  C_25
REMARK   11  A    between atoms: C_27  and  C_31
REMARK   12  A    between atoms: C_29  and  C_30
REMARK                            x       y       z     vdW  Elec       q    Type
REMARK                         _______ _______ _______ _____ _____    ______ ____
ROOT
ATOM      1  C   UNL     1      84.544  53.088  43.249  0.00  0.00    +0.132 A 
ATOM      2  C   UNL     1      84.209  54.443  43.398  0.00  0.00    +0.023 A 
ATOM      3  C   UNL     1      84.557  55.155  44.560  0.00  0.00    +0.133 A 
ATOM      4  C   UNL     1      85.265  54.497  45.593  0.00  0.00    +0.041 A 
ATOM      5  C   UNL     1      85.552  53.116  45.472  0.00  0.00    -0.022 A 
ATOM      6  C   UNL     1      85.217  52.425  44.287  0.00  0.00    +0.028 A 
ATOM      7  C   UNL     1      86.282  52.419  46.606  0.00  0.00    -0.004 C 
ATOM      8  C   UNL     1      85.915  53.043  47.962  0.00  0.00    +0.052 C 
ATOM      9  N   UNL     1      86.034  54.500  47.893  0.00  0.00    -0.284 NA
ATOM     10  C   UNL     1      85.716  55.197  46.839  0.00  0.00    +0.044 C 
ATOM     11  C   UNL     1      85.898  56.686  46.909  0.00  0.00    -0.022 C 
ATOM     12  C   UNL     1      84.499  52.655  48.402  0.00  0.00    -0.042 C 
ENDROOT
BRANCH   6  13
ATOM     13  C   UNL     1      85.573  50.995  44.109  0.00  0.00    -0.006 A 
ATOM     14  C   UNL     1      84.726  50.037  44.669  0.00  0.00    -0.050 A 
ATOM     15  C   UNL     1      85.017  48.683  44.560  0.00  0.00    -0.019 A 
ATOM     16  C   UNL     1      86.167  48.243  43.882  0.00  0.00    +0.131 A 
ATOM     17  C   UNL     1      87.043  49.197  43.296  0.00  0.00    +0.066 A 
ATOM     18  C   UNL     1      86.735  50.586  43.411  0.00  0.00    -0.003 A 
ATOM     19  C   UNL     1      87.591  51.537  42.820  0.00  0.00    -0.050 A 
ATOM     20  C   UNL     1      88.750  51.143  42.151  0.00  0.00    -0.046 A 
ATOM     21  C   UNL     1      89.631  52.171  41.503  0.00  0.00    -0.040 C 
ATOM     22  C   UNL     1      89.048  49.785  42.027  0.00  0.00    -0.016 A 
ATOM     23  C   UNL     1      88.215  48.803  42.593  0.00  0.00    +0.132 A 
BRANCH  23  24
ATOM     24  O   UNL     1      88.530  47.439  42.466  0.00  0.00    -0.494 OA
ATOM     25  C   UNL     1      89.848  46.897  42.475  0.00  0.00    +0.079 C 
ENDBRANCH  23  24
BRANCH  16  26
ATOM     26  O   UNL     1      86.455  46.870  43.781  0.00  0.00    -0.494 OA
ATOM     27  C   UNL     1      85.642  45.823  44.301  0.00  0.00    +0.079 C 
ENDBRANCH  16  26
ENDBRANCH   6  13
BRANCH   1  29
ATOM     28  C   UNL     1      82.900  52.097  41.635  0.00  0.00    +0.079 C 
ATOM     29  O   UNL     1      84.223  52.369  42.084  0.00  0.00    -0.494 OA
ENDBRANCH   1  29
BRANCH   3  30
ATOM     30  O   UNL     1      84.189  56.502  44.717  0.00  0.00    -0.494 OA
ATOM     31  C   UNL     1      84.551  57.559  43.835  0.00  0.00    +0.079 C 
ENDBRANCH   3  30
TORSDOF 5
ENDMDL
MODEL 6
REMARK VINA RESULT:    -9.082      2.101      4.674
REMARK INTER + INTRA:         -12.390
REMARK INTER:                 -10.975
REMARK INTRA:                  -1.415
REMARK UNBOUND:                -0.653
REMARK  Name = 
REMARK  12 active torsions:
REMARK  status: ('A' for Active; 'I' for Inactive)
REMARK    1  A    between atoms: C_1  and  O_2
REMARK    2  A    between atoms: O_2  and  C_3
REMARK    3  A    between atoms: C_5  and  O_6
REMARK    4  A    between atoms: O_6  and  C_7
REMARK    5  A    between atoms: C_10  and  C_11
REMARK    6  A    between atoms: C_14  and  O_24
REMARK    7  A    between atoms: C_18  and  C_19
REMARK    8  A    between atoms: C_21  and  O_22
REMARK    9  A    between atoms: O_22  and  C_23
REMARK   10  A    between atoms: O_24  and  C_25
REMARK   11  A    between atoms: C_27  and  C_31
REMARK   12  A    between atoms: C_29  and  C_30
REMARK                            x       y       z     vdW  Elec       q    Type
REMARK                         _______ _______ _______ _____ _____    ______ ____
ROOT
ATOM      1  C   UNL     1      85.774  53.628  42.967  0.00  0.00    +0.132 A 
ATOM      2  C   UNL     1      85.347  54.951  43.151  0.00  0.00    +0.023 A 
ATOM      3  C   UNL     1      85.311  55.534  44.431  0.00  0.00    +0.133 A 
ATOM      4  C   UNL     1      85.724  54.776  45.551  0.00  0.00    +0.041 A 
ATOM      5  C   UNL     1      86.098  53.422  45.378  0.00  0.00    -0.022 A 
ATOM      6  C   UNL     1      86.152  52.863  44.082  0.00  0.00    +0.028 A 
ATOM      7  C   UNL     1      86.505  52.614  46.597  0.00  0.00    -0.004 C 
ATOM      8  C   UNL     1      85.734  53.075  47.844  0.00  0.00    +0.052 C 
ATOM      9  N   UNL     1      85.797  54.532  47.963  0.00  0.00    -0.284 NA
ATOM     10  C   UNL     1      85.763  55.338  46.940  0.00  0.00    +0.044 C 
ATOM     11  C   UNL     1      85.846  56.812  47.212  0.00  0.00    -0.022 C 
ATOM     12  C   UNL     1      84.272  52.617  47.811  0.00  0.00    -0.042 C 
ENDROOT
BRANCH   6  13
ATOM     13  C   UNL     1      86.612  51.468  43.869  0.00  0.00    -0.006 A 
ATOM     14  C   UNL     1      87.968  51.259  43.612  0.00  0.00    -0.050 A 
ATOM     15  C   UNL     1      88.457  49.981  43.379  0.00  0.00    -0.019 A 
ATOM     16  C   UNL     1      87.602  48.864  43.397  0.00  0.00    +0.131 A 
ATOM     17  C   UNL     1      86.217  49.048  43.662  0.00  0.00    +0.066 A 
ATOM     18  C   UNL     1      85.724  50.366  43.903  0.00  0.00    -0.003 A 
ATOM     19  C   UNL     1      84.355  50.553  44.181  0.00  0.00    -0.050 A 
ATOM     20  C   UNL     1      83.470  49.474  44.194  0.00  0.00    -0.046 A 
ATOM     21  C   UNL     1      82.022  49.694  44.522  0.00  0.00    -0.040 C 
ATOM     22  C   UNL     1      83.951  48.184  43.970  0.00  0.00    -0.016 A 
ATOM     23  C   UNL     1      85.312  47.952  43.700  0.00  0.00    +0.132 A 
BRANCH  23  24
ATOM     24  O   UNL     1      85.782  46.647  43.469  0.00  0.00    -0.494 OA
ATOM     25  C   UNL     1      85.615  45.545  44.357  0.00  0.00    +0.079 C 
ENDBRANCH  23  24
BRANCH  16  26
ATOM     26  O   UNL     1      88.106  47.574  43.155  0.00  0.00    -0.494 OA
ATOM     27  C   UNL     1      89.106  47.254  42.194  0.00  0.00    +0.079 C 
ENDBRANCH  16  26
ENDBRANCH   6  13
BRANCH   1  29
ATOM     28  C   UNL     1      85.050  53.437  40.574  0.00  0.00    +0.079 C 
ATOM     29  O   UNL     1      85.837  53.040  41.692  0.00  0.00    -0.494 OA
ENDBRANCH   1  29
BRANCH   3  30
ATOM     30  O   UNL     1      84.850  56.849  44.612  0.00  0.00    -0.494 OA
ATOM     31  C   UNL     1      85.364  57.997  43.947  0.00  0.00    +0.079 C 
ENDBRANCH   3  30
TORSDOF 5
ENDMDL
MODEL 7
REMARK VINA RESULT:    -9.019      2.398      4.145
REMARK INTER + INTRA:         -12.308
REMARK INTER:                 -10.882
REMARK INTRA:                  -1.426
REMARK UNBOUND:                -0.653
REMARK  Name = 
REMARK  12 active torsions:
REMARK  status: ('A' for Active; 'I' for Inactive)
REMARK    1  A    between atoms: C_1  and  O_2
REMARK    2  A    between atoms: O_2  and  C_3
REMARK    3  A    between atoms: C_5  and  O_6
REMARK    4  A    between atoms: O_6  and  C_7
REMARK    5  A    between atoms: C_10  and  C_11
REMARK    6  A    between atoms: C_14  and  O_24
REMARK    7  A    between atoms: C_18  and  C_19
REMARK    8  A    between atoms: C_21  and  O_22
REMARK    9  A    between atoms: O_22  and  C_23
REMARK   10  A    between atoms: O_24  and  C_25
REMARK   11  A    between atoms: C_27  and  C_31
REMARK   12  A    between atoms: C_29  and  C_30
REMARK                            x       y       z     vdW  Elec       q    Type
REMARK                         _______ _______ _______ _____ _____    ______ ____
ROOT
ATOM      1  C   UNL     1      84.243  53.525  43.413  0.00  0.00    +0.132 A 
ATOM      2  C   UNL     1      84.515  54.894  43.554  0.00  0.00    +0.023 A 
ATOM      3  C   UNL     1      84.966  55.424  44.776  0.00  0.00    +0.133 A 
ATOM      4  C   UNL     1      85.158  54.561  45.880  0.00  0.00    +0.041 A 
ATOM      5  C   UNL     1      84.828  53.190  45.758  0.00  0.00    -0.022 A 
ATOM      6  C   UNL     1      84.401  52.672  44.516  0.00  0.00    +0.028 A 
ATOM      7  C   UNL     1      85.008  52.285  46.964  0.00  0.00    -0.004 C 
ATOM      8  C   UNL     1      84.758  53.054  48.271  0.00  0.00    +0.052 C 
ATOM      9  N   UNL     1      85.508  54.310  48.266  0.00  0.00    -0.284 NA
ATOM     10  C   UNL     1      85.683  55.038  47.201  0.00  0.00    +0.044 C 
ATOM     11  C   UNL     1      86.484  56.300  47.343  0.00  0.00    -0.022 C 
ATOM     12  C   UNL     1      83.267  53.337  48.487  0.00  0.00    -0.042 C 
ENDROOT
BRANCH   6  13
ATOM     13  C   UNL     1      84.119  51.225  44.346  0.00  0.00    -0.006 A 
ATOM     14  C   UNL     1      82.805  50.790  44.528  0.00  0.00    -0.050 A 
ATOM     15  C   UNL     1      82.481  49.445  44.409  0.00  0.00    -0.019 A 
ATOM     16  C   UNL     1      83.464  48.487  44.101  0.00  0.00    +0.131 A 
ATOM     17  C   UNL     1      84.809  48.905  43.904  0.00  0.00    +0.066 A 
ATOM     18  C   UNL     1      85.133  50.289  44.026  0.00  0.00    -0.003 A 
ATOM     19  C   UNL     1      86.461  50.711  43.819  0.00  0.00    -0.050 A 
ATOM     20  C   UNL     1      87.470  49.793  43.526  0.00  0.00    -0.046 A 
ATOM     21  C   UNL     1      88.872  50.268  43.278  0.00  0.00    -0.040 C 
ATOM     22  C   UNL     1      87.155  48.439  43.394  0.00  0.00    -0.016 A 
ATOM     23  C   UNL     1      85.839  47.978  43.583  0.00  0.00    +0.132 A 
BRANCH  23  24
ATOM     24  O   UNL     1      85.536  46.611  43.455  0.00  0.00    -0.494 OA
ATOM     25  C   UNL     1      86.497  45.563  43.350  0.00  0.00    +0.079 C 
ENDBRANCH  23  24
BRANCH  16  26
ATOM     26  O   UNL     1      83.126  47.127  43.987  0.00  0.00    -0.494 OA
ATOM     27  C   UNL     1      81.825  46.629  43.696  0.00  0.00    +0.079 C 
ENDBRANCH  16  26
ENDBRANCH   6  13
BRANCH   1  29
ATOM     28  C   UNL     1      84.472  53.160  40.942  0.00  0.00    +0.079 C 
ATOM     29  O   UNL     1      83.814  52.977  42.191  0.00  0.00    -0.494 OA
ENDBRANCH   1  29
BRANCH   3  30
ATOM     30  O   UNL     1      85.204  56.802  44.921  0.00  0.00    -0.494 OA
ATOM     31  C   UNL     1      85.250  57.742  43.853  0.00  0.00    +0.079 C 
ENDBRANCH   3  30
TORSDOF 5
ENDMDL
MODEL 8
REMARK VINA RESULT:    -8.378      2.673      7.758
REMARK INTER + INTRA:         -11.481
REMARK INTER:                 -10.317
REMARK INTRA:                  -1.164
REMARK UNBOUND:                -0.653
REMARK  Name = 
REMARK  12 active torsions:
REMARK  status: ('A' for Active; 'I' for Inactive)
REMARK    1  A    between atoms: C_1  and  O_2
REMARK    2  A    between atoms: O_2  and  C_3
REMARK    3  A    between atoms: C_5  and  O_6
REMARK    4  A    between atoms: O_6  and  C_7
REMARK    5  A    between atoms: C_10  and  C_11
REMARK    6  A    between atoms: C_14  and  O_24
REMARK    7  A    between atoms: C_18  and  C_19
REMARK    8  A    between atoms: C_21  and  O_22
REMARK    9  A    between atoms: O_22  and  C_23
REMARK   10  A    between atoms: O_24  and  C_25
REMARK   11  A    between atoms: C_27  and  C_31
REMARK   12  A    between atoms: C_29  and  C_30
REMARK                            x       y       z     vdW  Elec       q    Type
REMARK                         _______ _______ _______ _____ _____    ______ ____
ROOT
ATOM      1  C   UNL     1      82.920  50.588  43.630  0.00  0.00    +0.132 A 
ATOM      2  C   UNL     1      82.518  49.244  43.619  0.00  0.00    +0.023 A 
ATOM      3  C   UNL     1      83.457  48.203  43.730  0.00  0.00    +0.133 A 
ATOM      4  C   UNL     1      84.830  48.516  43.866  0.00  0.00    +0.041 A 
ATOM      5  C   UNL     1      85.244  49.868  43.817  0.00  0.00    -0.022 A 
ATOM      6  C   UNL     1      84.284  50.901  43.731  0.00  0.00    +0.028 A 
ATOM      7  C   UNL     1      86.725  50.184  43.930  0.00  0.00    -0.004 C 
ATOM      8  C   UNL     1      87.575  49.065  43.305  0.00  0.00    +0.052 C 
ATOM      9  N   UNL     1      87.134  47.762  43.803  0.00  0.00    -0.284 NA
ATOM     10  C   UNL     1      85.887  47.468  44.039  0.00  0.00    +0.044 C 
ATOM     11  C   UNL     1      85.583  46.092  44.558  0.00  0.00    -0.022 C 
ATOM     12  C   UNL     1      87.507  49.089  41.774  0.00  0.00    -0.042 C 
ENDROOT
BRANCH   6  13
ATOM     13  C   UNL     1      84.691  52.328  43.752  0.00  0.00    -0.006 A 
ATOM     14  C   UNL     1      84.798  52.994  42.530  0.00  0.00    -0.050 A 
ATOM     15  C   UNL     1      85.199  54.323  42.480  0.00  0.00    -0.019 A 
ATOM     16  C   UNL     1      85.505  55.032  43.656  0.00  0.00    +0.131 A 
ATOM     17  C   UNL     1      85.398  54.378  44.914  0.00  0.00    +0.066 A 
ATOM     18  C   UNL     1      84.983  53.013  44.956  0.00  0.00    -0.003 A 
ATOM     19  C   UNL     1      84.861  52.364  46.200  0.00  0.00    -0.050 A 
ATOM     20  C   UNL     1      85.169  53.026  47.390  0.00  0.00    -0.046 A 
ATOM     21  C   UNL     1      85.002  52.324  48.706  0.00  0.00    -0.040 C 
ATOM     22  C   UNL     1      85.564  54.364  47.353  0.00  0.00    -0.016 A 
ATOM     23  C   UNL     1      85.688  55.052  46.132  0.00  0.00    +0.132 A 
BRANCH  23  24
ATOM     24  O   UNL     1      86.094  56.398  46.109  0.00  0.00    -0.494 OA
ATOM     25  C   UNL     1      85.428  57.468  46.774  0.00  0.00    +0.079 C 
ENDBRANCH  23  24
BRANCH  16  26
ATOM     26  O   UNL     1      85.915  56.375  43.594  0.00  0.00    -0.494 OA
ATOM     27  C   UNL     1      85.075  57.472  43.249  0.00  0.00    +0.079 C 
ENDBRANCH  16  26
ENDBRANCH   6  13
BRANCH   1  29
ATOM     28  C   UNL     1      81.265  51.989  42.368  0.00  0.00    +0.079 C 
ATOM     29  O   UNL     1      81.991  51.640  43.543  0.00  0.00    -0.494 OA
ENDBRANCH   1  29
BRANCH   3  30
ATOM     30  O   UNL     1      83.052  46.858  43.684  0.00  0.00    -0.494 OA
ATOM     31  C   UNL     1      81.813  46.358  44.175  0.00  0.00    +0.079 C 
ENDBRANCH   3  30
TORSDOF 5
ENDMDL
MODEL 9
REMARK VINA RESULT:    -8.324      2.444      7.527
REMARK INTER + INTRA:         -11.411
REMARK INTER:                 -10.758
REMARK INTRA:                  -0.653
REMARK UNBOUND:                -0.653
REMARK  Name = 
REMARK  12 active torsions:
REMARK  status: ('A' for Active; 'I' for Inactive)
REMARK    1  A    between atoms: C_1  and  O_2
REMARK    2  A    between atoms: O_2  and  C_3
REMARK    3  A    between atoms: C_5  and  O_6
REMARK    4  A    between atoms: O_6  and  C_7
REMARK    5  A    between atoms: C_10  and  C_11
REMARK    6  A    between atoms: C_14  and  O_24
REMARK    7  A    between atoms: C_18  and  C_19
REMARK    8  A    between atoms: C_21  and  O_22
REMARK    9  A    between atoms: O_22  and  C_23
REMARK   10  A    between atoms: O_24  and  C_25
REMARK   11  A    between atoms: C_27  and  C_31
REMARK   12  A    between atoms: C_29  and  C_30
REMARK                            x       y       z     vdW  Elec       q    Type
REMARK                         _______ _______ _______ _____ _____    ______ ____
ROOT
ATOM      1  C   UNL     1      88.645  51.548  42.258  0.00  0.00    +0.132 A 
ATOM      2  C   UNL     1      89.439  50.423  41.990  0.00  0.00    +0.023 A 
ATOM      3  C   UNL     1      88.950  49.120  42.196  0.00  0.00    +0.133 A 
ATOM      4  C   UNL     1      87.630  48.941  42.673  0.00  0.00    +0.041 A 
ATOM      5  C   UNL     1      86.847  50.073  43.001  0.00  0.00    -0.022 A 
ATOM      6  C   UNL     1      87.347  51.373  42.762  0.00  0.00    +0.028 A 
ATOM      7  C   UNL     1      85.445  49.861  43.544  0.00  0.00    -0.004 C 
ATOM      8  C   UNL     1      85.367  48.568  44.373  0.00  0.00    +0.052 C 
ATOM      9  N   UNL     1      85.967  47.459  43.631  0.00  0.00    -0.284 NA
ATOM     10  C   UNL     1      87.018  47.587  42.872  0.00  0.00    +0.044 C 
ATOM     11  C   UNL     1      87.518  46.362  42.163  0.00  0.00    -0.022 C 
ATOM     12  C   UNL     1      86.059  48.722  45.732  0.00  0.00    -0.042 C 
ENDROOT
BRANCH   6  13
ATOM     13  C   UNL     1      86.516  52.573  43.030  0.00  0.00    -0.006 A 
ATOM     14  C   UNL     1      86.072  53.317  41.936  0.00  0.00    -0.050 A 
ATOM     15  C   UNL     1      85.313  54.466  42.121  0.00  0.00    -0.019 A 
ATOM     16  C   UNL     1      84.969  54.906  43.411  0.00  0.00    +0.131 A 
ATOM     17  C   UNL     1      85.403  54.162  44.543  0.00  0.00    +0.066 A 
ATOM     18  C   UNL     1      86.181  52.983  44.344  0.00  0.00    -0.003 A 
ATOM     19  C   UNL     1      86.601  52.233  45.460  0.00  0.00    -0.050 A 
ATOM     20  C   UNL     1      86.294  52.643  46.758  0.00  0.00    -0.046 A 
ATOM     21  C   UNL     1      86.727  51.812  47.931  0.00  0.00    -0.040 C 
ATOM     22  C   UNL     1      85.524  53.790  46.956  0.00  0.00    -0.016 A 
ATOM     23  C   UNL     1      85.076  54.561  45.868  0.00  0.00    +0.132 A 
BRANCH  23  24
ATOM     24  O   UNL     1      84.306  55.718  46.082  0.00  0.00    -0.494 OA
ATOM     25  C   UNL     1      84.352  56.530  47.252  0.00  0.00    +0.079 C 
ENDBRANCH  23  24
BRANCH  16  26
ATOM     26  O   UNL     1      84.204  56.072  43.588  0.00  0.00    -0.494 OA
ATOM     27  C   UNL     1      84.696  57.402  43.457  0.00  0.00    +0.079 C 
ENDBRANCH  16  26
ENDBRANCH   6  13
BRANCH   1  29
ATOM     28  C   UNL     1      89.916  53.253  40.929  0.00  0.00    +0.079 C 
ATOM     29  O   UNL     1      89.111  52.855  42.034  0.00  0.00    -0.494 OA
ENDBRANCH   1  29
BRANCH   3  30
ATOM     30  O   UNL     1      89.762  47.999  41.959  0.00  0.00    -0.494 OA
ATOM     31  C   UNL     1      90.698  47.454  42.882  0.00  0.00    +0.079 C 
ENDBRANCH   3  30
TORSDOF 5
ENDMDL
