MODEL 1
REMARK VINA RESULT:    -9.008      0.000      0.000
REMARK INTER + INTRA:         -12.617
REMARK INTER:                 -11.320
REMARK INTRA:                  -1.296
REMARK UNBOUND:                -1.239
REMARK  Name = 
REMARK  11 active torsions:
REMARK  status: ('A' for Active; 'I' for Inactive)
REMARK    1  A    between atoms: C_1  and  O_2
REMARK    2  A    between atoms: O_2  and  C_3
REMARK    3  A    between atoms: C_5  and  O_6
REMARK    4  A    between atoms: C_7  and  C_16
REMARK    5  A    between atoms: C_10  and  C_11
REMARK    6  A    between atoms: C_13  and  C_15
REMARK    7  A    between atoms: C_19  and  O_29
REMARK    8  A    between atoms: C_23  and  C_24
REMARK    9  A    between atoms: C_26  and  O_27
REMARK   10  A    between atoms: O_27  and  C_28
REMARK   11  A    between atoms: O_29  and  C_30
REMARK                            x       y       z     vdW  Elec       q    Type
REMARK                         _______ _______ _______ _____ _____    ______ ____
ROOT
ATOM      1  C   UNL     1      84.818  54.924  44.194  0.00  0.00    +0.128 A 
ATOM      2  C   UNL     1      84.925  54.387  42.901  0.00  0.00    +0.022 A 
ATOM      3  C   UNL     1      85.315  53.064  42.704  0.00  0.00    +0.128 A 
ATOM      4  C   UNL     1      85.602  52.243  43.811  0.00  0.00    +0.028 A 
ATOM      5  C   UNL     1      85.520  52.771  45.123  0.00  0.00    -0.027 A 
ATOM      6  C   UNL     1      85.119  54.117  45.312  0.00  0.00    +0.015 A 
ATOM      7  C   UNL     1      85.054  54.724  46.710  0.00  0.00    +0.034 C 
ATOM      8  C   UNL     1      86.236  55.674  46.958  0.00  0.00    -0.045 C 
ATOM      9  N   UNL     1      84.977  53.705  47.772  0.00  0.00    -0.307 N 
ATOM     10  C   UNL     1      85.990  52.652  47.608  0.00  0.00    +0.009 C 
ATOM     11  C   UNL     1      85.743  51.865  46.316  0.00  0.00    -0.011 C 
ATOM     12  C   UNL     1      85.966  51.722  48.824  0.00  0.00    -0.049 C 
ATOM     13  H   UNL     1      84.052  53.277  47.751  0.00  0.00    +0.000 HD
ATOM     14  H   UNL     1      85.152  54.170  48.663  0.00  0.00    +0.000 HD
ENDROOT
BRANCH   4  15
ATOM     15  C   UNL     1      85.984  50.827  43.593  0.00  0.00    -0.006 A 
ATOM     16  C   UNL     1      87.339  50.531  43.440  0.00  0.00    -0.050 A 
ATOM     17  C   UNL     1      87.759  49.223  43.229  0.00  0.00    -0.019 A 
ATOM     18  C   UNL     1      86.833  48.168  43.160  0.00  0.00    +0.131 A 
ATOM     19  C   UNL     1      85.446  48.443  43.310  0.00  0.00    +0.066 A 
ATOM     20  C   UNL     1      85.024  49.788  43.531  0.00  0.00    -0.003 A 
ATOM     21  C   UNL     1      83.651  50.068  43.680  0.00  0.00    -0.050 A 
ATOM     22  C   UNL     1      82.700  49.049  43.628  0.00  0.00    -0.046 A 
ATOM     23  C   UNL     1      81.239  49.377  43.749  0.00  0.00    -0.040 C 
ATOM     24  C   UNL     1      83.107  47.735  43.393  0.00  0.00    -0.016 A 
ATOM     25  C   UNL     1      84.468  47.413  43.238  0.00  0.00    +0.132 A 
BRANCH  25  26
ATOM     26  O   UNL     1      84.867  46.083  43.011  0.00  0.00    -0.494 OA
ATOM     27  C   UNL     1      84.268  44.935  43.605  0.00  0.00    +0.079 C 
ENDBRANCH  25  26
BRANCH  18  28
ATOM     28  O   UNL     1      87.268  46.848  42.945  0.00  0.00    -0.494 OA
ATOM     29  C   UNL     1      88.307  46.465  42.050  0.00  0.00    +0.079 C 
ENDBRANCH  18  28
ENDBRANCH   4  15
BRANCH   1  31
ATOM     30  C   UNL     1      84.806  57.359  43.597  0.00  0.00    +0.079 C 
ATOM     31  O   UNL     1      84.413  56.253  44.403  0.00  0.00    -0.495 OA
ENDBRANCH   1  31
BRANCH   3  32
ATOM     32  O   UNL     1      85.402  52.590  41.392  0.00  0.00    -0.506 OA
ATOM     33  H   UNL     1      84.694  52.097  41.024  0.00  0.00    +0.000 HD
ENDBRANCH   3  32
TORSDOF 5
ENDMDL
MODEL 2
REMARK VINA RESULT:    -8.924      1.835      7.351
REMARK INTER + INTRA:         -12.511
REMARK INTER:                 -11.247
REMARK INTRA:                  -1.263
REMARK UNBOUND:                -1.239
REMARK  Name = 
REMARK  11 active torsions:
REMARK  status: ('A' for Active; 'I' for Inactive)
REMARK    1  A    between atoms: C_1  and  O_2
REMARK    2  A    between atoms: O_2  and  C_3
REMARK    3  A    between atoms: C_5  and  O_6
REMARK    4  A    between atoms: C_7  and  C_16
REMARK    5  A    between atoms: C_10  and  C_11
REMARK    6  A    between atoms: C_13  and  C_15
REMARK    7  A    between atoms: C_19  and  O_29
REMARK    8  A    between atoms: C_23  and  C_24
REMARK    9  A    between atoms: C_26  and  O_27
REMARK   10  A    between atoms: O_27  and  C_28
REMARK   11  A    between atoms: O_29  and  C_30
REMARK                            x       y       z     vdW  Elec       q    Type
REMARK                         _______ _______ _______ _____ _____    ______ ____
ROOT
ATOM      1  C   UNL     1      86.559  47.404  43.217  0.00  0.00    +0.128 A 
ATOM      2  C   UNL     1      87.516  48.425  43.111  0.00  0.00    +0.022 A 
ATOM      3  C   UNL     1      87.154  49.764  43.228  0.00  0.00    +0.128 A 
ATOM      4  C   UNL     1      85.809  50.111  43.461  0.00  0.00    +0.028 A 
ATOM      5  C   UNL     1      84.824  49.098  43.551  0.00  0.00    -0.027 A 
ATOM      6  C   UNL     1      85.204  47.738  43.435  0.00  0.00    +0.015 A 
ATOM      7  C   UNL     1      84.161  46.627  43.493  0.00  0.00    +0.034 C 
ATOM      8  C   UNL     1      83.892  46.045  42.097  0.00  0.00    -0.045 C 
ATOM      9  N   UNL     1      82.902  47.058  44.126  0.00  0.00    -0.307 N 
ATOM     10  C   UNL     1      82.410  48.331  43.578  0.00  0.00    +0.009 C 
ATOM     11  C   UNL     1      83.394  49.465  43.889  0.00  0.00    -0.011 C 
ATOM     12  C   UNL     1      81.026  48.638  44.155  0.00  0.00    -0.049 C 
ATOM     13  H   UNL     1      83.059  47.170  45.127  0.00  0.00    +0.000 HD
ATOM     14  H   UNL     1      82.198  46.345  43.937  0.00  0.00    +0.000 HD
ENDROOT
BRANCH   4  15
ATOM     15  C   UNL     1      85.438  51.538  43.617  0.00  0.00    -0.006 A 
ATOM     16  C   UNL     1      85.051  52.242  42.476  0.00  0.00    -0.050 A 
ATOM     17  C   UNL     1      84.696  53.582  42.557  0.00  0.00    -0.019 A 
ATOM     18  C   UNL     1      84.719  54.264  43.786  0.00  0.00    +0.131 A 
ATOM     19  C   UNL     1      85.112  53.571  44.963  0.00  0.00    +0.066 A 
ATOM     20  C   UNL     1      85.471  52.194  44.872  0.00  0.00    -0.003 A 
ATOM     21  C   UNL     1      85.862  51.500  46.034  0.00  0.00    -0.050 A 
ATOM     22  C   UNL     1      85.889  52.137  47.275  0.00  0.00    -0.046 A 
ATOM     23  C   UNL     1      86.348  51.389  48.494  0.00  0.00    -0.040 C 
ATOM     24  C   UNL     1      85.557  53.489  47.366  0.00  0.00    -0.016 A 
ATOM     25  C   UNL     1      85.162  54.218  46.229  0.00  0.00    +0.132 A 
BRANCH  25  26
ATOM     26  O   UNL     1      84.820  55.578  46.335  0.00  0.00    -0.494 OA
ATOM     27  C   UNL     1      85.684  56.606  46.809  0.00  0.00    +0.079 C 
ENDBRANCH  25  26
BRANCH  18  28
ATOM     28  O   UNL     1      84.358  55.622  43.856  0.00  0.00    -0.494 OA
ATOM     29  C   UNL     1      84.352  56.526  42.756  0.00  0.00    +0.079 C 
ENDBRANCH  18  28
ENDBRANCH   4  15
BRANCH   1  31
ATOM     30  C   UNL     1      87.840  45.522  42.168  0.00  0.00    +0.079 C 
ATOM     31  O   UNL     1      86.917  46.049  43.115  0.00  0.00    -0.495 OA
ENDBRANCH   1  31
BRANCH   3  32
ATOM     32  O   UNL     1      88.155  50.732  43.113  0.00  0.00    -0.506 OA
ATOM     33  H   UNL     1      87.925  51.632  42.990  0.00  0.00    +0.000 HD
ENDBRANCH   3  32
TORSDOF 5
ENDMDL
MODEL 3
REMARK VINA RESULT:    -8.858      1.142      3.166
REMARK INTER + INTRA:         -12.427
REMARK INTER:                 -11.543
REMARK INTRA:                  -0.885
REMARK UNBOUND:                -1.239
REMARK  Name = 
REMARK  11 active torsions:
REMARK  status: ('A' for Active; 'I' for Inactive)
REMARK    1  A    between atoms: C_1  and  O_2
REMARK    2  A    between atoms: O_2  and  C_3
REMARK    3  A    between atoms: C_5  and  O_6
REMARK    4  A    between atoms: C_7  and  C_16
REMARK    5  A    between atoms: C_10  and  C_11
REMARK    6  A    between atoms: C_13  and  C_15
REMARK    7  A    between atoms: C_19  and  O_29
REMARK    8  A    between atoms: C_23  and  C_24
REMARK    9  A    between atoms: C_26  and  O_27
REMARK   10  A    between atoms: O_27  and  C_28
REMARK   11  A    between atoms: O_29  and  C_30
REMARK                            x       y       z     vdW  Elec       q    Type
REMARK                         _______ _______ _______ _____ _____    ______ ____
ROOT
ATOM      1  C   UNL     1      84.582  54.901  44.034  0.00  0.00    +0.128 A 
ATOM      2  C   UNL     1      84.547  54.304  42.764  0.00  0.00    +0.022 A 
ATOM      3  C   UNL     1      84.882  52.963  42.591  0.00  0.00    +0.128 A 
ATOM      4  C   UNL     1      85.258  52.184  43.702  0.00  0.00    +0.028 A 
ATOM      5  C   UNL     1      85.320  52.772  44.989  0.00  0.00    -0.027 A 
ATOM      6  C   UNL     1      84.972  54.135  45.154  0.00  0.00    +0.015 A 
ATOM      7  C   UNL     1      85.062  54.805  46.522  0.00  0.00    +0.034 C 
ATOM      8  C   UNL     1      86.286  55.730  46.607  0.00  0.00    -0.045 C 
ATOM      9  N   UNL     1      85.067  53.837  47.633  0.00  0.00    -0.307 N 
ATOM     10  C   UNL     1      86.032  52.748  47.420  0.00  0.00    +0.009 C 
ATOM     11  C   UNL     1      85.638  51.913  46.196  0.00  0.00    -0.011 C 
ATOM     12  C   UNL     1      86.106  51.873  48.673  0.00  0.00    -0.049 C 
ATOM     13  H   UNL     1      84.134  53.435  47.722  0.00  0.00    +0.000 HD
ATOM     14  H   UNL     1      85.341  54.335  48.479  0.00  0.00    +0.000 HD
ENDROOT
BRANCH   4  15
ATOM     15  C   UNL     1      85.581  50.749  43.513  0.00  0.00    -0.006 A 
ATOM     16  C   UNL     1      84.649  49.806  43.949  0.00  0.00    -0.050 A 
ATOM     17  C   UNL     1      84.896  48.446  43.803  0.00  0.00    -0.019 A 
ATOM     18  C   UNL     1      86.089  47.986  43.217  0.00  0.00    +0.131 A 
ATOM     19  C   UNL     1      87.055  48.926  42.767  0.00  0.00    +0.066 A 
ATOM     20  C   UNL     1      86.792  50.321  42.917  0.00  0.00    -0.003 A 
ATOM     21  C   UNL     1      87.745  51.258  42.474  0.00  0.00    -0.050 A 
ATOM     22  C   UNL     1      88.937  50.844  41.878  0.00  0.00    -0.046 A 
ATOM     23  C   UNL     1      89.956  51.861  41.450  0.00  0.00    -0.040 C 
ATOM     24  C   UNL     1      89.207  49.481  41.748  0.00  0.00    -0.016 A 
ATOM     25  C   UNL     1      88.282  48.513  42.178  0.00  0.00    +0.132 A 
BRANCH  25  26
ATOM     26  O   UNL     1      88.561  47.142  42.031  0.00  0.00    -0.494 OA
ATOM     27  C   UNL     1      89.826  46.533  42.270  0.00  0.00    +0.079 C 
ENDBRANCH  25  26
BRANCH  18  28
ATOM     28  O   UNL     1      86.329  46.608  43.075  0.00  0.00    -0.494 OA
ATOM     29  C   UNL     1      85.875  45.601  43.974  0.00  0.00    +0.079 C 
ENDBRANCH  18  28
ENDBRANCH   4  15
BRANCH   1  31
ATOM     30  C   UNL     1      84.848  57.347  43.556  0.00  0.00    +0.079 C 
ATOM     31  O   UNL     1      84.232  56.249  44.220  0.00  0.00    -0.495 OA
ENDBRANCH   1  31
BRANCH   3  32
ATOM     32  O   UNL     1      84.827  52.430  41.301  0.00  0.00    -0.506 OA
ATOM     33  H   UNL     1      85.074  52.957  40.565  0.00  0.00    +0.000 HD
ENDBRANCH   3  32
TORSDOF 5
ENDMDL
MODEL 4
REMARK VINA RESULT:    -8.751      2.539      7.734
REMARK INTER + INTRA:         -12.292
REMARK INTER:                 -11.152
REMARK INTRA:                  -1.141
REMARK UNBOUND:                -1.239
REMARK  Name = 
REMARK  11 active torsions:
REMARK  status: ('A' for Active; 'I' for Inactive)
REMARK    1  A    between atoms: C_1  and  O_2
REMARK    2  A    between atoms: O_2  and  C_3
REMARK    3  A    between atoms: C_5  and  O_6
REMARK    4  A    between atoms: C_7  and  C_16
REMARK    5  A    between atoms: C_10  and  C_11
REMARK    6  A    between atoms: C_13  and  C_15
REMARK    7  A    between atoms: C_19  and  O_29
REMARK    8  A    between atoms: C_23  and  C_24
REMARK    9  A    between atoms: C_26  and  O_27
REMARK   10  A    between atoms: O_27  and  C_28
REMARK   11  A    between atoms: O_29  and  C_30
REMARK                            x       y       z     vdW  Elec       q    Type
REMARK                         _______ _______ _______ _____ _____    ______ ____
ROOT
ATOM      1  C   UNL     1      88.012  45.504  42.772  0.00  0.00    +0.128 A 
ATOM      2  C   UNL     1      89.033  46.416  42.461  0.00  0.00    +0.022 A 
ATOM      3  C   UNL     1      88.782  47.784  42.404  0.00  0.00    +0.128 A 
ATOM      4  C   UNL     1      87.487  48.273  42.667  0.00  0.00    +0.028 A 
ATOM      5  C   UNL     1      86.438  47.369  42.962  0.00  0.00    -0.027 A 
ATOM      6  C   UNL     1      86.706  45.979  43.021  0.00  0.00    +0.015 A 
ATOM      7  C   UNL     1      85.589  44.979  43.303  0.00  0.00    +0.034 C 
ATOM      8  C   UNL     1      85.176  44.233  42.025  0.00  0.00    -0.045 C 
ATOM      9  N   UNL     1      84.415  45.599  43.942  0.00  0.00    -0.307 N 
ATOM     10  C   UNL     1      83.982  46.820  43.248  0.00  0.00    +0.009 C 
ATOM     11  C   UNL     1      85.068  47.900  43.330  0.00  0.00    -0.011 C 
ATOM     12  C   UNL     1      82.670  47.322  43.857  0.00  0.00    -0.049 C 
ATOM     13  H   UNL     1      84.652  45.836  44.905  0.00  0.00    +0.000 HD
ATOM     14  H   UNL     1      83.647  44.929  43.902  0.00  0.00    +0.000 HD
ENDROOT
BRANCH   4  15
ATOM     15  C   UNL     1      87.237  49.734  42.636  0.00  0.00    -0.006 A 
ATOM     16  C   UNL     1      86.987  50.330  41.399  0.00  0.00    -0.050 A 
ATOM     17  C   UNL     1      86.749  51.695  41.305  0.00  0.00    -0.019 A 
ATOM     18  C   UNL     1      86.756  52.511  42.450  0.00  0.00    +0.131 A 
ATOM     19  C   UNL     1      87.010  51.930  43.722  0.00  0.00    +0.066 A 
ATOM     20  C   UNL     1      87.249  50.526  43.810  0.00  0.00    -0.003 A 
ATOM     21  C   UNL     1      87.502  49.943  45.067  0.00  0.00    -0.050 A 
ATOM     22  C   UNL     1      87.508  50.715  46.229  0.00  0.00    -0.046 A 
ATOM     23  C   UNL     1      87.820  50.079  47.553  0.00  0.00    -0.040 C 
ATOM     24  C   UNL     1      87.294  52.091  46.145  0.00  0.00    -0.016 A 
ATOM     25  C   UNL     1      87.039  52.713  44.909  0.00  0.00    +0.132 A 
BRANCH  25  26
ATOM     26  O   UNL     1      86.814  54.100  44.839  0.00  0.00    -0.494 OA
ATOM     27  C   UNL     1      86.468  54.931  45.942  0.00  0.00    +0.079 C 
ENDBRANCH  25  26
BRANCH  18  28
ATOM     28  O   UNL     1      86.514  53.892  42.344  0.00  0.00    -0.494 OA
ATOM     29  C   UNL     1      85.312  54.478  41.854  0.00  0.00    +0.079 C 
ENDBRANCH  18  28
ENDBRANCH   4  15
BRANCH   1  31
ATOM     30  C   UNL     1      88.779  43.450  43.986  0.00  0.00    +0.079 C 
ATOM     31  O   UNL     1      88.259  44.123  42.844  0.00  0.00    -0.495 OA
ENDBRANCH   1  31
BRANCH   3  32
ATOM     32  O   UNL     1      89.842  48.638  42.089  0.00  0.00    -0.506 OA
ATOM     33  H   UNL     1      89.995  49.406  42.605  0.00  0.00    +0.000 HD
ENDBRANCH   3  32
TORSDOF 5
ENDMDL
MODEL 5
REMARK VINA RESULT:    -8.595      1.216      3.021
REMARK INTER + INTRA:         -12.095
REMARK INTER:                 -10.975
REMARK INTRA:                  -1.121
REMARK UNBOUND:                -1.239
REMARK  Name = 
REMARK  11 active torsions:
REMARK  status: ('A' for Active; 'I' for Inactive)
REMARK    1  A    between atoms: C_1  and  O_2
REMARK    2  A    between atoms: O_2  and  C_3
REMARK    3  A    between atoms: C_5  and  O_6
REMARK    4  A    between atoms: C_7  and  C_16
REMARK    5  A    between atoms: C_10  and  C_11
REMARK    6  A    between atoms: C_13  and  C_15
REMARK    7  A    between atoms: C_19  and  O_29
REMARK    8  A    between atoms: C_23  and  C_24
REMARK    9  A    between atoms: C_26  and  O_27
REMARK   10  A    between atoms: O_27  and  C_28
REMARK   11  A    between atoms: O_29  and  C_30
REMARK                            x       y       z     vdW  Elec       q    Type
REMARK                         _______ _______ _______ _____ _____    ______ ____
ROOT
ATOM      1  C   UNL     1      85.199  55.181  43.256  0.00  0.00    +0.128 A 
ATOM      2  C   UNL     1      84.910  54.447  42.094  0.00  0.00    +0.022 A 
ATOM      3  C   UNL     1      84.520  53.113  42.166  0.00  0.00    +0.128 A 
ATOM      4  C   UNL     1      84.405  52.481  43.419  0.00  0.00    +0.028 A 
ATOM      5  C   UNL     1      84.711  53.196  44.602  0.00  0.00    -0.027 A 
ATOM      6  C   UNL     1      85.104  54.555  44.517  0.00  0.00    +0.015 A 
ATOM      7  C   UNL     1      85.473  55.341  45.771  0.00  0.00    +0.034 C 
ATOM      8  C   UNL     1      86.994  55.535  45.876  0.00  0.00    -0.045 C 
ATOM      9  N   UNL     1      84.943  54.733  47.004  0.00  0.00    -0.307 N 
ATOM     10  C   UNL     1      85.224  53.292  47.081  0.00  0.00    +0.009 C 
ATOM     11  C   UNL     1      84.503  52.543  45.953  0.00  0.00    -0.011 C 
ATOM     12  C   UNL     1      84.796  52.756  48.449  0.00  0.00    -0.049 C 
ATOM     13  H   UNL     1      83.933  54.873  47.031  0.00  0.00    +0.000 HD
ATOM     14  H   UNL     1      85.402  55.183  47.796  0.00  0.00    +0.000 HD
ENDROOT
BRANCH   4  15
ATOM     15  C   UNL     1      83.956  51.069  43.488  0.00  0.00    -0.006 A 
ATOM     16  C   UNL     1      82.584  50.820  43.534  0.00  0.00    -0.050 A 
ATOM     17  C   UNL     1      82.102  49.518  43.603  0.00  0.00    -0.019 A 
ATOM     18  C   UNL     1      82.981  48.422  43.630  0.00  0.00    +0.131 A 
ATOM     19  C   UNL     1      84.384  48.648  43.587  0.00  0.00    +0.066 A 
ATOM     20  C   UNL     1      84.870  49.987  43.512  0.00  0.00    -0.003 A 
ATOM     21  C   UNL     1      86.259  50.220  43.468  0.00  0.00    -0.050 A 
ATOM     22  C   UNL     1      87.165  49.159  43.483  0.00  0.00    -0.046 A 
ATOM     23  C   UNL     1      88.642  49.432  43.477  0.00  0.00    -0.040 C 
ATOM     24  C   UNL     1      86.695  47.849  43.576  0.00  0.00    -0.016 A 
ATOM     25  C   UNL     1      85.315  47.574  43.622  0.00  0.00    +0.132 A 
BRANCH  25  26
ATOM     26  O   UNL     1      84.853  46.248  43.706  0.00  0.00    -0.494 OA
ATOM     27  C   UNL     1      85.618  45.141  44.169  0.00  0.00    +0.079 C 
ENDBRANCH  25  26
BRANCH  18  28
ATOM     28  O   UNL     1      82.483  47.109  43.701  0.00  0.00    -0.494 OA
ATOM     29  C   UNL     1      81.257  46.730  44.319  0.00  0.00    +0.079 C 
ENDBRANCH  18  28
ENDBRANCH   4  15
BRANCH   1  31
ATOM     30  C   UNL     1      84.708  57.634  43.417  0.00  0.00    +0.079 C 
ATOM     31  O   UNL     1      85.581  56.532  43.194  0.00  0.00    -0.495 OA
ENDBRANCH   1  31
BRANCH   3  32
ATOM     32  O   UNL     1      84.246  52.439  40.973  0.00  0.00    -0.506 OA
ATOM     33  H   UNL     1      84.199  51.503  40.964  0.00  0.00    +0.000 HD
ENDBRANCH   3  32
TORSDOF 5
ENDMDL
MODEL 6
REMARK VINA RESULT:    -8.500      2.457      7.622
REMARK INTER + INTRA:         -11.976
REMARK INTER:                 -10.684
REMARK INTRA:                  -1.292
REMARK UNBOUND:                -1.239
REMARK  Name = 
REMARK  11 active torsions:
REMARK  status: ('A' for Active; 'I' for Inactive)
REMARK    1  A    between atoms: C_1  and  O_2
REMARK    2  A    between atoms: O_2  and  C_3
REMARK    3  A    between atoms: C_5  and  O_6
REMARK    4  A    between atoms: C_7  and  C_16
REMARK    5  A    between atoms: C_10  and  C_11
REMARK    6  A    between atoms: C_13  and  C_15
REMARK    7  A    between atoms: C_19  and  O_29
REMARK    8  A    between atoms: C_23  and  C_24
REMARK    9  A    between atoms: C_26  and  O_27
REMARK   10  A    between atoms: O_27  and  C_28
REMARK   11  A    between atoms: O_29  and  C_30
REMARK                            x       y       z     vdW  Elec       q    Type
REMARK                         _______ _______ _______ _____ _____    ______ ____
ROOT
ATOM      1  C   UNL     1      86.268  46.248  42.691  0.00  0.00    +0.128 A 
ATOM      2  C   UNL     1      85.068  46.661  43.292  0.00  0.00    +0.022 A 
ATOM      3  C   UNL     1      84.826  48.005  43.562  0.00  0.00    +0.128 A 
ATOM      4  C   UNL     1      85.790  48.975  43.226  0.00  0.00    +0.028 A 
ATOM      5  C   UNL     1      87.016  48.579  42.638  0.00  0.00    -0.027 A 
ATOM      6  C   UNL     1      87.250  47.208  42.363  0.00  0.00    +0.015 A 
ATOM      7  C   UNL     1      88.574  46.747  41.762  0.00  0.00    +0.034 C 
ATOM      8  C   UNL     1      89.456  46.066  42.819  0.00  0.00    -0.045 C 
ATOM      9  N   UNL     1      89.310  47.838  41.098  0.00  0.00    -0.307 N 
ATOM     10  C   UNL     1      89.406  49.039  41.940  0.00  0.00    +0.009 C 
ATOM     11  C   UNL     1      88.014  49.628  42.197  0.00  0.00    -0.011 C 
ATOM     12  C   UNL     1      90.317  50.068  41.267  0.00  0.00    -0.049 C 
ATOM     13  H   UNL     1      88.828  48.081  40.233  0.00  0.00    +0.000 HD
ATOM     14  H   UNL     1      90.258  47.508  40.916  0.00  0.00    +0.000 HD
ENDROOT
BRANCH   4  15
ATOM     15  C   UNL     1      85.509  50.408  43.488  0.00  0.00    -0.006 A 
ATOM     16  C   UNL     1      84.778  51.116  42.533  0.00  0.00    -0.050 A 
ATOM     17  C   UNL     1      84.487  52.461  42.719  0.00  0.00    -0.019 A 
ATOM     18  C   UNL     1      84.920  53.143  43.869  0.00  0.00    +0.131 A 
ATOM     19  C   UNL     1      85.667  52.445  44.857  0.00  0.00    +0.066 A 
ATOM     20  C   UNL     1      85.959  51.063  44.660  0.00  0.00    -0.003 A 
ATOM     21  C   UNL     1      86.700  50.364  45.633  0.00  0.00    -0.050 A 
ATOM     22  C   UNL     1      87.140  51.001  46.794  0.00  0.00    -0.046 A 
ATOM     23  C   UNL     1      87.963  50.247  47.799  0.00  0.00    -0.040 C 
ATOM     24  C   UNL     1      86.873  52.358  46.982  0.00  0.00    -0.016 A 
ATOM     25  C   UNL     1      86.137  53.091  46.033  0.00  0.00    +0.132 A 
BRANCH  25  26
ATOM     26  O   UNL     1      85.866  54.457  46.238  0.00  0.00    -0.494 OA
ATOM     27  C   UNL     1      85.813  55.100  47.508  0.00  0.00    +0.079 C 
ENDBRANCH  25  26
BRANCH  18  28
ATOM     28  O   UNL     1      84.619  54.505  44.048  0.00  0.00    -0.494 OA
ATOM     29  C   UNL     1      84.737  55.508  43.044  0.00  0.00    +0.079 C 
ENDBRANCH  18  28
ENDBRANCH   4  15
BRANCH   1  31
ATOM     30  C   UNL     1      86.501  43.844  43.361  0.00  0.00    +0.079 C 
ATOM     31  O   UNL     1      86.516  44.896  42.402  0.00  0.00    -0.495 OA
ENDBRANCH   1  31
BRANCH   3  32
ATOM     32  O   UNL     1      83.612  48.349  44.162  0.00  0.00    -0.506 OA
ATOM     33  H   UNL     1      83.180  49.147  43.922  0.00  0.00    +0.000 HD
ENDBRANCH   3  32
TORSDOF 5
ENDMDL
MODEL 7
REMARK VINA RESULT:    -8.469      2.736      7.474
REMARK INTER + INTRA:         -11.937
REMARK INTER:                 -11.237
REMARK INTRA:                  -0.700
REMARK UNBOUND:                -1.239
REMARK  Name = 
REMARK  11 active torsions:
REMARK  status: ('A' for Active; 'I' for Inactive)
REMARK    1  A    between atoms: C_1  and  O_2
REMARK    2  A    between atoms: O_2  and  C_3
REMARK    3  A    between atoms: C_5  and  O_6
REMARK    4  A    between atoms: C_7  and  C_16
REMARK    5  A    between atoms: C_10  and  C_11
REMARK    6  A    between atoms: C_13  and  C_15
REMARK    7  A    between atoms: C_19  and  O_29
REMARK    8  A    between atoms: C_23  and  C_24
REMARK    9  A    between atoms: C_26  and  O_27
REMARK   10  A    between atoms: O_27  and  C_28
REMARK   11  A    between atoms: O_29  and  C_30
REMARK                            x       y       z     vdW  Elec       q    Type
REMARK                         _______ _______ _______ _____ _____    ______ ____
ROOT
ATOM      1  C   UNL     1      87.424  48.261  42.383  0.00  0.00    +0.128 A 
ATOM      2  C   UNL     1      86.466  48.306  43.409  0.00  0.00    +0.022 A 
ATOM      3  C   UNL     1      86.194  49.491  44.086  0.00  0.00    +0.128 A 
ATOM      4  C   UNL     1      86.882  50.671  43.742  0.00  0.00    +0.028 A 
ATOM      5  C   UNL     1      87.867  50.644  42.725  0.00  0.00    -0.027 A 
ATOM      6  C   UNL     1      88.132  49.433  42.039  0.00  0.00    +0.015 A 
ATOM      7  C   UNL     1      89.211  49.364  40.963  0.00  0.00    +0.034 C 
ATOM      8  C   UNL     1      90.465  48.644  41.480  0.00  0.00    -0.045 C 
ATOM      9  N   UNL     1      89.561  50.689  40.420  0.00  0.00    -0.307 N 
ATOM     10  C   UNL     1      89.816  51.676  41.480  0.00  0.00    +0.009 C 
ATOM     11  C   UNL     1      88.542  51.930  42.295  0.00  0.00    -0.011 C 
ATOM     12  C   UNL     1      90.331  52.976  40.859  0.00  0.00    -0.049 C 
ATOM     13  H   UNL     1      88.791  51.020  39.840  0.00  0.00    +0.000 HD
ATOM     14  H   UNL     1      90.418  50.586  39.877  0.00  0.00    +0.000 HD
ENDROOT
BRANCH   4  15
ATOM     15  C   UNL     1      86.562  51.936  44.447  0.00  0.00    -0.006 A 
ATOM     16  C   UNL     1      87.019  52.089  45.756  0.00  0.00    -0.050 A 
ATOM     17  C   UNL     1      86.748  53.250  46.470  0.00  0.00    -0.019 A 
ATOM     18  C   UNL     1      86.007  54.297  45.895  0.00  0.00    +0.131 A 
ATOM     19  C   UNL     1      85.528  54.165  44.563  0.00  0.00    +0.066 A 
ATOM     20  C   UNL     1      85.814  52.972  43.836  0.00  0.00    -0.003 A 
ATOM     21  C   UNL     1      85.342  52.834  42.515  0.00  0.00    -0.050 A 
ATOM     22  C   UNL     1      84.611  53.853  41.904  0.00  0.00    -0.046 A 
ATOM     23  C   UNL     1      84.083  53.668  40.510  0.00  0.00    -0.040 C 
ATOM     24  C   UNL     1      84.312  55.014  42.618  0.00  0.00    -0.016 A 
ATOM     25  C   UNL     1      84.764  55.190  43.939  0.00  0.00    +0.132 A 
BRANCH  25  26
ATOM     26  O   UNL     1      84.465  56.370  44.646  0.00  0.00    -0.494 OA
ATOM     27  C   UNL     1      84.848  57.683  44.249  0.00  0.00    +0.079 C 
ENDBRANCH  25  26
BRANCH  18  28
ATOM     28  O   UNL     1      85.738  55.467  46.626  0.00  0.00    -0.494 OA
ATOM     29  C   UNL     1      84.881  55.545  47.761  0.00  0.00    +0.079 C 
ENDBRANCH  18  28
ENDBRANCH   4  15
BRANCH   1  31
ATOM     30  C   UNL     1      87.873  45.796  42.291  0.00  0.00    +0.079 C 
ATOM     31  O   UNL     1      87.695  47.072  41.685  0.00  0.00    -0.495 OA
ENDBRANCH   1  31
BRANCH   3  32
ATOM     32  O   UNL     1      85.229  49.468  45.097  0.00  0.00    -0.506 OA
ATOM     33  H   UNL     1      84.406  49.044  44.949  0.00  0.00    +0.000 HD
ENDBRANCH   3  32
TORSDOF 5
ENDMDL
MODEL 8
REMARK VINA RESULT:    -8.392      1.992      4.331
REMARK INTER + INTRA:         -11.839
REMARK INTER:                 -10.589
REMARK INTRA:                  -1.250
REMARK UNBOUND:                -1.239
REMARK  Name = 
REMARK  11 active torsions:
REMARK  status: ('A' for Active; 'I' for Inactive)
REMARK    1  A    between atoms: C_1  and  O_2
REMARK    2  A    between atoms: O_2  and  C_3
REMARK    3  A    between atoms: C_5  and  O_6
REMARK    4  A    between atoms: C_7  and  C_16
REMARK    5  A    between atoms: C_10  and  C_11
REMARK    6  A    between atoms: C_13  and  C_15
REMARK    7  A    between atoms: C_19  and  O_29
REMARK    8  A    between atoms: C_23  and  C_24
REMARK    9  A    between atoms: C_26  and  O_27
REMARK   10  A    between atoms: O_27  and  C_28
REMARK   11  A    between atoms: O_29  and  C_30
REMARK                            x       y       z     vdW  Elec       q    Type
REMARK                         _______ _______ _______ _____ _____    ______ ____
ROOT
ATOM      1  C   UNL     1      86.453  53.837  45.705  0.00  0.00    +0.128 A 
ATOM      2  C   UNL     1      86.631  52.676  46.474  0.00  0.00    +0.022 A 
ATOM      3  C   UNL     1      86.349  51.418  45.948  0.00  0.00    +0.128 A 
ATOM      4  C   UNL     1      85.884  51.296  44.625  0.00  0.00    +0.028 A 
ATOM      5  C   UNL     1      85.679  52.456  43.839  0.00  0.00    -0.027 A 
ATOM      6  C   UNL     1      85.973  53.731  44.382  0.00  0.00    +0.015 A 
ATOM      7  C   UNL     1      85.729  55.001  43.572  0.00  0.00    +0.034 C 
ATOM      8  C   UNL     1      84.479  55.744  44.068  0.00  0.00    -0.045 C 
ATOM      9  N   UNL     1      85.638  54.745  42.123  0.00  0.00    -0.307 N 
ATOM     10  C   UNL     1      84.728  53.635  41.809  0.00  0.00    +0.009 C 
ATOM     11  C   UNL     1      85.263  52.320  42.389  0.00  0.00    -0.011 C 
ATOM     12  C   UNL     1      84.551  53.528  40.292  0.00  0.00    -0.049 C 
ATOM     13  H   UNL     1      86.568  54.518  41.771  0.00  0.00    +0.000 HD
ATOM     14  H   UNL     1      85.268  55.586  41.681  0.00  0.00    +0.000 HD
ENDROOT
BRANCH   4  15
ATOM     15  C   UNL     1      85.619  49.949  44.063  0.00  0.00    -0.006 A 
ATOM     16  C   UNL     1      84.317  49.453  44.142  0.00  0.00    -0.050 A 
ATOM     17  C   UNL     1      84.007  48.196  43.637  0.00  0.00    -0.019 A 
ATOM     18  C   UNL     1      84.993  47.393  43.038  0.00  0.00    +0.131 A 
ATOM     19  C   UNL     1      86.327  47.874  42.948  0.00  0.00    +0.066 A 
ATOM     20  C   UNL     1      86.637  49.168  43.465  0.00  0.00    -0.003 A 
ATOM     21  C   UNL     1      87.957  49.651  43.380  0.00  0.00    -0.050 A 
ATOM     22  C   UNL     1      88.964  48.891  42.784  0.00  0.00    -0.046 A 
ATOM     23  C   UNL     1      90.372  49.409  42.741  0.00  0.00    -0.040 C 
ATOM     24  C   UNL     1      88.670  47.617  42.295  0.00  0.00    -0.016 A 
ATOM     25  C   UNL     1      87.364  47.097  42.362  0.00  0.00    +0.132 A 
BRANCH  25  26
ATOM     26  O   UNL     1      87.078  45.816  41.855  0.00  0.00    -0.494 OA
ATOM     27  C   UNL     1      87.704  44.609  42.278  0.00  0.00    +0.079 C 
ENDBRANCH  25  26
BRANCH  18  28
ATOM     28  O   UNL     1      84.668  46.122  42.531  0.00  0.00    -0.494 OA
ATOM     29  C   UNL     1      83.998  45.097  43.258  0.00  0.00    +0.079 C 
ENDBRANCH  18  28
ENDBRANCH   4  15
BRANCH   1  31
ATOM     30  C   UNL     1      86.085  55.710  47.331  0.00  0.00    +0.079 C 
ATOM     31  O   UNL     1      86.748  55.111  46.222  0.00  0.00    -0.495 OA
ENDBRANCH   1  31
BRANCH   3  32
ATOM     32  O   UNL     1      86.547  50.302  46.766  0.00  0.00    -0.506 OA
ATOM     33  H   UNL     1      86.196  50.290  47.635  0.00  0.00    +0.000 HD
ENDBRANCH   3  32
TORSDOF 5
ENDMDL
MODEL 9
REMARK VINA RESULT:    -8.184      2.509      7.491
REMARK INTER + INTRA:         -11.576
REMARK INTER:                 -10.337
REMARK INTRA:                  -1.239
REMARK UNBOUND:                -1.239
REMARK  Name = 
REMARK  11 active torsions:
REMARK  status: ('A' for Active; 'I' for Inactive)
REMARK    1  A    between atoms: C_1  and  O_2
REMARK    2  A    between atoms: O_2  and  C_3
REMARK    3  A    between atoms: C_5  and  O_6
REMARK    4  A    between atoms: C_7  and  C_16
REMARK    5  A    between atoms: C_10  and  C_11
REMARK    6  A    between atoms: C_13  and  C_15
REMARK    7  A    between atoms: C_19  and  O_29
REMARK    8  A    between atoms: C_23  and  C_24
REMARK    9  A    between atoms: C_26  and  O_27
REMARK   10  A    between atoms: O_27  and  C_28
REMARK   11  A    between atoms: O_29  and  C_30
REMARK                            x       y       z     vdW  Elec       q    Type
REMARK                         _______ _______ _______ _____ _____    ______ ____
ROOT
ATOM      1  C   UNL     1      86.077  46.765  42.432  0.00  0.00    +0.128 A 
ATOM      2  C   UNL     1      84.960  47.312  43.084  0.00  0.00    +0.022 A 
ATOM      3  C   UNL     1      85.052  48.516  43.778  0.00  0.00    +0.128 A 
ATOM      4  C   UNL     1      86.279  49.206  43.829  0.00  0.00    +0.028 A 
ATOM      5  C   UNL     1      87.423  48.662  43.196  0.00  0.00    -0.027 A 
ATOM      6  C   UNL     1      87.317  47.438  42.489  0.00  0.00    +0.015 A 
ATOM      7  C   UNL     1      88.539  46.810  41.827  0.00  0.00    +0.034 C 
ATOM      8  C   UNL     1      89.048  45.605  42.632  0.00  0.00    -0.045 C 
ATOM      9  N   UNL     1      89.627  47.778  41.600  0.00  0.00    -0.307 N 
ATOM     10  C   UNL     1      89.923  48.575  42.799  0.00  0.00    +0.009 C 
ATOM     11  C   UNL     1      88.718  49.446  43.176  0.00  0.00    -0.011 C 
ATOM     12  C   UNL     1      91.161  49.439  42.550  0.00  0.00    -0.049 C 
ATOM     13  H   UNL     1      89.354  48.408  40.846  0.00  0.00    +0.000 HD
ATOM     14  H   UNL     1      90.467  47.252  41.360  0.00  0.00    +0.000 HD
ENDROOT
BRANCH   4  15
ATOM     15  C   UNL     1      86.359  50.504  44.542  0.00  0.00    -0.006 A 
ATOM     16  C   UNL     1      86.708  50.487  45.894  0.00  0.00    -0.050 A 
ATOM     17  C   UNL     1      86.796  51.670  46.617  0.00  0.00    -0.019 A 
ATOM     18  C   UNL     1      86.534  52.910  46.010  0.00  0.00    +0.131 A 
ATOM     19  C   UNL     1      86.175  52.955  44.636  0.00  0.00    +0.066 A 
ATOM     20  C   UNL     1      86.091  51.736  43.899  0.00  0.00    -0.003 A 
ATOM     21  C   UNL     1      85.735  51.773  42.536  0.00  0.00    -0.050 A 
ATOM     22  C   UNL     1      85.477  52.984  41.894  0.00  0.00    -0.046 A 
ATOM     23  C   UNL     1      85.059  52.995  40.451  0.00  0.00    -0.040 C 
ATOM     24  C   UNL     1      85.539  54.177  42.615  0.00  0.00    -0.016 A 
ATOM     25  C   UNL     1      85.890  54.183  43.978  0.00  0.00    +0.132 A 
BRANCH  25  26
ATOM     26  O   UNL     1      85.959  55.393  44.692  0.00  0.00    -0.494 OA
ATOM     27  C   UNL     1      86.545  56.598  44.209  0.00  0.00    +0.079 C 
ENDBRANCH  25  26
BRANCH  18  28
ATOM     28  O   UNL     1      86.625  54.101  46.752  0.00  0.00    -0.494 OA
ATOM     29  C   UNL     1      85.802  54.438  47.865  0.00  0.00    +0.079 C 
ENDBRANCH  18  28
ENDBRANCH   4  15
BRANCH   1  31
ATOM     30  C   UNL     1      85.319  44.389  42.177  0.00  0.00    +0.079 C 
ATOM     31  O   UNL     1      85.990  45.558  41.718  0.00  0.00    -0.495 OA
ENDBRANCH   1  31
BRANCH   3  32
ATOM     32  O   UNL     1      83.904  49.007  44.404  0.00  0.00    -0.506 OA
ATOM     33  H   UNL     1      83.936  49.819  44.872  0.00  0.00    +0.000 HD
ENDBRANCH   3  32
TORSDOF 5
ENDMDL
