=
 OpenBabel08112514243D

 33 36  0  0  1  0  0  0  0  0999 V2000
   86.2560   48.7460   44.2120 C   0  0  0  0  0  0  0  0  0  0  0  0
   86.4460   47.4540   43.6810 C   0  0  0  0  0  0  0  0  0  0  0  0
   87.6110   47.1600   42.9540 C   0  0  0  0  0  0  0  0  0  0  0  0
   87.7500   45.8270   42.2650 C   0  0  0  0  0  2  0  0  0  0  0  0
   87.1080   44.6430   43.0440 C   0  0  1  0  0  3  0  0  0  0  0  0
   86.1340   45.0790   44.0840 N   0  0  0  0  0  4  0  0  0  0  0  0
   85.4240   46.3600   43.8690 C   0  0  2  0  0  3  0  0  0  0  0  0
   84.4430   46.3270   42.6880 C   0  0  0  0  0  1  0  0  0  0  0  0
   85.3090   44.0160   44.6820 C   0  0  0  0  0  1  0  0  0  0  0  0
   86.5320   43.6050   42.0580 C   0  0  0  0  0  1  0  0  0  0  0  0
   88.5700   48.1580   42.7420 C   0  0  0  0  0  3  0  0  0  0  0  0
   88.3930   49.4410   43.2620 C   0  0  0  0  0  0  0  0  0  0  0  0
   87.2360   49.7420   44.0120 C   0  0  0  0  0  0  0  0  0  0  0  0
   86.7860   45.3330   44.8260 H   0  0  0  0  0  0  0  0  0  0  0  0
   87.0260   51.1060   44.5550 C   0  0  0  0  0  0  0  0  0  0  0  0
   87.2210   51.3530   45.9320 C   0  0  0  0  0  0  0  0  0  0  0  0
   87.6520   50.2560   46.8730 C   0  0  0  0  0  1  0  0  0  0  0  0
   87.0310   52.6430   46.4350 C   0  0  0  0  0  3  0  0  0  0  0  0
   86.6240   53.6890   45.6000 C   0  0  0  0  0  0  0  0  0  0  0  0
   86.4090   53.4590   44.2150 C   0  0  0  0  0  0  0  0  0  0  0  0
   86.6250   52.1570   43.6940 C   0  0  0  0  0  0  0  0  0  0  0  0
   85.9920   54.5440   43.3950 C   0  0  0  0  0  0  0  0  0  0  0  0
   85.8050   55.8150   43.9720 C   0  0  0  0  0  3  0  0  0  0  0  0
   86.0240   56.0210   45.3310 C   0  0  0  0  0  3  0  0  0  0  0  0
   86.4300   54.9670   46.1420 C   0  0  0  0  0  3  0  0  0  0  0  0
   86.4500   51.9190   42.3270 O   0  0  0  0  0  0  0  0  0  0  0  0
   86.9560   51.2580   41.8980 H   0  0  0  0  0  0  0  0  0  0  0  0
   85.7690   54.3400   42.0210 O   0  0  0  0  0  0  0  0  0  0  0  0
   84.6380   54.8150   41.2980 C   0  0  0  0  0  1  0  0  0  0  0  0
   83.9430   49.6090   44.2590 C   0  0  0  0  0  1  0  0  0  0  0  0
   85.0760   49.0400   44.9050 O   0  0  0  0  0  0  0  0  0  0  0  0
   89.3710   50.4020   42.9990 O   0  0  0  0  0  0  0  0  0  0  0  0
   89.3140   51.2500   43.3930 H   0  0  0  0  0  0  0  0  0  0  0  0
  1 31  1  0  0  0  0
  2  7  1  0  0  0  0
  2  1  2  0  0  0  0
  3  2  1  0  0  0  0
  4  3  1  0  0  0  0
  4  5  1  0  0  0  0
  5 10  1  6  0  0  0
  5  6  1  0  0  0  0
  6  9  1  0  0  0  0
  6 14  1  0  0  0  0
  7  8  1  6  0  0  0
  7  6  1  0  0  0  0
 11  3  2  0  0  0  0
 11 12  1  0  0  0  0
 12 13  2  0  0  0  0
 13  1  1  0  0  0  0
 13 15  1  0  0  0  0
 15 16  1  0  0  0  0
 16 18  2  0  0  0  0
 16 17  1  0  0  0  0
 19 25  1  0  0  0  0
 19 18  1  0  0  0  0
 20 19  2  0  0  0  0
 21 20  1  0  0  0  0
 21 15  2  0  0  0  0
 22 23  2  0  0  0  0
 22 20  1  0  0  0  0
 23 24  1  0  0  0  0
 24 25  2  0  0  0  0
 26 21  1  0  0  0  0
 27 26  1  0  0  0  0
 28 22  1  0  0  0  0
 29 28  1  0  0  0  0
 30 31  1  0  0  0  0
 32 12  1  0  0  0  0
 32 33  1  0  0  0  0
M  END
>  <MODEL>
1

>  <REMARK>
 VINA RESULT:    -9.333      0.000      0.000
 INTER + INTRA:         -12.261
 INTER:                 -11.583
 INTRA:                  -0.678
 UNBOUND:                -0.745
  Name = 
  11 active torsions:
  status: ('A' for Active; 'I' for Inactive)
    1  A    between atoms: C_1  and  O_2
    2  A    between atoms: O_2  and  C_3
    3  A    between atoms: C_7  and  C_12
    4  A    between atoms: N_8  and  C_11
    5  A    between atoms: C_9  and  C_10
    6  A    between atoms: C_14  and  O_30
    7  A    between atoms: C_15  and  C_16
    8  A    between atoms: C_17  and  C_18
    9  A    between atoms: C_22  and  O_23
   10  A    between atoms: C_24  and  O_25
   11  A    between atoms: O_25  and  C_26
                            x       y       z     vdW  Elec       q    Type
                         _______ _______ _______ _____ _____    ______ ____

>  <TORSDO>
F 5

$$$$
=
 OpenBabel08112514243D

 33 36  0  0  1  0  0  0  0  0999 V2000
   86.3870   51.3910   44.0320 C   0  0  0  0  0  0  0  0  0  0  0  0
   86.2120   52.6450   44.6500 C   0  0  0  0  0  0  0  0  0  0  0  0
   86.7380   52.8740   45.9320 C   0  0  0  0  0  0  0  0  0  0  0  0
   86.4290   54.1610   46.6520 C   0  0  0  0  0  2  0  0  0  0  0  0
   86.3310   55.4010   45.7160 C   0  0  1  0  0  3  0  0  0  0  0  0
   86.1430   55.0450   44.2810 N   0  0  0  0  0  4  0  0  0  0  0  0
   85.4640   53.7670   43.9720 C   0  0  2  0  0  3  0  0  0  0  0  0
   83.9810   53.7480   44.3720 C   0  0  0  0  0  1  0  0  0  0  0  0
   85.7940   56.1560   43.3810 C   0  0  0  0  0  1  0  0  0  0  0  0
   85.2730   56.3890   46.2490 C   0  0  0  0  0  1  0  0  0  0  0  0
   87.4190   51.8480   46.5990 C   0  0  0  0  0  3  0  0  0  0  0  0
   87.5980   50.6020   45.9970 C   0  0  0  0  0  0  0  0  0  0  0  0
   87.0910   50.3670   44.7010 C   0  0  0  0  0  0  0  0  0  0  0  0
   87.1090   54.8240   44.0380 H   0  0  0  0  0  0  0  0  0  0  0  0
   87.2590   49.0410   44.0580 C   0  0  0  0  0  0  0  0  0  0  0  0
   88.3890   48.7900   43.2480 C   0  0  0  0  0  0  0  0  0  0  0  0
   89.4460   49.8430   43.0260 C   0  0  0  0  0  1  0  0  0  0  0  0
   88.5450   47.5350   42.6520 C   0  0  0  0  0  3  0  0  0  0  0  0
   87.5860   46.5320   42.8240 C   0  0  0  0  0  0  0  0  0  0  0  0
   86.4360   46.7680   43.6230 C   0  0  0  0  0  0  0  0  0  0  0  0
   86.2840   48.0310   44.2500 C   0  0  0  0  0  0  0  0  0  0  0  0
   85.4780   45.7270   43.7730 C   0  0  0  0  0  0  0  0  0  0  0  0
   85.6920   44.4920   43.1320 C   0  0  0  0  0  3  0  0  0  0  0  0
   86.8270   44.2790   42.3550 C   0  0  0  0  0  3  0  0  0  0  0  0
   87.7690   45.2900   42.1990 C   0  0  0  0  0  3  0  0  0  0  0  0
   85.1740   48.2720   45.0670 O   0  0  0  0  0  0  0  0  0  0  0  0
   85.2950   48.4770   45.9730 H   0  0  0  0  0  0  0  0  0  0  0  0
   84.3280   45.9390   44.5560 O   0  0  0  0  0  0  0  0  0  0  0  0
   82.9890   45.7570   44.1070 C   0  0  0  0  0  1  0  0  0  0  0  0
   86.4720   51.5730   41.5710 C   0  0  0  0  0  1  0  0  0  0  0  0
   85.8280   51.1590   42.7700 O   0  0  0  0  0  0  0  0  0  0  0  0
   88.2640   49.6090   46.7190 O   0  0  0  0  0  0  0  0  0  0  0  0
   88.1430   49.5410   47.6460 H   0  0  0  0  0  0  0  0  0  0  0  0
  1  2  2  0  0  0  0
  1 13  1  0  0  0  0
  2  3  1  0  0  0  0
  3 11  2  0  0  0  0
  3  4  1  0  0  0  0
  5 10  1  1  0  0  0
  5  4  1  0  0  0  0
  6  5  1  0  0  0  0
  7  6  1  0  0  0  0
  7  8  1  1  0  0  0
  7  2  1  0  0  0  0
  9  6  1  0  0  0  0
 12 11  1  0  0  0  0
 12 32  1  0  0  0  0
 13 12  2  0  0  0  0
 14  6  1  0  0  0  0
 15 21  1  0  0  0  0
 15 13  1  0  0  0  0
 16 15  2  0  0  0  0
 17 16  1  0  0  0  0
 18 19  2  0  0  0  0
 18 16  1  0  0  0  0
 19 20  1  0  0  0  0
 20 22  1  0  0  0  0
 20 21  2  0  0  0  0
 21 26  1  0  0  0  0
 22 28  1  0  0  0  0
 23 22  2  0  0  0  0
 24 23  1  0  0  0  0
 25 24  2  0  0  0  0
 25 19  1  0  0  0  0
 26 27  1  0  0  0  0
 29 28  1  0  0  0  0
 30 31  1  0  0  0  0
 31  1  1  0  0  0  0
 32 33  1  0  0  0  0
M  END
>  <MODEL>
2

>  <REMARK>
 VINA RESULT:    -9.129      2.297      7.705
 INTER + INTRA:         -12.008
 INTER:                 -11.088
 INTRA:                  -0.920
 UNBOUND:                -0.745
  Name = 
  11 active torsions:
  status: ('A' for Active; 'I' for Inactive)
    1  A    between atoms: C_1  and  O_2
    2  A    between atoms: O_2  and  C_3
    3  A    between atoms: C_7  and  C_12
    4  A    between atoms: N_8  and  C_11
    5  A    between atoms: C_9  and  C_10
    6  A    between atoms: C_14  and  O_30
    7  A    between atoms: C_15  and  C_16
    8  A    between atoms: C_17  and  C_18
    9  A    between atoms: C_22  and  O_23
   10  A    between atoms: C_24  and  O_25
   11  A    between atoms: O_25  and  C_26
                            x       y       z     vdW  Elec       q    Type
                         _______ _______ _______ _____ _____    ______ ____

>  <TORSDO>
F 5

$$$$
=
 OpenBabel08112514243D

 33 36  0  0  1  0  0  0  0  0999 V2000
   85.0670   52.8680   45.1330 C   0  0  0  0  0  0  0  0  0  0  0  0
   85.0920   54.2760   45.0680 C   0  0  0  0  0  0  0  0  0  0  0  0
   85.2610   54.9170   43.8300 C   0  0  0  0  0  0  0  0  0  0  0  0
   85.4330   56.4130   43.7760 C   0  0  0  0  0  2  0  0  0  0  0  0
   84.6030   57.1830   44.8430 C   0  0  1  0  0  3  0  0  0  0  0  0
   84.1330   56.3200   45.9630 N   0  0  0  0  0  4  0  0  0  0  0  0
   84.9450   55.1300   46.3030 C   0  0  2  0  0  3  0  0  0  0  0  0
   86.3230   55.4750   46.8900 C   0  0  0  0  0  1  0  0  0  0  0  0
   83.5620   57.0220   47.1240 C   0  0  0  0  0  1  0  0  0  0  0  0
   85.3690   58.4370   45.3130 C   0  0  0  0  0  1  0  0  0  0  0  0
   85.4230   54.1540   42.6670 C   0  0  0  0  0  3  0  0  0  0  0  0
   85.3990   52.7600   42.7180 C   0  0  0  0  0  0  0  0  0  0  0  0
   85.2100   52.1050   43.9540 C   0  0  0  0  0  0  0  0  0  0  0  0
   83.3250   55.8890   45.5120 H   0  0  0  0  0  0  0  0  0  0  0  0
   85.2020   50.6240   44.0260 C   0  0  0  0  0  0  0  0  0  0  0  0
   86.4170   49.9190   44.1800 C   0  0  0  0  0  0  0  0  0  0  0  0
   87.7360   50.6430   44.2850 C   0  0  0  0  0  1  0  0  0  0  0  0
   86.4000   48.5240   44.2570 C   0  0  0  0  0  3  0  0  0  0  0  0
   85.2010   47.8110   44.1570 C   0  0  0  0  0  0  0  0  0  0  0  0
   83.9690   48.4990   43.9880 C   0  0  0  0  0  0  0  0  0  0  0  0
   83.9780   49.9170   43.9340 C   0  0  0  0  0  0  0  0  0  0  0  0
   82.7680   47.7440   43.8860 C   0  0  0  0  0  0  0  0  0  0  0  0
   82.8280   46.3380   43.9560 C   0  0  0  0  0  3  0  0  0  0  0  0
   84.0440   45.6830   44.1250 C   0  0  0  0  0  3  0  0  0  0  0  0
   85.2240   46.4110   44.2240 C   0  0  0  0  0  3  0  0  0  0  0  0
   82.7720   50.6130   43.8010 O   0  0  0  0  0  0  0  0  0  0  0  0
   82.7420   51.5350   43.9670 H   0  0  0  0  0  0  0  0  0  0  0  0
   81.5370   48.4020   43.7140 O   0  0  0  0  0  0  0  0  0  0  0  0
   80.3150   48.0260   44.3410 C   0  0  0  0  0  1  0  0  0  0  0  0
   86.0570   51.9520   47.2010 C   0  0  0  0  0  1  0  0  0  0  0  0
   84.9350   52.2370   46.3750 O   0  0  0  0  0  0  0  0  0  0  0  0
   85.5890   52.0510   41.5300 O   0  0  0  0  0  0  0  0  0  0  0  0
   85.4140   51.1310   41.4990 H   0  0  0  0  0  0  0  0  0  0  0  0
  1 31  1  0  0  0  0
  2  1  1  0  0  0  0
  2  7  1  0  0  0  0
  3  2  2  0  0  0  0
  4  3  1  0  0  0  0
  4  5  1  0  0  0  0
  5 10  1  1  0  0  0
  5  6  1  0  0  0  0
  6  7  1  0  0  0  0
  6  9  1  0  0  0  0
  7  8  1  6  0  0  0
 11 12  2  0  0  0  0
 11  3  1  0  0  0  0
 12 13  1  0  0  0  0
 13 15  1  0  0  0  0
 13  1  2  0  0  0  0
 14  6  1  0  0  0  0
 15 16  1  0  0  0  0
 16 18  2  0  0  0  0
 16 17  1  0  0  0  0
 19 25  1  0  0  0  0
 19 18  1  0  0  0  0
 20 19  2  0  0  0  0
 21 20  1  0  0  0  0
 21 15  2  0  0  0  0
 22 23  2  0  0  0  0
 22 20  1  0  0  0  0
 23 24  1  0  0  0  0
 24 25  2  0  0  0  0
 26 21  1  0  0  0  0
 26 27  1  0  0  0  0
 28 22  1  0  0  0  0
 28 29  1  0  0  0  0
 31 30  1  0  0  0  0
 32 12  1  0  0  0  0
 33 32  1  0  0  0  0
M  END
>  <MODEL>
3

>  <REMARK>
 VINA RESULT:    -9.115      2.913      7.946
 INTER + INTRA:         -11.991
 INTER:                 -11.149
 INTRA:                  -0.842
 UNBOUND:                -0.745
  Name = 
  11 active torsions:
  status: ('A' for Active; 'I' for Inactive)
    1  A    between atoms: C_1  and  O_2
    2  A    between atoms: O_2  and  C_3
    3  A    between atoms: C_7  and  C_12
    4  A    between atoms: N_8  and  C_11
    5  A    between atoms: C_9  and  C_10
    6  A    between atoms: C_14  and  O_30
    7  A    between atoms: C_15  and  C_16
    8  A    between atoms: C_17  and  C_18
    9  A    between atoms: C_22  and  O_23
   10  A    between atoms: C_24  and  O_25
   11  A    between atoms: O_25  and  C_26
                            x       y       z     vdW  Elec       q    Type
                         _______ _______ _______ _____ _____    ______ ____

>  <TORSDO>
F 5

$$$$
=
 OpenBabel08112514243D

 33 36  0  0  1  0  0  0  0  0999 V2000
   85.2560   53.6830   44.8750 C   0  0  0  0  0  0  0  0  0  0  0  0
   85.0330   55.0210   45.2610 C   0  0  0  0  0  0  0  0  0  0  0  0
   84.6960   55.3190   46.5910 C   0  0  0  0  0  0  0  0  0  0  0  0
   84.3170   56.7270   46.9720 C   0  0  0  0  0  2  0  0  0  0  0  0
   85.1030   57.8250   46.1970 C   0  0  1  0  0  3  0  0  0  0  0  0
   85.7610   57.3190   44.9600 N   0  0  0  0  0  4  0  0  0  0  0  0
   85.1430   56.1590   44.2770 C   0  0  2  0  0  3  0  0  0  0  0  0
   83.7740   56.4720   43.6540 C   0  0  0  0  0  1  0  0  0  0  0  0
   86.3060   58.3430   44.0540 C   0  0  0  0  0  1  0  0  0  0  0  0
   84.2040   59.0560   45.9580 C   0  0  0  0  0  1  0  0  0  0  0  0
   84.5630   54.2850   47.5250 C   0  0  0  0  0  3  0  0  0  0  0  0
   84.7820   52.9570   47.1550 C   0  0  0  0  0  0  0  0  0  0  0  0
   85.1400   52.6470   45.8260 C   0  0  0  0  0  0  0  0  0  0  0  0
   86.5880   56.8900   45.3760 H   0  0  0  0  0  0  0  0  0  0  0  0
   85.3570   51.2390   45.4150 C   0  0  0  0  0  0  0  0  0  0  0  0
   86.6260   50.6410   45.5900 C   0  0  0  0  0  0  0  0  0  0  0  0
   87.7760   51.4050   46.1990 C   0  0  0  0  0  1  0  0  0  0  0  0
   86.8200   49.3100   45.2100 C   0  0  0  0  0  3  0  0  0  0  0  0
   85.7840   48.5670   44.6330 C   0  0  0  0  0  0  0  0  0  0  0  0
   84.5050   49.1530   44.4370 C   0  0  0  0  0  0  0  0  0  0  0  0
   84.2950   50.4960   44.8440 C   0  0  0  0  0  0  0  0  0  0  0  0
   83.4750   48.3710   43.8440 C   0  0  0  0  0  0  0  0  0  0  0  0
   83.7460   47.0400   43.4710 C   0  0  0  0  0  3  0  0  0  0  0  0
   85.0050   46.4840   43.6750 C   0  0  0  0  0  3  0  0  0  0  0  0
   86.0200   47.2400   44.2510 C   0  0  0  0  0  3  0  0  0  0  0  0
   83.0330   51.0790   44.6880 O   0  0  0  0  0  0  0  0  0  0  0  0
   82.8770   51.6770   43.9840 H   0  0  0  0  0  0  0  0  0  0  0  0
   82.2010   48.9290   43.6350 O   0  0  0  0  0  0  0  0  0  0  0  0
   80.9670   48.2770   43.9160 C   0  0  0  0  0  1  0  0  0  0  0  0
   86.8890   53.4090   43.0440 C   0  0  0  0  0  1  0  0  0  0  0  0
   85.5560   53.3910   43.5400 O   0  0  0  0  0  0  0  0  0  0  0  0
   84.6120   51.9650   48.1230 O   0  0  0  0  0  0  0  0  0  0  0  0
   83.7980   51.8920   48.5830 H   0  0  0  0  0  0  0  0  0  0  0  0
  1  2  2  0  0  0  0
  1 13  1  0  0  0  0
  2  3  1  0  0  0  0
  3  4  1  0  0  0  0
  3 11  2  0  0  0  0
  5 10  1  6  0  0  0
  5  4  1  0  0  0  0
  6 14  1  0  0  0  0
  6  5  1  0  0  0  0
  7  8  1  1  0  0  0
  7  6  1  0  0  0  0
  7  2  1  0  0  0  0
  9  6  1  0  0  0  0
 12 11  1  0  0  0  0
 12 32  1  0  0  0  0
 13 12  2  0  0  0  0
 15 16  1  0  0  0  0
 15 13  1  0  0  0  0
 16 17  1  0  0  0  0
 18 16  2  0  0  0  0
 19 18  1  0  0  0  0
 20 19  1  0  0  0  0
 20 21  1  0  0  0  0
 21 15  2  0  0  0  0
 22 20  2  0  0  0  0
 23 24  2  0  0  0  0
 23 22  1  0  0  0  0
 24 25  1  0  0  0  0
 25 19  2  0  0  0  0
 26 21  1  0  0  0  0
 27 26  1  0  0  0  0
 28 22  1  0  0  0  0
 28 29  1  0  0  0  0
 30 31  1  0  0  0  0
 31  1  1  0  0  0  0
 32 33  1  0  0  0  0
M  END
>  <MODEL>
4

>  <REMARK>
 VINA RESULT:    -8.472      3.063      8.271
 INTER + INTRA:         -11.198
 INTER:                 -10.267
 INTRA:                  -0.931
 UNBOUND:                -0.745
  Name = 
  11 active torsions:
  status: ('A' for Active; 'I' for Inactive)
    1  A    between atoms: C_1  and  O_2
    2  A    between atoms: O_2  and  C_3
    3  A    between atoms: C_7  and  C_12
    4  A    between atoms: N_8  and  C_11
    5  A    between atoms: C_9  and  C_10
    6  A    between atoms: C_14  and  O_30
    7  A    between atoms: C_15  and  C_16
    8  A    between atoms: C_17  and  C_18
    9  A    between atoms: C_22  and  O_23
   10  A    between atoms: C_24  and  O_25
   11  A    between atoms: O_25  and  C_26
                            x       y       z     vdW  Elec       q    Type
                         _______ _______ _______ _____ _____    ______ ____

>  <TORSDO>
F 5

$$$$
=
 OpenBabel08112514243D

 33 36  0  0  1  0  0  0  0  0999 V2000
   87.3010   51.0110   43.2660 C   0  0  0  0  0  0  0  0  0  0  0  0
   87.6510   49.6610   43.0600 C   0  0  0  0  0  0  0  0  0  0  0  0
   86.6790   48.6570   43.1960 C   0  0  0  0  0  0  0  0  0  0  0  0
   87.0810   47.2070   43.1180 C   0  0  0  0  0  2  0  0  0  0  0  0
   88.2280   46.9220   42.1060 C   0  0  1  0  0  3  0  0  0  0  0  0
   88.9910   48.1430   41.7190 N   0  0  0  0  0  4  0  0  0  0  0  0
   89.0570   49.2530   42.6960 C   0  0  2  0  0  3  0  0  0  0  0  0
   89.8660   48.9120   43.9570 C   0  0  0  0  0  1  0  0  0  0  0  0
   90.2360   47.9140   40.9680 C   0  0  0  0  0  1  0  0  0  0  0  0
   89.1220   45.7760   42.6220 C   0  0  0  0  0  1  0  0  0  0  0  0
   85.3690   49.0000   43.5540 C   0  0  0  0  0  3  0  0  0  0  0  0
   85.0100   50.3320   43.7600 C   0  0  0  0  0  0  0  0  0  0  0  0
   85.9740   51.3520   43.6080 C   0  0  0  0  0  0  0  0  0  0  0  0
   88.3490   48.5250   41.0240 H   0  0  0  0  0  0  0  0  0  0  0  0
   85.6110   52.7700   43.8420 C   0  0  0  0  0  0  0  0  0  0  0  0
   85.1440   53.5640   42.7700 C   0  0  0  0  0  0  0  0  0  0  0  0
   84.9940   52.9960   41.3800 C   0  0  0  0  0  1  0  0  0  0  0  0
   84.7950   54.8970   43.0010 C   0  0  0  0  0  3  0  0  0  0  0  0
   84.9250   55.4670   44.2720 C   0  0  0  0  0  0  0  0  0  0  0  0
   85.4060   54.6910   45.3600 C   0  0  0  0  0  0  0  0  0  0  0  0
   85.7390   53.3300   45.1370 C   0  0  0  0  0  0  0  0  0  0  0  0
   85.5310   55.3020   46.6380 C   0  0  0  0  0  0  0  0  0  0  0  0
   85.1740   56.6560   46.7950 C   0  0  0  0  0  3  0  0  0  0  0  0
   84.7030   57.3990   45.7170 C   0  0  0  0  0  3  0  0  0  0  0  0
   84.5790   56.8120   44.4620 C   0  0  0  0  0  3  0  0  0  0  0  0
   86.1830   52.5400   46.2030 O   0  0  0  0  0  0  0  0  0  0  0  0
   86.9110   51.9640   46.0870 H   0  0  0  0  0  0  0  0  0  0  0  0
   86.0080   54.5550   47.7300 O   0  0  0  0  0  0  0  0  0  0  0  0
   85.2150   54.1130   48.8270 C   0  0  0  0  0  1  0  0  0  0  0  0
   88.6500   52.5780   41.9160 C   0  0  0  0  0  1  0  0  0  0  0  0
   88.2840   52.0020   43.1640 O   0  0  0  0  0  0  0  0  0  0  0  0
   83.6960   50.6120   44.1390 O   0  0  0  0  0  0  0  0  0  0  0  0
   83.4840   50.7370   45.0440 H   0  0  0  0  0  0  0  0  0  0  0  0
  1 13  1  0  0  0  0
  2  3  1  0  0  0  0
  2  1  2  0  0  0  0
  3 11  2  0  0  0  0
  4  3  1  0  0  0  0
  5 10  1  1  0  0  0
  5  4  1  0  0  0  0
  6  5  1  0  0  0  0
  6  7  1  0  0  0  0
  7  2  1  0  0  0  0
  7  8  1  1  0  0  0
  9  6  1  0  0  0  0
 11 12  1  0  0  0  0
 12 32  1  0  0  0  0
 13 12  2  0  0  0  0
 13 15  1  0  0  0  0
 14  6  1  0  0  0  0
 15 21  1  0  0  0  0
 16 18  1  0  0  0  0
 16 15  2  0  0  0  0
 17 16  1  0  0  0  0
 18 19  2  0  0  0  0
 19 25  1  0  0  0  0
 19 20  1  0  0  0  0
 20 22  1  0  0  0  0
 21 20  2  0  0  0  0
 21 26  1  0  0  0  0
 22 23  2  0  0  0  0
 22 28  1  0  0  0  0
 24 23  1  0  0  0  0
 25 24  2  0  0  0  0
 27 26  1  0  0  0  0
 28 29  1  0  0  0  0
 30 31  1  0  0  0  0
 31  1  1  0  0  0  0
 32 33  1  0  0  0  0
M  END
>  <MODEL>
5

>  <REMARK>
 VINA RESULT:    -8.212      2.170      4.255
 INTER + INTRA:         -10.877
 INTER:                 -10.070
 INTRA:                  -0.807
 UNBOUND:                -0.745
  Name = 
  11 active torsions:
  status: ('A' for Active; 'I' for Inactive)
    1  A    between atoms: C_1  and  O_2
    2  A    between atoms: O_2  and  C_3
    3  A    between atoms: C_7  and  C_12
    4  A    between atoms: N_8  and  C_11
    5  A    between atoms: C_9  and  C_10
    6  A    between atoms: C_14  and  O_30
    7  A    between atoms: C_15  and  C_16
    8  A    between atoms: C_17  and  C_18
    9  A    between atoms: C_22  and  O_23
   10  A    between atoms: C_24  and  O_25
   11  A    between atoms: O_25  and  C_26
                            x       y       z     vdW  Elec       q    Type
                         _______ _______ _______ _____ _____    ______ ____

>  <TORSDO>
F 5

$$$$
=
 OpenBabel08112514243D

 33 36  0  0  1  0  0  0  0  0999 V2000
   85.5610   53.2500   44.4350 C   0  0  0  0  0  0  0  0  0  0  0  0
   85.3970   54.5110   45.0430 C   0  0  0  0  0  0  0  0  0  0  0  0
   85.4710   54.6300   46.4400 C   0  0  0  0  0  0  0  0  0  0  0  0
   85.1530   55.9470   47.1000 C   0  0  0  0  0  2  0  0  0  0  0  0
   85.6020   57.1900   46.2780 C   0  0  1  0  0  3  0  0  0  0  0  0
   85.8710   56.8850   44.8440 N   0  0  0  0  0  4  0  0  0  0  0  0
   85.1370   55.7550   44.2310 C   0  0  2  0  0  3  0  0  0  0  0  0
   83.6270   56.0080   44.0940 C   0  0  0  0  0  1  0  0  0  0  0  0
   86.0540   58.0470   43.9600 C   0  0  0  0  0  1  0  0  0  0  0  0
   84.6090   58.3530   46.4830 C   0  0  0  0  0  1  0  0  0  0  0  0
   85.6890   53.4910   47.2260 C   0  0  0  0  0  3  0  0  0  0  0  0
   85.8530   52.2380   46.6360 C   0  0  0  0  0  0  0  0  0  0  0  0
   85.8000   52.1090   45.2310 C   0  0  0  0  0  0  0  0  0  0  0  0
   86.8080   56.4910   44.9330 H   0  0  0  0  0  0  0  0  0  0  0  0
   85.9540   50.7800   44.5920 C   0  0  0  0  0  0  0  0  0  0  0  0
   84.8210   49.9600   44.3900 C   0  0  0  0  0  0  0  0  0  0  0  0
   83.4420   50.4110   44.8030 C   0  0  0  0  0  1  0  0  0  0  0  0
   84.9730   48.7130   43.7770 C   0  0  0  0  0  3  0  0  0  0  0  0
   86.2340   48.2510   43.3850 C   0  0  0  0  0  0  0  0  0  0  0  0
   87.3880   49.0540   43.5920 C   0  0  0  0  0  0  0  0  0  0  0  0
   87.2360   50.3310   44.1900 C   0  0  0  0  0  0  0  0  0  0  0  0
   88.6550   48.5520   43.1850 C   0  0  0  0  0  0  0  0  0  0  0  0
   88.7360   47.2790   42.5880 C   0  0  0  0  0  3  0  0  0  0  0  0
   87.5930   46.5100   42.3920 C   0  0  0  0  0  3  0  0  0  0  0  0
   86.3490   46.9890   42.7870 C   0  0  0  0  0  3  0  0  0  0  0  0
   88.3570   51.1490   44.3720 O   0  0  0  0  0  0  0  0  0  0  0  0
   89.2080   50.8350   44.1440 H   0  0  0  0  0  0  0  0  0  0  0  0
   89.8130   49.3270   43.3830 O   0  0  0  0  0  0  0  0  0  0  0  0
   91.1220   48.9630   42.9580 C   0  0  0  0  0  1  0  0  0  0  0  0
   86.5630   53.3170   42.1800 C   0  0  0  0  0  1  0  0  0  0  0  0
   85.4490   53.1340   43.0450 O   0  0  0  0  0  0  0  0  0  0  0  0
   86.0440   51.1340   47.4700 O   0  0  0  0  0  0  0  0  0  0  0  0
   86.0880   51.2500   48.3990 H   0  0  0  0  0  0  0  0  0  0  0  0
  1  2  2  0  0  0  0
  1 13  1  0  0  0  0
  2  3  1  0  0  0  0
  3  4  1  0  0  0  0
  3 11  2  0  0  0  0
  5 10  1  6  0  0  0
  5  4  1  0  0  0  0
  6 14  1  0  0  0  0
  6  5  1  0  0  0  0
  7  8  1  1  0  0  0
  7  6  1  0  0  0  0
  7  2  1  0  0  0  0
  9  6  1  0  0  0  0
 12 11  1  0  0  0  0
 12 32  1  0  0  0  0
 13 12  2  0  0  0  0
 15 13  1  0  0  0  0
 16 15  1  0  0  0  0
 16 17  1  0  0  0  0
 18 16  2  0  0  0  0
 19 20  1  0  0  0  0
 19 18  1  0  0  0  0
 20 21  1  0  0  0  0
 21 26  1  0  0  0  0
 21 15  2  0  0  0  0
 22 28  1  0  0  0  0
 22 20  2  0  0  0  0
 23 22  1  0  0  0  0
 24 23  2  0  0  0  0
 24 25  1  0  0  0  0
 25 19  2  0  0  0  0
 27 26  1  0  0  0  0
 29 28  1  0  0  0  0
 30 31  1  0  0  0  0
 31  1  1  0  0  0  0
 32 33  1  0  0  0  0
M  END
>  <MODEL>
6

>  <REMARK>
 VINA RESULT:    -8.153      2.772      8.029
 INTER + INTRA:         -10.805
 INTER:                  -9.901
 INTRA:                  -0.904
 UNBOUND:                -0.745
  Name = 
  11 active torsions:
  status: ('A' for Active; 'I' for Inactive)
    1  A    between atoms: C_1  and  O_2
    2  A    between atoms: O_2  and  C_3
    3  A    between atoms: C_7  and  C_12
    4  A    between atoms: N_8  and  C_11
    5  A    between atoms: C_9  and  C_10
    6  A    between atoms: C_14  and  O_30
    7  A    between atoms: C_15  and  C_16
    8  A    between atoms: C_17  and  C_18
    9  A    between atoms: C_22  and  O_23
   10  A    between atoms: C_24  and  O_25
   11  A    between atoms: O_25  and  C_26
                            x       y       z     vdW  Elec       q    Type
                         _______ _______ _______ _____ _____    ______ ____

>  <TORSDO>
F 5

$$$$
=
 OpenBabel08112514243D

 33 36  0  0  1  0  0  0  0  0999 V2000
   86.8110   50.9210   44.3060 C   0  0  0  0  0  0  0  0  0  0  0  0
   86.4730   52.2860   44.3980 C   0  0  0  0  0  0  0  0  0  0  0  0
   86.5060   53.0940   43.2500 C   0  0  0  0  0  0  0  0  0  0  0  0
   86.2860   54.5800   43.3700 C   0  0  0  0  0  2  0  0  0  0  0  0
   85.2540   54.9800   44.4650 C   0  0  1  0  0  3  0  0  0  0  0  0
   84.9920   53.8960   45.4530 N   0  0  0  0  0  4  0  0  0  0  0  0
   86.0750   52.9190   45.7080 C   0  0  2  0  0  3  0  0  0  0  0  0
   87.2980   53.5290   46.4100 C   0  0  0  0  0  1  0  0  0  0  0  0
   84.2260   54.2840   46.6490 C   0  0  0  0  0  1  0  0  0  0  0  0
   85.6560   56.3200   45.1130 C   0  0  0  0  0  1  0  0  0  0  0  0
   86.8930   52.5440   42.0210 C   0  0  0  0  0  3  0  0  0  0  0  0
   87.2290   51.1930   41.9180 C   0  0  0  0  0  0  0  0  0  0  0  0
   87.1810   50.3670   43.0610 C   0  0  0  0  0  0  0  0  0  0  0  0
   84.3370   53.3330   44.9110 H   0  0  0  0  0  0  0  0  0  0  0  0
   87.5540   48.9350   42.9700 C   0  0  0  0  0  0  0  0  0  0  0  0
   88.9020   48.5710   42.7520 C   0  0  0  0  0  0  0  0  0  0  0  0
   89.9850   49.6130   42.6190 C   0  0  0  0  0  1  0  0  0  0  0  0
   89.2480   47.2190   42.6770 C   0  0  0  0  0  3  0  0  0  0  0  0
   88.2760   46.2200   42.7870 C   0  0  0  0  0  0  0  0  0  0  0  0
   86.9130   46.5640   42.9930 C   0  0  0  0  0  0  0  0  0  0  0  0
   86.5600   47.9340   43.0950 C   0  0  0  0  0  0  0  0  0  0  0  0
   85.9490   45.5230   43.0970 C   0  0  0  0  0  0  0  0  0  0  0  0
   86.3660   44.1820   42.9960 C   0  0  0  0  0  3  0  0  0  0  0  0
   87.7070   43.8650   42.7980 C   0  0  0  0  0  3  0  0  0  0  0  0
   88.6570   44.8740   42.6930 C   0  0  0  0  0  3  0  0  0  0  0  0
   85.2280   48.2920   43.3290 O   0  0  0  0  0  0  0  0  0  0  0  0
   84.5390   47.6890   43.1320 H   0  0  0  0  0  0  0  0  0  0  0  0
   84.5930   45.8400   43.2960 O   0  0  0  0  0  0  0  0  0  0  0  0
   83.6760   45.0620   44.0590 C   0  0  0  0  0  1  0  0  0  0  0  0
   87.9710   49.9760   46.2710 C   0  0  0  0  0  1  0  0  0  0  0  0
   86.8110   50.1310   45.4610 O   0  0  0  0  0  0  0  0  0  0  0  0
   87.6300   50.7050   40.6730 O   0  0  0  0  0  0  0  0  0  0  0  0
   88.1850   51.2230   40.1220 H   0  0  0  0  0  0  0  0  0  0  0  0
  1  2  1  0  0  0  0
  1 31  1  0  0  0  0
  2  7  1  0  0  0  0
  3  4  1  0  0  0  0
  3  2  2  0  0  0  0
  4  5  1  0  0  0  0
  5 10  1  1  0  0  0
  5  6  1  0  0  0  0
  6  7  1  0  0  0  0
  6  9  1  0  0  0  0
  7  8  1  6  0  0  0
 11  3  1  0  0  0  0
 12 11  2  0  0  0  0
 12 13  1  0  0  0  0
 13  1  2  0  0  0  0
 14  6  1  0  0  0  0
 15 13  1  0  0  0  0
 15 21  1  0  0  0  0
 16 15  2  0  0  0  0
 17 16  1  0  0  0  0
 18 16  1  0  0  0  0
 18 19  2  0  0  0  0
 19 20  1  0  0  0  0
 20 21  2  0  0  0  0
 20 22  1  0  0  0  0
 21 26  1  0  0  0  0
 22 28  1  0  0  0  0
 23 22  2  0  0  0  0
 24 23  1  0  0  0  0
 25 19  1  0  0  0  0
 25 24  2  0  0  0  0
 27 26  1  0  0  0  0
 28 29  1  0  0  0  0
 31 30  1  0  0  0  0
 32 12  1  0  0  0  0
 33 32  1  0  0  0  0
M  END
>  <MODEL>
7

>  <REMARK>
 VINA RESULT:    -8.117      2.325      7.590
 INTER + INTRA:         -10.761
 INTER:                 -10.352
 INTRA:                  -0.409
 UNBOUND:                -0.745
  Name = 
  11 active torsions:
  status: ('A' for Active; 'I' for Inactive)
    1  A    between atoms: C_1  and  O_2
    2  A    between atoms: O_2  and  C_3
    3  A    between atoms: C_7  and  C_12
    4  A    between atoms: N_8  and  C_11
    5  A    between atoms: C_9  and  C_10
    6  A    between atoms: C_14  and  O_30
    7  A    between atoms: C_15  and  C_16
    8  A    between atoms: C_17  and  C_18
    9  A    between atoms: C_22  and  O_23
   10  A    between atoms: C_24  and  O_25
   11  A    between atoms: O_25  and  C_26
                            x       y       z     vdW  Elec       q    Type
                         _______ _______ _______ _____ _____    ______ ____

>  <TORSDO>
F 5

$$$$
=
 OpenBabel08112514243D

 33 36  0  0  1  0  0  0  0  0999 V2000
   87.5170   50.7570   43.5870 C   0  0  0  0  0  0  0  0  0  0  0  0
   87.8100   49.4140   43.2720 C   0  0  0  0  0  0  0  0  0  0  0  0
   86.8170   48.4310   43.4050 C   0  0  0  0  0  0  0  0  0  0  0  0
   87.1660   46.9780   43.2080 C   0  0  0  0  0  2  0  0  0  0  0  0
   88.2390   46.7290   42.1080 C   0  0  1  0  0  3  0  0  0  0  0  0
   89.0140   47.9510   41.7520 N   0  0  0  0  0  4  0  0  0  0  0  0
   89.1770   48.9910   42.7930 C   0  0  2  0  0  3  0  0  0  0  0  0
   90.0520   48.5450   43.9740 C   0  0  0  0  0  1  0  0  0  0  0  0
   90.2020   47.7390   40.9090 C   0  0  0  0  0  1  0  0  0  0  0  0
   89.1260   45.5270   42.4900 C   0  0  0  0  0  1  0  0  0  0  0  0
   85.5430   48.7850   43.8680 C   0  0  0  0  0  3  0  0  0  0  0  0
   85.2410   50.1100   44.1830 C   0  0  0  0  0  0  0  0  0  0  0  0
   86.2260   51.1100   44.0350 C   0  0  0  0  0  0  0  0  0  0  0  0
   88.3430   48.3960   41.1260 H   0  0  0  0  0  0  0  0  0  0  0  0
   85.9240   52.5190   44.3830 C   0  0  0  0  0  0  0  0  0  0  0  0
   85.9790   52.9390   45.7320 C   0  0  0  0  0  0  0  0  0  0  0  0
   86.3500   51.9810   46.8370 C   0  0  0  0  0  1  0  0  0  0  0  0
   85.7030   54.2710   46.0510 C   0  0  0  0  0  3  0  0  0  0  0  0
   85.3480   55.1910   45.0600 C   0  0  0  0  0  0  0  0  0  0  0  0
   85.2740   54.7880   43.7000 C   0  0  0  0  0  0  0  0  0  0  0  0
   85.5770   53.4420   43.3670 C   0  0  0  0  0  0  0  0  0  0  0  0
   84.9050   55.7480   42.7170 C   0  0  0  0  0  0  0  0  0  0  0  0
   84.6260   57.0700   43.1130 C   0  0  0  0  0  3  0  0  0  0  0  0
   84.7070   57.4460   44.4510 C   0  0  0  0  0  3  0  0  0  0  0  0
   85.0640   56.5160   45.4200 C   0  0  0  0  0  3  0  0  0  0  0  0
   85.5410   53.0340   42.0290 O   0  0  0  0  0  0  0  0  0  0  0  0
   85.1040   52.2400   41.7930 H   0  0  0  0  0  0  0  0  0  0  0  0
   84.8210   55.3710   41.3650 O   0  0  0  0  0  0  0  0  0  0  0  0
   83.6170   55.3120   40.6060 C   0  0  0  0  0  1  0  0  0  0  0  0
   88.8830   52.3130   42.2430 C   0  0  0  0  0  1  0  0  0  0  0  0
   88.5230   51.7240   43.4860 O   0  0  0  0  0  0  0  0  0  0  0  0
   83.9630   50.4010   44.6640 O   0  0  0  0  0  0  0  0  0  0  0  0
   83.4130   51.0030   44.2020 H   0  0  0  0  0  0  0  0  0  0  0  0
  1 13  1  0  0  0  0
  2  3  1  0  0  0  0
  2  1  2  0  0  0  0
  3 11  2  0  0  0  0
  4  3  1  0  0  0  0
  5 10  1  1  0  0  0
  5  4  1  0  0  0  0
  6  5  1  0  0  0  0
  6  7  1  0  0  0  0
  7  2  1  0  0  0  0
  7  8  1  1  0  0  0
  9  6  1  0  0  0  0
 11 12  1  0  0  0  0
 12 32  1  0  0  0  0
 13 12  2  0  0  0  0
 13 15  1  0  0  0  0
 14  6  1  0  0  0  0
 15 16  1  0  0  0  0
 16 18  2  0  0  0  0
 16 17  1  0  0  0  0
 19 25  1  0  0  0  0
 19 18  1  0  0  0  0
 20 19  2  0  0  0  0
 21 20  1  0  0  0  0
 21 15  2  0  0  0  0
 22 23  2  0  0  0  0
 22 20  1  0  0  0  0
 23 24  1  0  0  0  0
 24 25  2  0  0  0  0
 26 21  1  0  0  0  0
 27 26  1  0  0  0  0
 28 22  1  0  0  0  0
 29 28  1  0  0  0  0
 30 31  1  0  0  0  0
 31  1  1  0  0  0  0
 33 32  1  0  0  0  0
M  END
>  <MODEL>
8

>  <REMARK>
 VINA RESULT:    -8.108      1.817      3.324
 INTER + INTRA:         -10.749
 INTER:                 -10.058
 INTRA:                  -0.691
 UNBOUND:                -0.745
  Name = 
  11 active torsions:
  status: ('A' for Active; 'I' for Inactive)
    1  A    between atoms: C_1  and  O_2
    2  A    between atoms: O_2  and  C_3
    3  A    between atoms: C_7  and  C_12
    4  A    between atoms: N_8  and  C_11
    5  A    between atoms: C_9  and  C_10
    6  A    between atoms: C_14  and  O_30
    7  A    between atoms: C_15  and  C_16
    8  A    between atoms: C_17  and  C_18
    9  A    between atoms: C_22  and  O_23
   10  A    between atoms: C_24  and  O_25
   11  A    between atoms: O_25  and  C_26
                            x       y       z     vdW  Elec       q    Type
                         _______ _______ _______ _____ _____    ______ ____

>  <TORSDO>
F 5

$$$$
=
 OpenBabel08112514243D

 33 36  0  0  1  0  0  0  0  0999 V2000
   85.0850   50.9320   43.7200 C   0  0  0  0  0  0  0  0  0  0  0  0
   84.8640   49.5390   43.7120 C   0  0  0  0  0  0  0  0  0  0  0  0
   83.5710   49.0370   43.4900 C   0  0  0  0  0  0  0  0  0  0  0  0
   83.3070   47.5590   43.6240 C   0  0  0  0  0  2  0  0  0  0  0  0
   84.4860   46.6610   43.1510 C   0  0  1  0  0  3  0  0  0  0  0  0
   85.7820   47.3900   43.0520 N   0  0  0  0  0  4  0  0  0  0  0  0
   85.9850   48.5570   43.9410 C   0  0  2  0  0  3  0  0  0  0  0  0
   86.0860   48.1850   45.4280 C   0  0  0  0  0  1  0  0  0  0  0  0
   86.9790   46.5550   42.8560 C   0  0  0  0  0  1  0  0  0  0  0  0
   84.5630   45.3830   44.0130 C   0  0  0  0  0  1  0  0  0  0  0  0
   82.5040   49.9220   43.2960 C   0  0  0  0  0  3  0  0  0  0  0  0
   82.7100   51.3020   43.3020 C   0  0  0  0  0  0  0  0  0  0  0  0
   84.0070   51.8180   43.5040 C   0  0  0  0  0  0  0  0  0  0  0  0
   85.6470   47.8450   42.1500 H   0  0  0  0  0  0  0  0  0  0  0  0
   84.2380   53.2820   43.5310 C   0  0  0  0  0  0  0  0  0  0  0  0
   84.3360   54.0020   42.3190 C   0  0  0  0  0  0  0  0  0  0  0  0
   84.2010   53.3130   40.9840 C   0  0  0  0  0  1  0  0  0  0  0  0
   84.5430   55.3840   42.3520 C   0  0  0  0  0  3  0  0  0  0  0  0
   84.6820   56.0630   43.5670 C   0  0  0  0  0  0  0  0  0  0  0  0
   84.6000   55.3560   44.7970 C   0  0  0  0  0  0  0  0  0  0  0  0
   84.3650   53.9580   44.7700 C   0  0  0  0  0  0  0  0  0  0  0  0
   84.7500   56.0760   46.0140 C   0  0  0  0  0  0  0  0  0  0  0  0
   84.9720   57.4670   45.9730 C   0  0  0  0  0  3  0  0  0  0  0  0
   85.0460   58.1410   44.7580 C   0  0  0  0  0  3  0  0  0  0  0  0
   84.9030   57.4470   43.5610 C   0  0  0  0  0  3  0  0  0  0  0  0
   84.2490   53.2500   45.9710 O   0  0  0  0  0  0  0  0  0  0  0  0
   83.4210   53.1970   46.4060 H   0  0  0  0  0  0  0  0  0  0  0  0
   84.6770   55.3980   47.2450 O   0  0  0  0  0  0  0  0  0  0  0  0
   83.7290   55.6700   48.2720 C   0  0  0  0  0  1  0  0  0  0  0  0
   87.2970   51.6970   42.9350 C   0  0  0  0  0  1  0  0  0  0  0  0
   86.3690   51.4250   43.9780 O   0  0  0  0  0  0  0  0  0  0  0  0
   81.6040   52.1360   43.1270 O   0  0  0  0  0  0  0  0  0  0  0  0
   81.6270   53.0190   43.4420 H   0  0  0  0  0  0  0  0  0  0  0  0
  1 31  1  0  0  0  0
  2  1  1  0  0  0  0
  2  7  1  0  0  0  0
  3  4  1  0  0  0  0
  3  2  2  0  0  0  0
  5  4  1  0  0  0  0
  5 10  1  1  0  0  0
  6  5  1  0  0  0  0
  6  7  1  0  0  0  0
  7  8  1  1  0  0  0
  9  6  1  0  0  0  0
 11 12  2  0  0  0  0
 11  3  1  0  0  0  0
 12 13  1  0  0  0  0
 13 15  1  0  0  0  0
 13  1  2  0  0  0  0
 14  6  1  0  0  0  0
 15 21  1  0  0  0  0
 16 18  1  0  0  0  0
 16 15  2  0  0  0  0
 17 16  1  0  0  0  0
 18 19  2  0  0  0  0
 19 20  1  0  0  0  0
 20 22  1  0  0  0  0
 21 20  2  0  0  0  0
 21 26  1  0  0  0  0
 22 28  1  0  0  0  0
 23 22  2  0  0  0  0
 24 23  1  0  0  0  0
 25 19  1  0  0  0  0
 25 24  2  0  0  0  0
 26 27  1  0  0  0  0
 28 29  1  0  0  0  0
 30 31  1  0  0  0  0
 32 12  1  0  0  0  0
 32 33  1  0  0  0  0
M  END
>  <MODEL>
9

>  <REMARK>
 VINA RESULT:    -7.967      2.290      4.453
 INTER + INTRA:         -10.574
 INTER:                  -9.829
 INTRA:                  -0.745
 UNBOUND:                -0.745
  Name = 
  11 active torsions:
  status: ('A' for Active; 'I' for Inactive)
    1  A    between atoms: C_1  and  O_2
    2  A    between atoms: O_2  and  C_3
    3  A    between atoms: C_7  and  C_12
    4  A    between atoms: N_8  and  C_11
    5  A    between atoms: C_9  and  C_10
    6  A    between atoms: C_14  and  O_30
    7  A    between atoms: C_15  and  C_16
    8  A    between atoms: C_17  and  C_18
    9  A    between atoms: C_22  and  O_23
   10  A    between atoms: C_24  and  O_25
   11  A    between atoms: O_25  and  C_26
                            x       y       z     vdW  Elec       q    Type
                         _______ _______ _______ _____ _____    ______ ____

>  <TORSDO>
F 5

$$$$
