MODEL 1
REMARK VINA RESULT:    -9.035      0.000      0.000
REMARK INTER + INTRA:         -12.818
REMARK INTER:                 -11.391
REMARK INTRA:                  -1.427
REMARK UNBOUND:                -1.142
REMARK  Name = 
REMARK  12 active torsions:
REMARK  status: ('A' for Active; 'I' for Inactive)
REMARK    1  A    between atoms: C_1  and  O_2
REMARK    2  A    between atoms: O_2  and  C_3
REMARK    3  A    between atoms: C_5  and  O_6
REMARK    4  A    between atoms: O_6  and  C_7
REMARK    5  A    between atoms: C_10  and  C_11
REMARK    6  A    between atoms: C_14  and  O_24
REMARK    7  A    between atoms: C_18  and  C_19
REMARK    8  A    between atoms: C_21  and  O_22
REMARK    9  A    between atoms: O_22  and  C_23
REMARK   10  A    between atoms: O_24  and  C_25
REMARK   11  A    between atoms: C_27  and  C_31
REMARK   12  A    between atoms: C_29  and  C_30
REMARK                            x       y       z     vdW  Elec       q    Type
REMARK                         _______ _______ _______ _____ _____    ______ ____
ROOT
ATOM      1  C   UNL     1      85.715  49.341  43.829  0.00  0.00    +0.132 A 
ATOM      2  C   UNL     1      85.966  48.138  43.153  0.00  0.00    +0.023 A 
ATOM      3  C   UNL     1      87.158  47.948  42.433  0.00  0.00    +0.129 A 
ATOM      4  C   UNL     1      88.145  48.960  42.428  0.00  0.00    +0.015 A 
ATOM      5  C   UNL     1      87.846  50.215  43.012  0.00  0.00    -0.027 A 
ATOM      6  C   UNL     1      86.651  50.382  43.750  0.00  0.00    +0.028 A 
ATOM      7  C   UNL     1      88.796  51.374  42.838  0.00  0.00    -0.011 C 
ATOM      8  C   UNL     1      89.683  51.194  41.603  0.00  0.00    +0.009 C 
ATOM      9  N   UNL     1      90.375  49.901  41.667  0.00  0.00    -0.307 N 
ATOM     10  C   UNL     1      89.477  48.722  41.702  0.00  0.00    +0.034 C 
ATOM     11  C   UNL     1      90.243  47.538  42.324  0.00  0.00    -0.045 C 
ATOM     12  C   UNL     1      88.913  51.364  40.285  0.00  0.00    -0.049 C 
ATOM     13  H   UNL     1      90.949  49.889  42.510  0.00  0.00    +0.000 HD
ATOM     14  H   UNL     1      90.922  49.822  40.810  0.00  0.00    +0.000 HD
ENDROOT
BRANCH   6  15
ATOM     15  C   UNL     1      86.347  51.665  44.428  0.00  0.00    -0.006 A 
ATOM     16  C   UNL     1      86.680  51.786  45.778  0.00  0.00    -0.050 A 
ATOM     17  C   UNL     1      86.416  52.961  46.471  0.00  0.00    -0.019 A 
ATOM     18  C   UNL     1      85.807  54.056  45.831  0.00  0.00    +0.131 A 
ATOM     19  C   UNL     1      85.460  53.960  44.456  0.00  0.00    +0.066 A 
ATOM     20  C   UNL     1      85.738  52.750  43.753  0.00  0.00    -0.003 A 
ATOM     21  C   UNL     1      85.409  52.651  42.386  0.00  0.00    -0.050 A 
ATOM     22  C   UNL     1      84.827  53.722  41.708  0.00  0.00    -0.046 A 
ATOM     23  C   UNL     1      84.457  53.583  40.259  0.00  0.00    -0.040 C 
ATOM     24  C   UNL     1      84.530  54.898  42.398  0.00  0.00    -0.016 A 
ATOM     25  C   UNL     1      84.843  55.037  43.764  0.00  0.00    +0.132 A 
BRANCH  25  26
ATOM     26  O   UNL     1      84.548  56.232  44.446  0.00  0.00    -0.494 OA
ATOM     27  C   UNL     1      84.950  57.534  44.032  0.00  0.00    +0.079 C 
ENDBRANCH  25  26
BRANCH  18  28
ATOM     28  O   UNL     1      85.544  55.241  46.541  0.00  0.00    -0.494 OA
ATOM     29  C   UNL     1      84.814  55.319  47.761  0.00  0.00    +0.079 C 
ENDBRANCH  18  28
ENDBRANCH   6  15
BRANCH   1  31
ATOM     30  C   UNL     1      83.243  49.721  44.007  0.00  0.00    +0.079 C 
ATOM     31  O   UNL     1      84.538  49.544  44.571  0.00  0.00    -0.494 OA
ENDBRANCH   1  31
BRANCH   3  32
ATOM     32  O   UNL     1      87.378  46.773  41.693  0.00  0.00    -0.495 OA
ATOM     33  C   UNL     1      87.253  45.450  42.204  0.00  0.00    +0.079 C 
ENDBRANCH   3  32
TORSDOF 5
ENDMDL
MODEL 2
REMARK VINA RESULT:    -8.889      1.927      7.234
REMARK INTER + INTRA:         -12.629
REMARK INTER:                 -11.287
REMARK INTRA:                  -1.341
REMARK UNBOUND:                -1.142
REMARK  Name = 
REMARK  12 active torsions:
REMARK  status: ('A' for Active; 'I' for Inactive)
REMARK    1  A    between atoms: C_1  and  O_2
REMARK    2  A    between atoms: O_2  and  C_3
REMARK    3  A    between atoms: C_5  and  O_6
REMARK    4  A    between atoms: O_6  and  C_7
REMARK    5  A    between atoms: C_10  and  C_11
REMARK    6  A    between atoms: C_14  and  O_24
REMARK    7  A    between atoms: C_18  and  C_19
REMARK    8  A    between atoms: C_21  and  O_22
REMARK    9  A    between atoms: O_22  and  C_23
REMARK   10  A    between atoms: O_24  and  C_25
REMARK   11  A    between atoms: C_27  and  C_31
REMARK   12  A    between atoms: C_29  and  C_30
REMARK                            x       y       z     vdW  Elec       q    Type
REMARK                         _______ _______ _______ _____ _____    ______ ____
ROOT
ATOM      1  C   UNL     1      86.546  51.169  45.542  0.00  0.00    +0.132 A 
ATOM      2  C   UNL     1      86.725  52.499  45.950  0.00  0.00    +0.023 A 
ATOM      3  C   UNL     1      86.477  53.565  45.068  0.00  0.00    +0.129 A 
ATOM      4  C   UNL     1      85.991  53.303  43.766  0.00  0.00    +0.015 A 
ATOM      5  C   UNL     1      85.920  51.962  43.317  0.00  0.00    -0.027 A 
ATOM      6  C   UNL     1      86.154  50.901  44.223  0.00  0.00    +0.028 A 
ATOM      7  C   UNL     1      85.606  51.667  41.871  0.00  0.00    -0.011 C 
ATOM      8  C   UNL     1      85.943  52.856  40.967  0.00  0.00    +0.009 C 
ATOM      9  N   UNL     1      85.268  54.064  41.457  0.00  0.00    -0.307 N 
ATOM     10  C   UNL     1      85.651  54.472  42.830  0.00  0.00    +0.034 C 
ATOM     11  C   UNL     1      84.522  55.342  43.417  0.00  0.00    -0.045 C 
ATOM     12  C   UNL     1      87.456  53.073  40.805  0.00  0.00    -0.049 C 
ATOM     13  H   UNL     1      84.263  53.894  41.444  0.00  0.00    +0.000 HD
ATOM     14  H   UNL     1      85.553  54.825  40.840  0.00  0.00    +0.000 HD
ENDROOT
BRANCH   6  15
ATOM     15  C   UNL     1      86.018  49.488  43.793  0.00  0.00    -0.006 A 
ATOM     16  C   UNL     1      84.775  48.874  43.948  0.00  0.00    -0.050 A 
ATOM     17  C   UNL     1      84.586  47.551  43.570  0.00  0.00    -0.019 A 
ATOM     18  C   UNL     1      85.641  46.797  43.023  0.00  0.00    +0.131 A 
ATOM     19  C   UNL     1      86.917  47.400  42.853  0.00  0.00    +0.066 A 
ATOM     20  C   UNL     1      87.100  48.761  43.242  0.00  0.00    -0.003 A 
ATOM     21  C   UNL     1      88.358  49.370  43.063  0.00  0.00    -0.050 A 
ATOM     22  C   UNL     1      89.424  48.667  42.501  0.00  0.00    -0.046 A 
ATOM     23  C   UNL     1      90.763  49.327  42.350  0.00  0.00    -0.040 C 
ATOM     24  C   UNL     1      89.256  47.328  42.144  0.00  0.00    -0.016 A 
ATOM     25  C   UNL     1      88.015  46.683  42.305  0.00  0.00    +0.132 A 
BRANCH  25  26
ATOM     26  O   UNL     1      87.856  45.336  41.930  0.00  0.00    -0.494 OA
ATOM     27  C   UNL     1      88.431  44.223  42.607  0.00  0.00    +0.079 C 
ENDBRANCH  25  26
BRANCH  18  28
ATOM     28  O   UNL     1      85.440  45.458  42.643  0.00  0.00    -0.494 OA
ATOM     29  C   UNL     1      84.475  44.581  43.216  0.00  0.00    +0.079 C 
ENDBRANCH  18  28
ENDBRANCH   6  15
BRANCH   1  31
ATOM     30  C   UNL     1      87.316  50.202  47.723  0.00  0.00    +0.079 C 
ATOM     31  O   UNL     1      86.770  50.089  46.414  0.00  0.00    -0.494 OA
ENDBRANCH   1  31
BRANCH   3  32
ATOM     32  O   UNL     1      86.727  54.895  45.450  0.00  0.00    -0.495 OA
ATOM     33  C   UNL     1      86.326  55.480  46.685  0.00  0.00    +0.079 C 
ENDBRANCH   3  32
TORSDOF 5
ENDMDL
MODEL 3
REMARK VINA RESULT:    -8.811      0.890      2.936
REMARK INTER + INTRA:         -12.528
REMARK INTER:                 -11.267
REMARK INTRA:                  -1.262
REMARK UNBOUND:                -1.142
REMARK  Name = 
REMARK  12 active torsions:
REMARK  status: ('A' for Active; 'I' for Inactive)
REMARK    1  A    between atoms: C_1  and  O_2
REMARK    2  A    between atoms: O_2  and  C_3
REMARK    3  A    between atoms: C_5  and  O_6
REMARK    4  A    between atoms: O_6  and  C_7
REMARK    5  A    between atoms: C_10  and  C_11
REMARK    6  A    between atoms: C_14  and  O_24
REMARK    7  A    between atoms: C_18  and  C_19
REMARK    8  A    between atoms: C_21  and  O_22
REMARK    9  A    between atoms: O_22  and  C_23
REMARK   10  A    between atoms: O_24  and  C_25
REMARK   11  A    between atoms: C_27  and  C_31
REMARK   12  A    between atoms: C_29  and  C_30
REMARK                            x       y       z     vdW  Elec       q    Type
REMARK                         _______ _______ _______ _____ _____    ______ ____
ROOT
ATOM      1  C   UNL     1      85.620  49.413  43.231  0.00  0.00    +0.132 A 
ATOM      2  C   UNL     1      86.099  48.174  42.778  0.00  0.00    +0.023 A 
ATOM      3  C   UNL     1      87.407  48.043  42.282  0.00  0.00    +0.129 A 
ATOM      4  C   UNL     1      88.275  49.159  42.283  0.00  0.00    +0.015 A 
ATOM      5  C   UNL     1      87.759  50.431  42.631  0.00  0.00    -0.027 A 
ATOM      6  C   UNL     1      86.447  50.542  43.147  0.00  0.00    +0.028 A 
ATOM      7  C   UNL     1      88.604  51.666  42.441  0.00  0.00    -0.011 C 
ATOM      8  C   UNL     1      89.698  51.443  41.392  0.00  0.00    +0.009 C 
ATOM      9  N   UNL     1      90.495  50.262  41.743  0.00  0.00    -0.307 N 
ATOM     10  C   UNL     1      89.727  48.996  41.808  0.00  0.00    +0.034 C 
ATOM     11  C   UNL     1      90.493  48.001  42.701  0.00  0.00    -0.045 C 
ATOM     12  C   UNL     1      89.145  51.354  39.961  0.00  0.00    -0.049 C 
ATOM     13  H   UNL     1      90.919  50.424  42.657  0.00  0.00    +0.000 HD
ATOM     14  H   UNL     1      91.182  50.145  40.999  0.00  0.00    +0.000 HD
ENDROOT
BRANCH   6  15
ATOM     15  C   UNL     1      85.908  51.853  43.583  0.00  0.00    -0.006 A 
ATOM     16  C   UNL     1      85.406  52.711  42.605  0.00  0.00    -0.050 A 
ATOM     17  C   UNL     1      84.892  53.956  42.950  0.00  0.00    -0.019 A 
ATOM     18  C   UNL     1      84.866  54.381  44.290  0.00  0.00    +0.131 A 
ATOM     19  C   UNL     1      85.369  53.524  45.306  0.00  0.00    +0.066 A 
ATOM     20  C   UNL     1      85.892  52.247  44.943  0.00  0.00    -0.003 A 
ATOM     21  C   UNL     1      86.380  51.386  45.946  0.00  0.00    -0.050 A 
ATOM     22  C   UNL     1      86.348  51.759  47.290  0.00  0.00    -0.046 A 
ATOM     23  C   UNL     1      86.903  50.837  48.338  0.00  0.00    -0.040 C 
ATOM     24  C   UNL     1      85.862  53.017  47.647  0.00  0.00    -0.016 A 
ATOM     25  C   UNL     1      85.365  53.906  46.676  0.00  0.00    +0.132 A 
BRANCH  25  26
ATOM     26  O   UNL     1      84.867  55.168  47.050  0.00  0.00    -0.494 OA
ATOM     27  C   UNL     1      83.992  55.412  48.147  0.00  0.00    +0.079 C 
ENDBRANCH  25  26
BRANCH  18  28
ATOM     28  O   UNL     1      84.344  55.643  44.629  0.00  0.00    -0.494 OA
ATOM     29  C   UNL     1      84.612  56.853  43.929  0.00  0.00    +0.079 C 
ENDBRANCH  18  28
ENDBRANCH   6  15
BRANCH   1  31
ATOM     30  C   UNL     1      83.263  48.628  43.569  0.00  0.00    +0.079 C 
ATOM     31  O   UNL     1      84.321  49.562  43.749  0.00  0.00    -0.494 OA
ENDBRANCH   1  31
BRANCH   3  32
ATOM     32  O   UNL     1      87.864  46.821  41.758  0.00  0.00    -0.495 OA
ATOM     33  C   UNL     1      87.605  45.541  42.325  0.00  0.00    +0.079 C 
ENDBRANCH   3  32
TORSDOF 5
ENDMDL
MODEL 4
REMARK VINA RESULT:    -8.576      2.263      7.424
REMARK INTER + INTRA:         -12.225
REMARK INTER:                 -10.922
REMARK INTRA:                  -1.302
REMARK UNBOUND:                -1.142
REMARK  Name = 
REMARK  12 active torsions:
REMARK  status: ('A' for Active; 'I' for Inactive)
REMARK    1  A    between atoms: C_1  and  O_2
REMARK    2  A    between atoms: O_2  and  C_3
REMARK    3  A    between atoms: C_5  and  O_6
REMARK    4  A    between atoms: O_6  and  C_7
REMARK    5  A    between atoms: C_10  and  C_11
REMARK    6  A    between atoms: C_14  and  O_24
REMARK    7  A    between atoms: C_18  and  C_19
REMARK    8  A    between atoms: C_21  and  O_22
REMARK    9  A    between atoms: O_22  and  C_23
REMARK   10  A    between atoms: O_24  and  C_25
REMARK   11  A    between atoms: C_27  and  C_31
REMARK   12  A    between atoms: C_29  and  C_30
REMARK                            x       y       z     vdW  Elec       q    Type
REMARK                         _______ _______ _______ _____ _____    ______ ____
ROOT
ATOM      1  C   UNL     1      84.451  53.684  43.045  0.00  0.00    +0.132 A 
ATOM      2  C   UNL     1      84.466  55.071  43.253  0.00  0.00    +0.023 A 
ATOM      3  C   UNL     1      84.736  55.607  44.524  0.00  0.00    +0.129 A 
ATOM      4  C   UNL     1      85.048  54.744  45.600  0.00  0.00    +0.015 A 
ATOM      5  C   UNL     1      84.921  53.346  45.418  0.00  0.00    -0.027 A 
ATOM      6  C   UNL     1      84.668  52.823  44.129  0.00  0.00    +0.028 A 
ATOM      7  C   UNL     1      85.044  52.417  46.601  0.00  0.00    -0.011 C 
ATOM      8  C   UNL     1      84.748  53.140  47.918  0.00  0.00    +0.009 C 
ATOM      9  N   UNL     1      85.601  54.327  48.040  0.00  0.00    -0.307 N 
ATOM     10  C   UNL     1      85.415  55.335  46.970  0.00  0.00    +0.034 C 
ATOM     11  C   UNL     1      86.690  56.197  46.878  0.00  0.00    -0.045 C 
ATOM     12  C   UNL     1      83.260  53.487  48.087  0.00  0.00    -0.049 C 
ATOM     13  H   UNL     1      86.574  54.022  48.025  0.00  0.00    +0.000 HD
ATOM     14  H   UNL     1      85.339  54.783  48.915  0.00  0.00    +0.000 HD
ENDROOT
BRANCH   6  15
ATOM     15  C   UNL     1      84.599  51.359  43.900  0.00  0.00    -0.006 A 
ATOM     16  C   UNL     1      83.388  50.714  44.154  0.00  0.00    -0.050 A 
ATOM     17  C   UNL     1      83.261  49.344  43.964  0.00  0.00    -0.019 A 
ATOM     18  C   UNL     1      84.348  48.572  43.514  0.00  0.00    +0.131 A 
ATOM     19  C   UNL     1      85.592  49.205  43.246  0.00  0.00    +0.066 A 
ATOM     20  C   UNL     1      85.711  50.614  43.441  0.00  0.00    -0.003 A 
ATOM     21  C   UNL     1      86.937  51.250  43.165  0.00  0.00    -0.050 A 
ATOM     22  C   UNL     1      88.033  50.527  42.693  0.00  0.00    -0.046 A 
ATOM     23  C   UNL     1      89.338  51.222  42.435  0.00  0.00    -0.040 C 
ATOM     24  C   UNL     1      87.928  49.146  42.526  0.00  0.00    -0.016 A 
ATOM     25  C   UNL     1      86.721  48.471  42.790  0.00  0.00    +0.132 A 
BRANCH  25  26
ATOM     26  O   UNL     1      86.624  47.079  42.607  0.00  0.00    -0.494 OA
ATOM     27  C   UNL     1      87.686  46.234  42.173  0.00  0.00    +0.079 C 
ENDBRANCH  25  26
BRANCH  18  28
ATOM     28  O   UNL     1      84.209  47.185  43.326  0.00  0.00    -0.494 OA
ATOM     29  C   UNL     1      83.025  46.439  43.583  0.00  0.00    +0.079 C 
ENDBRANCH  18  28
ENDBRANCH   6  15
BRANCH   1  31
ATOM     30  C   UNL     1      84.853  53.521  40.575  0.00  0.00    +0.079 C 
ATOM     31  O   UNL     1      84.202  53.127  41.777  0.00  0.00    -0.494 OA
ENDBRANCH   1  31
BRANCH   3  32
ATOM     32  O   UNL     1      84.678  56.993  44.754  0.00  0.00    -0.495 OA
ATOM     33  C   UNL     1      85.441  57.970  44.052  0.00  0.00    +0.079 C 
ENDBRANCH   3  32
TORSDOF 5
ENDMDL
MODEL 5
REMARK VINA RESULT:    -8.553      2.135      7.358
REMARK INTER + INTRA:         -12.194
REMARK INTER:                 -10.855
REMARK INTRA:                  -1.339
REMARK UNBOUND:                -1.142
REMARK  Name = 
REMARK  12 active torsions:
REMARK  status: ('A' for Active; 'I' for Inactive)
REMARK    1  A    between atoms: C_1  and  O_2
REMARK    2  A    between atoms: O_2  and  C_3
REMARK    3  A    between atoms: C_5  and  O_6
REMARK    4  A    between atoms: O_6  and  C_7
REMARK    5  A    between atoms: C_10  and  C_11
REMARK    6  A    between atoms: C_14  and  O_24
REMARK    7  A    between atoms: C_18  and  C_19
REMARK    8  A    between atoms: C_21  and  O_22
REMARK    9  A    between atoms: O_22  and  C_23
REMARK   10  A    between atoms: O_24  and  C_25
REMARK   11  A    between atoms: C_27  and  C_31
REMARK   12  A    between atoms: C_29  and  C_30
REMARK                            x       y       z     vdW  Elec       q    Type
REMARK                         _______ _______ _______ _____ _____    ______ ____
ROOT
ATOM      1  C   UNL     1      85.691  53.593  42.803  0.00  0.00    +0.132 A 
ATOM      2  C   UNL     1      85.145  54.862  43.049  0.00  0.00    +0.023 A 
ATOM      3  C   UNL     1      85.046  55.365  44.357  0.00  0.00    +0.129 A 
ATOM      4  C   UNL     1      85.550  54.609  45.441  0.00  0.00    +0.015 A 
ATOM      5  C   UNL     1      85.995  53.286  45.208  0.00  0.00    -0.027 A 
ATOM      6  C   UNL     1      86.106  52.802  43.883  0.00  0.00    +0.028 A 
ATOM      7  C   UNL     1      86.339  52.389  46.372  0.00  0.00    -0.011 C 
ATOM      8  C   UNL     1      85.644  52.845  47.658  0.00  0.00    +0.009 C 
ATOM      9  N   UNL     1      85.952  54.256  47.921  0.00  0.00    -0.307 N 
ATOM     10  C   UNL     1      85.508  55.193  46.861  0.00  0.00    +0.034 C 
ATOM     11  C   UNL     1      86.351  56.479  46.957  0.00  0.00    -0.045 C 
ATOM     12  C   UNL     1      84.130  52.585  47.644  0.00  0.00    -0.049 C 
ATOM     13  H   UNL     1      86.963  54.347  48.023  0.00  0.00    +0.000 HD
ATOM     14  H   UNL     1      85.441  54.512  48.765  0.00  0.00    +0.000 HD
ENDROOT
BRANCH   6  15
ATOM     15  C   UNL     1      86.634  51.443  43.610  0.00  0.00    -0.006 A 
ATOM     16  C   UNL     1      88.006  51.306  43.399  0.00  0.00    -0.050 A 
ATOM     17  C   UNL     1      88.560  50.059  43.133  0.00  0.00    -0.019 A 
ATOM     18  C   UNL     1      87.754  48.908  43.068  0.00  0.00    +0.131 A 
ATOM     19  C   UNL     1      86.354  49.021  43.281  0.00  0.00    +0.066 A 
ATOM     20  C   UNL     1      85.794  50.305  43.556  0.00  0.00    -0.003 A 
ATOM     21  C   UNL     1      84.408  50.423  43.783  0.00  0.00    -0.050 A 
ATOM     22  C   UNL     1      83.577  49.303  43.752  0.00  0.00    -0.046 A 
ATOM     23  C   UNL     1      82.099  49.459  43.965  0.00  0.00    -0.040 C 
ATOM     24  C   UNL     1      84.116  48.051  43.458  0.00  0.00    -0.016 A 
ATOM     25  C   UNL     1      85.495  47.889  43.226  0.00  0.00    +0.132 A 
BRANCH  25  26
ATOM     26  O   UNL     1      86.029  46.619  42.940  0.00  0.00    -0.494 OA
ATOM     27  C   UNL     1      85.889  45.467  43.766  0.00  0.00    +0.079 C 
ENDBRANCH  25  26
BRANCH  18  28
ATOM     28  O   UNL     1      88.325  47.652  42.797  0.00  0.00    -0.494 OA
ATOM     29  C   UNL     1      89.201  47.367  41.711  0.00  0.00    +0.079 C 
ENDBRANCH  18  28
ENDBRANCH   6  15
BRANCH   1  31
ATOM     30  C   UNL     1      85.106  53.561  40.365  0.00  0.00    +0.079 C 
ATOM     31  O   UNL     1      85.816  53.078  41.500  0.00  0.00    -0.494 OA
ENDBRANCH   1  31
BRANCH   3  32
ATOM     32  O   UNL     1      84.432  56.603  44.613  0.00  0.00    -0.495 OA
ATOM     33  C   UNL     1      84.855  57.852  44.077  0.00  0.00    +0.079 C 
ENDBRANCH   3  32
TORSDOF 5
ENDMDL
MODEL 6
REMARK VINA RESULT:    -8.470      2.240      7.191
REMARK INTER + INTRA:         -12.088
REMARK INTER:                 -10.762
REMARK INTRA:                  -1.326
REMARK UNBOUND:                -1.142
REMARK  Name = 
REMARK  12 active torsions:
REMARK  status: ('A' for Active; 'I' for Inactive)
REMARK    1  A    between atoms: C_1  and  O_2
REMARK    2  A    between atoms: O_2  and  C_3
REMARK    3  A    between atoms: C_5  and  O_6
REMARK    4  A    between atoms: O_6  and  C_7
REMARK    5  A    between atoms: C_10  and  C_11
REMARK    6  A    between atoms: C_14  and  O_24
REMARK    7  A    between atoms: C_18  and  C_19
REMARK    8  A    between atoms: C_21  and  O_22
REMARK    9  A    between atoms: O_22  and  C_23
REMARK   10  A    between atoms: O_24  and  C_25
REMARK   11  A    between atoms: C_27  and  C_31
REMARK   12  A    between atoms: C_29  and  C_30
REMARK                            x       y       z     vdW  Elec       q    Type
REMARK                         _______ _______ _______ _____ _____    ______ ____
ROOT
ATOM      1  C   UNL     1      85.368  51.880  45.442  0.00  0.00    +0.132 A 
ATOM      2  C   UNL     1      85.917  53.146  45.693  0.00  0.00    +0.023 A 
ATOM      3  C   UNL     1      85.803  54.183  44.751  0.00  0.00    +0.129 A 
ATOM      4  C   UNL     1      85.082  53.968  43.553  0.00  0.00    +0.015 A 
ATOM      5  C   UNL     1      84.627  52.662  43.249  0.00  0.00    -0.027 A 
ATOM      6  C   UNL     1      84.733  51.636  44.217  0.00  0.00    +0.028 A 
ATOM      7  C   UNL     1      84.042  52.364  41.891  0.00  0.00    -0.011 C 
ATOM      8  C   UNL     1      84.516  53.372  40.840  0.00  0.00    +0.009 C 
ATOM      9  N   UNL     1      84.228  54.739  41.292  0.00  0.00    -0.307 N 
ATOM     10  C   UNL     1      84.895  55.124  42.558  0.00  0.00    +0.034 C 
ATOM     11  C   UNL     1      84.106  56.283  43.198  0.00  0.00    -0.045 C 
ATOM     12  C   UNL     1      85.996  53.195  40.466  0.00  0.00    -0.049 C 
ATOM     13  H   UNL     1      83.221  54.824  41.424  0.00  0.00    +0.000 HD
ATOM     14  H   UNL     1      84.592  55.364  40.573  0.00  0.00    +0.000 HD
ENDROOT
BRANCH   6  15
ATOM     15  C   UNL     1      84.202  50.277  43.948  0.00  0.00    -0.006 A 
ATOM     16  C   UNL     1      82.838  50.058  44.139  0.00  0.00    -0.050 A 
ATOM     17  C   UNL     1      82.282  48.806  43.909  0.00  0.00    -0.019 A 
ATOM     18  C   UNL     1      83.079  47.729  43.479  0.00  0.00    +0.131 A 
ATOM     19  C   UNL     1      84.472  47.926  43.275  0.00  0.00    +0.066 A 
ATOM     20  C   UNL     1      85.033  49.217  43.511  0.00  0.00    -0.003 A 
ATOM     21  C   UNL     1      86.410  49.424  43.297  0.00  0.00    -0.050 A 
ATOM     22  C   UNL     1      87.231  48.390  42.847  0.00  0.00    -0.046 A 
ATOM     23  C   UNL     1      88.701  48.627  42.657  0.00  0.00    -0.040 C 
ATOM     24  C   UNL     1      86.691  47.120  42.640  0.00  0.00    -0.016 A 
ATOM     25  C   UNL     1      85.321  46.871  42.841  0.00  0.00    +0.132 A 
BRANCH  25  26
ATOM     26  O   UNL     1      84.786  45.589  42.619  0.00  0.00    -0.494 OA
ATOM     27  C   UNL     1      85.551  44.396  42.473  0.00  0.00    +0.079 C 
ENDBRANCH  25  26
BRANCH  18  28
ATOM     28  O   UNL     1      82.507  46.465  43.250  0.00  0.00    -0.494 OA
ATOM     29  C   UNL     1      81.267  46.018  43.787  0.00  0.00    +0.079 C 
ENDBRANCH  18  28
ENDBRANCH   6  15
BRANCH   1  31
ATOM     30  C   UNL     1      86.670  50.324  46.916  0.00  0.00    +0.079 C 
ATOM     31  O   UNL     1      85.454  50.835  46.380  0.00  0.00    -0.494 OA
ENDBRANCH   1  31
BRANCH   3  32
ATOM     32  O   UNL     1      86.416  55.429  44.966  0.00  0.00    -0.495 OA
ATOM     33  C   UNL     1      86.262  56.224  46.138  0.00  0.00    +0.079 C 
ENDBRANCH   3  32
TORSDOF 5
ENDMDL
MODEL 7
REMARK VINA RESULT:    -8.030      2.049      7.083
REMARK INTER + INTRA:         -11.519
REMARK INTER:                 -10.286
REMARK INTRA:                  -1.233
REMARK UNBOUND:                -1.142
REMARK  Name = 
REMARK  12 active torsions:
REMARK  status: ('A' for Active; 'I' for Inactive)
REMARK    1  A    between atoms: C_1  and  O_2
REMARK    2  A    between atoms: O_2  and  C_3
REMARK    3  A    between atoms: C_5  and  O_6
REMARK    4  A    between atoms: O_6  and  C_7
REMARK    5  A    between atoms: C_10  and  C_11
REMARK    6  A    between atoms: C_14  and  O_24
REMARK    7  A    between atoms: C_18  and  C_19
REMARK    8  A    between atoms: C_21  and  O_22
REMARK    9  A    between atoms: O_22  and  C_23
REMARK   10  A    between atoms: O_24  and  C_25
REMARK   11  A    between atoms: C_27  and  C_31
REMARK   12  A    between atoms: C_29  and  C_30
REMARK                            x       y       z     vdW  Elec       q    Type
REMARK                         _______ _______ _______ _____ _____    ______ ____
ROOT
ATOM      1  C   UNL     1      86.782  51.120  45.432  0.00  0.00    +0.132 A 
ATOM      2  C   UNL     1      86.764  52.450  45.878  0.00  0.00    +0.023 A 
ATOM      3  C   UNL     1      86.461  53.504  44.999  0.00  0.00    +0.129 A 
ATOM      4  C   UNL     1      86.119  53.222  43.655  0.00  0.00    +0.015 A 
ATOM      5  C   UNL     1      86.249  51.896  43.177  0.00  0.00    -0.027 A 
ATOM      6  C   UNL     1      86.535  50.845  44.080  0.00  0.00    +0.028 A 
ATOM      7  C   UNL     1      86.093  51.607  41.704  0.00  0.00    -0.011 C 
ATOM      8  C   UNL     1      86.356  52.854  40.855  0.00  0.00    +0.009 C 
ATOM      9  N   UNL     1      85.502  53.957  41.308  0.00  0.00    -0.307 N 
ATOM     10  C   UNL     1      85.718  54.368  42.715  0.00  0.00    +0.034 C 
ATOM     11  C   UNL     1      84.447  55.080  43.221  0.00  0.00    -0.045 C 
ATOM     12  C   UNL     1      87.839  53.255  40.826  0.00  0.00    -0.049 C 
ATOM     13  H   UNL     1      84.529  53.669  41.206  0.00  0.00    +0.000 HD
ATOM     14  H   UNL     1      85.741  54.764  40.731  0.00  0.00    +0.000 HD
ENDROOT
BRANCH   6  15
ATOM     15  C   UNL     1      86.608  49.439  43.614  0.00  0.00    -0.006 A 
ATOM     16  C   UNL     1      87.865  48.917  43.307  0.00  0.00    -0.050 A 
ATOM     17  C   UNL     1      87.998  47.607  42.860  0.00  0.00    -0.019 A 
ATOM     18  C   UNL     1      86.873  46.778  42.706  0.00  0.00    +0.131 A 
ATOM     19  C   UNL     1      85.581  47.285  43.015  0.00  0.00    +0.066 A 
ATOM     20  C   UNL     1      85.455  48.630  43.475  0.00  0.00    -0.003 A 
ATOM     21  C   UNL     1      84.180  49.136  43.796  0.00  0.00    -0.050 A 
ATOM     22  C   UNL     1      83.040  48.339  43.682  0.00  0.00    -0.046 A 
ATOM     23  C   UNL     1      81.689  48.910  44.000  0.00  0.00    -0.040 C 
ATOM     24  C   UNL     1      83.157  47.032  43.207  0.00  0.00    -0.016 A 
ATOM     25  C   UNL     1      84.412  46.488  42.876  0.00  0.00    +0.132 A 
BRANCH  25  26
ATOM     26  O   UNL     1      84.517  45.165  42.409  0.00  0.00    -0.494 OA
ATOM     27  C   UNL     1      84.371  43.998  43.212  0.00  0.00    +0.079 C 
ENDBRANCH  25  26
BRANCH  18  28
ATOM     28  O   UNL     1      87.018  45.454  42.253  0.00  0.00    -0.494 OA
ATOM     29  C   UNL     1      88.150  44.626  42.497  0.00  0.00    +0.079 C 
ENDBRANCH  18  28
ENDBRANCH   6  15
BRANCH   1  31
ATOM     30  C   UNL     1      87.504  50.190  47.646  0.00  0.00    +0.079 C 
ATOM     31  O   UNL     1      87.064  50.050  46.299  0.00  0.00    -0.494 OA
ENDBRANCH   1  31
BRANCH   3  32
ATOM     32  O   UNL     1      86.515  54.842  45.425  0.00  0.00    -0.495 OA
ATOM     33  C   UNL     1      86.112  55.308  46.708  0.00  0.00    +0.079 C 
ENDBRANCH   3  32
TORSDOF 5
ENDMDL
MODEL 8
REMARK VINA RESULT:    -7.446      2.857      4.782
REMARK INTER + INTRA:         -10.764
REMARK INTER:                  -9.748
REMARK INTRA:                  -1.016
REMARK UNBOUND:                -1.142
REMARK  Name = 
REMARK  12 active torsions:
REMARK  status: ('A' for Active; 'I' for Inactive)
REMARK    1  A    between atoms: C_1  and  O_2
REMARK    2  A    between atoms: O_2  and  C_3
REMARK    3  A    between atoms: C_5  and  O_6
REMARK    4  A    between atoms: O_6  and  C_7
REMARK    5  A    between atoms: C_10  and  C_11
REMARK    6  A    between atoms: C_14  and  O_24
REMARK    7  A    between atoms: C_18  and  C_19
REMARK    8  A    between atoms: C_21  and  O_22
REMARK    9  A    between atoms: O_22  and  C_23
REMARK   10  A    between atoms: O_24  and  C_25
REMARK   11  A    between atoms: C_27  and  C_31
REMARK   12  A    between atoms: C_29  and  C_30
REMARK                            x       y       z     vdW  Elec       q    Type
REMARK                         _______ _______ _______ _____ _____    ______ ____
ROOT
ATOM      1  C   UNL     1      86.286  49.803  44.597  0.00  0.00    +0.132 A 
ATOM      2  C   UNL     1      86.239  48.408  44.734  0.00  0.00    +0.023 A 
ATOM      3  C   UNL     1      85.123  47.676  44.294  0.00  0.00    +0.129 A 
ATOM      4  C   UNL     1      84.051  48.343  43.656  0.00  0.00    +0.015 A 
ATOM      5  C   UNL     1      84.047  49.758  43.620  0.00  0.00    -0.027 A 
ATOM      6  C   UNL     1      85.186  50.478  44.049  0.00  0.00    +0.028 A 
ATOM      7  C   UNL     1      82.824  50.496  43.134  0.00  0.00    -0.011 C 
ATOM      8  C   UNL     1      81.562  49.639  43.261  0.00  0.00    +0.009 C 
ATOM      9  N   UNL     1      81.757  48.356  42.575  0.00  0.00    -0.307 N 
ATOM     10  C   UNL     1      82.866  47.532  43.110  0.00  0.00    +0.034 C 
ATOM     11  C   UNL     1      83.325  46.551  42.013  0.00  0.00    -0.045 C 
ATOM     12  C   UNL     1      81.115  49.444  44.718  0.00  0.00    -0.049 C 
ATOM     13  H   UNL     1      81.948  48.548  41.591  0.00  0.00    +0.000 HD
ATOM     14  H   UNL     1      80.902  47.818  42.718  0.00  0.00    +0.000 HD
ENDROOT
BRANCH   6  15
ATOM     15  C   UNL     1      85.232  51.958  43.957  0.00  0.00    -0.006 A 
ATOM     16  C   UNL     1      85.467  52.528  42.705  0.00  0.00    -0.050 A 
ATOM     17  C   UNL     1      85.527  53.908  42.555  0.00  0.00    -0.019 A 
ATOM     18  C   UNL     1      85.354  54.763  43.658  0.00  0.00    +0.131 A 
ATOM     19  C   UNL     1      85.111  54.208  44.944  0.00  0.00    +0.066 A 
ATOM     20  C   UNL     1      85.048  52.789  45.087  0.00  0.00    -0.003 A 
ATOM     21  C   UNL     1      84.794  52.231  46.356  0.00  0.00    -0.050 A 
ATOM     22  C   UNL     1      84.591  53.044  47.471  0.00  0.00    -0.046 A 
ATOM     23  C   UNL     1      84.352  52.426  48.818  0.00  0.00    -0.040 C 
ATOM     24  C   UNL     1      84.677  54.430  47.340  0.00  0.00    -0.016 A 
ATOM     25  C   UNL     1      84.929  55.028  46.091  0.00  0.00    +0.132 A 
BRANCH  25  26
ATOM     26  O   UNL     1      85.002  56.428  45.969  0.00  0.00    -0.494 OA
ATOM     27  C   UNL     1      84.060  57.349  46.510  0.00  0.00    +0.079 C 
ENDBRANCH  25  26
BRANCH  18  28
ATOM     28  O   UNL     1      85.417  56.159  43.496  0.00  0.00    -0.494 OA
ATOM     29  C   UNL     1      84.462  56.945  42.791  0.00  0.00    +0.079 C 
ENDBRANCH  18  28
ENDBRANCH   6  15
BRANCH   1  31
ATOM     30  C   UNL     1      87.967  50.510  46.318  0.00  0.00    +0.079 C 
ATOM     31  O   UNL     1      87.401  50.553  45.013  0.00  0.00    -0.494 OA
ENDBRANCH   1  31
BRANCH   3  32
ATOM     32  O   UNL     1      85.040  46.288  44.499  0.00  0.00    -0.495 OA
ATOM     33  C   UNL     1      85.979  45.333  44.016  0.00  0.00    +0.079 C 
ENDBRANCH   3  32
TORSDOF 5
ENDMDL
MODEL 9
REMARK VINA RESULT:    -7.202      3.383      6.397
REMARK INTER + INTRA:         -10.448
REMARK INTER:                  -9.307
REMARK INTRA:                  -1.142
REMARK UNBOUND:                -1.142
REMARK  Name = 
REMARK  12 active torsions:
REMARK  status: ('A' for Active; 'I' for Inactive)
REMARK    1  A    between atoms: C_1  and  O_2
REMARK    2  A    between atoms: O_2  and  C_3
REMARK    3  A    between atoms: C_5  and  O_6
REMARK    4  A    between atoms: O_6  and  C_7
REMARK    5  A    between atoms: C_10  and  C_11
REMARK    6  A    between atoms: C_14  and  O_24
REMARK    7  A    between atoms: C_18  and  C_19
REMARK    8  A    between atoms: C_21  and  O_22
REMARK    9  A    between atoms: O_22  and  C_23
REMARK   10  A    between atoms: O_24  and  C_25
REMARK   11  A    between atoms: C_27  and  C_31
REMARK   12  A    between atoms: C_29  and  C_30
REMARK                            x       y       z     vdW  Elec       q    Type
REMARK                         _______ _______ _______ _____ _____    ______ ____
ROOT
ATOM      1  C   UNL     1      86.055  53.387  42.013  0.00  0.00    +0.132 A 
ATOM      2  C   UNL     1      85.603  53.922  40.798  0.00  0.00    +0.023 A 
ATOM      3  C   UNL     1      84.251  53.833  40.427  0.00  0.00    +0.129 A 
ATOM      4  C   UNL     1      83.317  53.242  41.310  0.00  0.00    +0.015 A 
ATOM      5  C   UNL     1      83.789  52.602  42.481  0.00  0.00    -0.027 A 
ATOM      6  C   UNL     1      85.150  52.719  42.849  0.00  0.00    +0.028 A 
ATOM      7  C   UNL     1      82.843  51.788  43.329  0.00  0.00    -0.011 C 
ATOM      8  C   UNL     1      81.631  51.313  42.523  0.00  0.00    +0.009 C 
ATOM      9  N   UNL     1      80.974  52.460  41.885  0.00  0.00    -0.307 N 
ATOM     10  C   UNL     1      81.828  53.212  40.935  0.00  0.00    +0.034 C 
ATOM     11  C   UNL     1      81.264  54.639  40.790  0.00  0.00    -0.045 C 
ATOM     12  C   UNL     1      81.983  50.218  41.504  0.00  0.00    -0.049 C 
ATOM     13  H   UNL     1      80.672  53.101  42.618  0.00  0.00    +0.000 HD
ATOM     14  H   UNL     1      80.198  52.083  41.340  0.00  0.00    +0.000 HD
ENDROOT
BRANCH   6  15
ATOM     15  C   UNL     1      85.654  52.115  44.106  0.00  0.00    -0.006 A 
ATOM     16  C   UNL     1      86.328  50.896  44.022  0.00  0.00    -0.050 A 
ATOM     17  C   UNL     1      86.819  50.278  45.165  0.00  0.00    -0.019 A 
ATOM     18  C   UNL     1      86.649  50.862  46.434  0.00  0.00    +0.131 A 
ATOM     19  C   UNL     1      85.968  52.105  46.546  0.00  0.00    +0.066 A 
ATOM     20  C   UNL     1      85.470  52.734  45.366  0.00  0.00    -0.003 A 
ATOM     21  C   UNL     1      84.807  53.973  45.468  0.00  0.00    -0.050 A 
ATOM     22  C   UNL     1      84.639  54.599  46.703  0.00  0.00    -0.046 A 
ATOM     23  C   UNL     1      83.901  55.903  46.790  0.00  0.00    -0.040 C 
ATOM     24  C   UNL     1      85.102  53.975  47.862  0.00  0.00    -0.016 A 
ATOM     25  C   UNL     1      85.771  52.738  47.804  0.00  0.00    +0.132 A 
BRANCH  25  26
ATOM     26  O   UNL     1      86.243  52.124  48.979  0.00  0.00    -0.494 OA
ATOM     27  C   UNL     1      85.424  51.502  49.965  0.00  0.00    +0.079 C 
ENDBRANCH  25  26
BRANCH  18  28
ATOM     28  O   UNL     1      87.150  50.228  47.585  0.00  0.00    -0.494 OA
ATOM     29  C   UNL     1      88.522  49.935  47.826  0.00  0.00    +0.079 C 
ENDBRANCH  18  28
ENDBRANCH   6  15
BRANCH   1  31
ATOM     30  C   UNL     1      88.495  52.885  41.725  0.00  0.00    +0.079 C 
ATOM     31  O   UNL     1      87.400  53.482  42.411  0.00  0.00    -0.494 OA
ENDBRANCH   1  31
BRANCH   3  32
ATOM     32  O   UNL     1      83.809  54.301  39.177  0.00  0.00    -0.495 OA
ATOM     33  C   UNL     1      84.284  55.477  38.531  0.00  0.00    +0.079 C 
ENDBRANCH   3  32
TORSDOF 5
ENDMDL
