MODEL 1
REMARK VINA RESULT:    -9.375      0.000      0.000
REMARK INTER + INTRA:         -12.624
REMARK INTER:                 -11.893
REMARK INTRA:                  -0.730
REMARK UNBOUND:                -0.783
REMARK  Name = 
REMARK  11 active torsions:
REMARK  status: ('A' for Active; 'I' for Inactive)
REMARK    1  A    between atoms: C_1  and  O_2
REMARK    2  A    between atoms: O_2  and  C_3
REMARK    3  A    between atoms: C_7  and  C_8
REMARK    4  A    between atoms: C_10  and  C_30
REMARK    5  A    between atoms: C_12  and  O_28
REMARK    6  A    between atoms: C_13  and  C_14
REMARK    7  A    between atoms: C_15  and  C_16
REMARK    8  A    between atoms: C_20  and  O_21
REMARK    9  A    between atoms: C_22  and  O_23
REMARK   10  A    between atoms: O_23  and  C_24
REMARK   11  A    between atoms: O_28  and  C_29
REMARK                            x       y       z     vdW  Elec       q    Type
REMARK                         _______ _______ _______ _____ _____    ______ ____
ROOT
ATOM      1  C   UNL     1      88.178  49.208  43.064  0.00  0.00    +0.132 A 
ATOM      2  C   UNL     1      88.400  47.896  42.626  0.00  0.00    -0.015 A 
ATOM      3  C   UNL     1      87.466  46.891  42.885  0.00  0.00    -0.030 A 
ATOM      4  C   UNL     1      87.728  45.486  42.404  0.00  0.00    -0.005 C 
ATOM      5  C   UNL     1      87.073  44.481  43.365  0.00  0.00    +0.052 C 
ATOM      6  C   UNL     1      87.155  43.057  42.818  0.00  0.00    -0.042 C 
ATOM      7  N   UNL     1      85.673  44.843  43.588  0.00  0.00    -0.284 NA
ATOM      8  C   UNL     1      85.268  46.075  43.709  0.00  0.00    +0.044 C 
ATOM      9  C   UNL     1      86.250  47.195  43.532  0.00  0.00    +0.041 A 
ATOM     10  C   UNL     1      86.008  48.519  43.977  0.00  0.00    +0.140 A 
ATOM     11  C   UNL     1      86.992  49.519  43.756  0.00  0.00    +0.070 A 
ATOM     12  C   UNL     1      83.803  46.309  43.929  0.00  0.00    -0.022 C 
ENDROOT
BRANCH  11  13
ATOM     13  C   UNL     1      86.853  50.886  44.315  0.00  0.00    +0.034 A 
ATOM     14  C   UNL     1      87.211  51.154  45.653  0.00  0.00    -0.038 A 
ATOM     15  C   UNL     1      87.747  50.070  46.554  0.00  0.00    -0.039 C 
ATOM     16  C   UNL     1      87.004  52.433  46.175  0.00  0.00    -0.050 A 
ATOM     17  C   UNL     1      86.539  53.475  45.364  0.00  0.00    -0.011 A 
ATOM     18  C   UNL     1      86.254  53.246  43.990  0.00  0.00    +0.066 A 
ATOM     19  C   UNL     1      86.345  51.915  43.493  0.00  0.00    +0.136 A 
ATOM     20  C   UNL     1      85.929  54.363  43.168  0.00  0.00    +0.131 A 
ATOM     21  C   UNL     1      85.760  55.631  43.760  0.00  0.00    -0.019 A 
ATOM     22  C   UNL     1      85.969  55.816  45.123  0.00  0.00    -0.058 A 
ATOM     23  C   UNL     1      86.377  54.752  45.919  0.00  0.00    -0.054 A 
BRANCH  19  24
ATOM     24  O   UNL     1      85.895  51.553  42.220  0.00  0.00    -0.505 OA
ATOM     25  H   UNL     1      84.976  51.512  42.042  0.00  0.00    +0.000 HD
ENDBRANCH  19  24
BRANCH  20  26
ATOM     26  O   UNL     1      85.830  54.212  41.776  0.00  0.00    -0.494 OA
ATOM     27  C   UNL     1      84.706  54.591  40.987  0.00  0.00    +0.079 C 
ENDBRANCH  20  26
ENDBRANCH  11  13
BRANCH   1  29
ATOM     28  C   UNL     1      89.469  50.756  41.573  0.00  0.00    +0.079 C 
ATOM     29  O   UNL     1      89.122  50.229  42.849  0.00  0.00    -0.494 OA
ENDBRANCH   1  29
BRANCH  10  30
ATOM     30  O   UNL     1      84.812  48.793  44.663  0.00  0.00    -0.494 OA
ATOM     31  C   UNL     1      83.722  49.542  44.135  0.00  0.00    +0.079 C 
ENDBRANCH  10  30
TORSDOF 5
ENDMDL
MODEL 2
REMARK VINA RESULT:    -9.034      2.239      7.508
REMARK INTER + INTRA:         -12.193
REMARK INTER:                 -11.446
REMARK INTRA:                  -0.747
REMARK UNBOUND:                -0.783
REMARK  Name = 
REMARK  11 active torsions:
REMARK  status: ('A' for Active; 'I' for Inactive)
REMARK    1  A    between atoms: C_1  and  O_2
REMARK    2  A    between atoms: O_2  and  C_3
REMARK    3  A    between atoms: C_7  and  C_8
REMARK    4  A    between atoms: C_10  and  C_30
REMARK    5  A    between atoms: C_12  and  O_28
REMARK    6  A    between atoms: C_13  and  C_14
REMARK    7  A    between atoms: C_15  and  C_16
REMARK    8  A    between atoms: C_20  and  O_21
REMARK    9  A    between atoms: C_22  and  O_23
REMARK   10  A    between atoms: O_23  and  C_24
REMARK   11  A    between atoms: O_28  and  C_29
REMARK                            x       y       z     vdW  Elec       q    Type
REMARK                         _______ _______ _______ _____ _____    ______ ____
ROOT
ATOM      1  C   UNL     1      87.078  50.966  45.484  0.00  0.00    +0.132 A 
ATOM      2  C   UNL     1      86.925  52.299  45.886  0.00  0.00    -0.015 A 
ATOM      3  C   UNL     1      86.549  53.282  44.967  0.00  0.00    -0.030 A 
ATOM      4  C   UNL     1      86.394  54.711  45.425  0.00  0.00    -0.005 C 
ATOM      5  C   UNL     1      86.734  55.663  44.267  0.00  0.00    +0.052 C 
ATOM      6  C   UNL     1      86.411  57.111  44.629  0.00  0.00    -0.042 C 
ATOM      7  N   UNL     1      85.990  55.277  43.068  0.00  0.00    -0.284 NA
ATOM      8  C   UNL     1      85.786  54.037  42.726  0.00  0.00    +0.044 C 
ATOM      9  C   UNL     1      86.250  52.936  43.633  0.00  0.00    +0.041 A 
ATOM     10  C   UNL     1      86.395  51.590  43.212  0.00  0.00    +0.140 A 
ATOM     11  C   UNL     1      86.832  50.612  44.144  0.00  0.00    +0.070 A 
ATOM     12  C   UNL     1      85.001  53.778  41.474  0.00  0.00    -0.022 C 
ENDROOT
BRANCH  11  13
ATOM     13  C   UNL     1      87.128  49.219  43.729  0.00  0.00    +0.034 A 
ATOM     14  C   UNL     1      88.396  48.879  43.211  0.00  0.00    -0.038 A 
ATOM     15  C   UNL     1      89.486  49.910  43.064  0.00  0.00    -0.039 C 
ATOM     16  C   UNL     1      88.627  47.576  42.762  0.00  0.00    -0.050 A 
ATOM     17  C   UNL     1      87.653  46.582  42.909  0.00  0.00    -0.011 A 
ATOM     18  C   UNL     1      86.400  46.883  43.509  0.00  0.00    +0.066 A 
ATOM     19  C   UNL     1      86.121  48.238  43.849  0.00  0.00    +0.136 A 
ATOM     20  C   UNL     1      85.498  45.813  43.776  0.00  0.00    +0.131 A 
ATOM     21  C   UNL     1      85.808  44.517  43.315  0.00  0.00    -0.019 A 
ATOM     22  C   UNL     1      87.008  44.260  42.661  0.00  0.00    -0.058 A 
ATOM     23  C   UNL     1      87.937  45.279  42.477  0.00  0.00    -0.054 A 
BRANCH  19  24
ATOM     24  O   UNL     1      84.853  48.669  44.252  0.00  0.00    -0.505 OA
ATOM     25  H   UNL     1      84.722  48.990  45.123  0.00  0.00    +0.000 HD
ENDBRANCH  19  24
BRANCH  20  26
ATOM     26  O   UNL     1      84.339  46.037  44.536  0.00  0.00    -0.494 OA
ATOM     27  C   UNL     1      83.007  45.809  44.087  0.00  0.00    +0.079 C 
ENDBRANCH  20  26
ENDBRANCH  11  13
BRANCH   1  29
ATOM     28  C   UNL     1      87.780  50.183  47.760  0.00  0.00    +0.079 C 
ATOM     29  O   UNL     1      87.492  49.967  46.383  0.00  0.00    -0.494 OA
ENDBRANCH   1  29
BRANCH  10  30
ATOM     30  O   UNL     1      86.140  51.273  41.867  0.00  0.00    -0.494 OA
ATOM     31  C   UNL     1      87.110  51.298  40.824  0.00  0.00    +0.079 C 
ENDBRANCH  10  30
TORSDOF 5
ENDMDL
MODEL 3
REMARK VINA RESULT:    -8.892      2.566      7.553
REMARK INTER + INTRA:         -12.014
REMARK INTER:                 -11.114
REMARK INTRA:                  -0.900
REMARK UNBOUND:                -0.783
REMARK  Name = 
REMARK  11 active torsions:
REMARK  status: ('A' for Active; 'I' for Inactive)
REMARK    1  A    between atoms: C_1  and  O_2
REMARK    2  A    between atoms: O_2  and  C_3
REMARK    3  A    between atoms: C_7  and  C_8
REMARK    4  A    between atoms: C_10  and  C_30
REMARK    5  A    between atoms: C_12  and  O_28
REMARK    6  A    between atoms: C_13  and  C_14
REMARK    7  A    between atoms: C_15  and  C_16
REMARK    8  A    between atoms: C_20  and  O_21
REMARK    9  A    between atoms: C_22  and  O_23
REMARK   10  A    between atoms: O_23  and  C_24
REMARK   11  A    between atoms: O_28  and  C_29
REMARK                            x       y       z     vdW  Elec       q    Type
REMARK                         _______ _______ _______ _____ _____    ______ ____
ROOT
ATOM      1  C   UNL     1      85.889  52.083  45.697  0.00  0.00    +0.132 A 
ATOM      2  C   UNL     1      85.797  53.428  46.079  0.00  0.00    -0.015 A 
ATOM      3  C   UNL     1      85.564  54.424  45.129  0.00  0.00    -0.030 A 
ATOM      4  C   UNL     1      85.472  55.865  45.564  0.00  0.00    -0.005 C 
ATOM      5  C   UNL     1      85.967  56.779  44.433  0.00  0.00    +0.052 C 
ATOM      6  C   UNL     1      85.718  58.250  44.760  0.00  0.00    -0.042 C 
ATOM      7  N   UNL     1      85.296  56.432  43.180  0.00  0.00    -0.284 NA
ATOM      8  C   UNL     1      85.034  55.205  42.830  0.00  0.00    +0.044 C 
ATOM      9  C   UNL     1      85.348  54.085  43.777  0.00  0.00    +0.041 A 
ATOM     10  C   UNL     1      85.433  52.728  43.375  0.00  0.00    +0.140 A 
ATOM     11  C   UNL     1      85.726  51.732  44.344  0.00  0.00    +0.070 A 
ATOM     12  C   UNL     1      84.335  54.987  41.520  0.00  0.00    -0.022 C 
ENDROOT
BRANCH  11  13
ATOM     13  C   UNL     1      85.958  50.317  43.962  0.00  0.00    +0.034 A 
ATOM     14  C   UNL     1      84.898  49.386  43.984  0.00  0.00    -0.038 A 
ATOM     15  C   UNL     1      83.504  49.791  44.391  0.00  0.00    -0.039 C 
ATOM     16  C   UNL     1      85.157  48.045  43.689  0.00  0.00    -0.050 A 
ATOM     17  C   UNL     1      86.429  47.633  43.275  0.00  0.00    -0.011 A 
ATOM     18  C   UNL     1      87.490  48.572  43.162  0.00  0.00    +0.066 A 
ATOM     19  C   UNL     1      87.255  49.911  43.586  0.00  0.00    +0.136 A 
ATOM     20  C   UNL     1      88.724  48.141  42.596  0.00  0.00    +0.131 A 
ATOM     21  C   UNL     1      88.907  46.775  42.298  0.00  0.00    -0.019 A 
ATOM     22  C   UNL     1      87.878  45.858  42.489  0.00  0.00    -0.058 A 
ATOM     23  C   UNL     1      86.639  46.285  42.954  0.00  0.00    -0.054 A 
BRANCH  19  24
ATOM     24  O   UNL     1      88.280  50.855  43.706  0.00  0.00    -0.505 OA
ATOM     25  H   UNL     1      88.076  51.746  43.912  0.00  0.00    +0.000 HD
ENDBRANCH  19  24
BRANCH  20  26
ATOM     26  O   UNL     1      89.727  49.074  42.290  0.00  0.00    -0.494 OA
ATOM     27  C   UNL     1      91.086  48.984  42.707  0.00  0.00    +0.079 C 
ENDBRANCH  20  26
ENDBRANCH  11  13
BRANCH   1  29
ATOM     28  C   UNL     1      87.408  50.888  47.295  0.00  0.00    +0.079 C 
ATOM     29  O   UNL     1      86.161  51.067  46.632  0.00  0.00    -0.494 OA
ENDBRANCH   1  29
BRANCH  10  30
ATOM     30  O   UNL     1      85.264  52.414  42.016  0.00  0.00    -0.494 OA
ATOM     31  C   UNL     1      86.320  52.301  41.067  0.00  0.00    +0.079 C 
ENDBRANCH  10  30
TORSDOF 5
ENDMDL
MODEL 4
REMARK VINA RESULT:    -8.807      2.188      3.707
REMARK INTER + INTRA:         -11.906
REMARK INTER:                 -11.240
REMARK INTRA:                  -0.666
REMARK UNBOUND:                -0.783
REMARK  Name = 
REMARK  11 active torsions:
REMARK  status: ('A' for Active; 'I' for Inactive)
REMARK    1  A    between atoms: C_1  and  O_2
REMARK    2  A    between atoms: O_2  and  C_3
REMARK    3  A    between atoms: C_7  and  C_8
REMARK    4  A    between atoms: C_10  and  C_30
REMARK    5  A    between atoms: C_12  and  O_28
REMARK    6  A    between atoms: C_13  and  C_14
REMARK    7  A    between atoms: C_15  and  C_16
REMARK    8  A    between atoms: C_20  and  O_21
REMARK    9  A    between atoms: C_22  and  O_23
REMARK   10  A    between atoms: O_23  and  C_24
REMARK   11  A    between atoms: O_28  and  C_29
REMARK                            x       y       z     vdW  Elec       q    Type
REMARK                         _______ _______ _______ _____ _____    ______ ____
ROOT
ATOM      1  C   UNL     1      86.881  51.418  43.411  0.00  0.00    +0.132 A 
ATOM      2  C   UNL     1      87.138  50.041  43.432  0.00  0.00    -0.015 A 
ATOM      3  C   UNL     1      86.106  49.127  43.652  0.00  0.00    -0.030 A 
ATOM      4  C   UNL     1      86.409  47.649  43.673  0.00  0.00    -0.005 C 
ATOM      5  C   UNL     1      85.429  46.935  44.617  0.00  0.00    +0.052 C 
ATOM      6  C   UNL     1      85.579  45.418  44.527  0.00  0.00    -0.042 C 
ATOM      7  N   UNL     1      84.054  47.315  44.292  0.00  0.00    -0.284 NA
ATOM      8  C   UNL     1      83.713  48.524  43.947  0.00  0.00    +0.044 C 
ATOM      9  C   UNL     1      84.774  49.572  43.785  0.00  0.00    +0.041 A 
ATOM     10  C   UNL     1      84.497  50.962  43.761  0.00  0.00    +0.140 A 
ATOM     11  C   UNL     1      85.565  51.883  43.593  0.00  0.00    +0.070 A 
ATOM     12  C   UNL     1      82.269  48.778  43.633  0.00  0.00    -0.022 C 
ENDROOT
BRANCH  11  13
ATOM     13  C   UNL     1      85.354  53.348  43.692  0.00  0.00    +0.034 A 
ATOM     14  C   UNL     1      85.106  54.116  42.535  0.00  0.00    -0.038 A 
ATOM     15  C   UNL     1      85.045  53.481  41.169  0.00  0.00    -0.039 C 
ATOM     16  C   UNL     1      84.982  55.503  42.647  0.00  0.00    -0.050 A 
ATOM     17  C   UNL     1      85.000  56.128  43.899  0.00  0.00    -0.011 A 
ATOM     18  C   UNL     1      85.162  55.362  45.085  0.00  0.00    +0.066 A 
ATOM     19  C   UNL     1      85.416  53.966  44.959  0.00  0.00    +0.136 A 
ATOM     20  C   UNL     1      85.025  56.016  46.343  0.00  0.00    +0.131 A 
ATOM     21  C   UNL     1      84.876  57.418  46.379  0.00  0.00    -0.019 A 
ATOM     22  C   UNL     1      84.797  58.158  45.204  0.00  0.00    -0.058 A 
ATOM     23  C   UNL     1      84.837  57.518  43.970  0.00  0.00    -0.054 A 
BRANCH  19  24
ATOM     24  O   UNL     1      85.788  53.166  46.044  0.00  0.00    -0.505 OA
ATOM     25  H   UNL     1      85.834  53.535  46.904  0.00  0.00    +0.000 HD
ENDBRANCH  19  24
BRANCH  20  26
ATOM     26  O   UNL     1      84.986  55.268  47.530  0.00  0.00    -0.494 OA
ATOM     27  C   UNL     1      83.805  54.949  48.259  0.00  0.00    +0.079 C 
ENDBRANCH  20  26
ENDBRANCH  11  13
BRANCH   1  29
ATOM     28  C   UNL     1      88.536  52.650  41.984  0.00  0.00    +0.079 C 
ATOM     29  O   UNL     1      87.912  52.359  43.231  0.00  0.00    -0.494 OA
ENDBRANCH   1  29
BRANCH  10  30
ATOM     30  O   UNL     1      83.171  51.389  43.945  0.00  0.00    -0.494 OA
ATOM     31  C   UNL     1      82.317  51.869  42.911  0.00  0.00    +0.079 C 
ENDBRANCH  10  30
TORSDOF 5
ENDMDL
MODEL 5
REMARK VINA RESULT:    -8.688      1.374      3.211
REMARK INTER + INTRA:         -11.757
REMARK INTER:                 -10.890
REMARK INTRA:                  -0.867
REMARK UNBOUND:                -0.783
REMARK  Name = 
REMARK  11 active torsions:
REMARK  status: ('A' for Active; 'I' for Inactive)
REMARK    1  A    between atoms: C_1  and  O_2
REMARK    2  A    between atoms: O_2  and  C_3
REMARK    3  A    between atoms: C_7  and  C_8
REMARK    4  A    between atoms: C_10  and  C_30
REMARK    5  A    between atoms: C_12  and  O_28
REMARK    6  A    between atoms: C_13  and  C_14
REMARK    7  A    between atoms: C_15  and  C_16
REMARK    8  A    between atoms: C_20  and  O_21
REMARK    9  A    between atoms: C_22  and  O_23
REMARK   10  A    between atoms: O_23  and  C_24
REMARK   11  A    between atoms: O_28  and  C_29
REMARK                            x       y       z     vdW  Elec       q    Type
REMARK                         _______ _______ _______ _____ _____    ______ ____
ROOT
ATOM      1  C   UNL     1      85.078  49.611  44.377  0.00  0.00    +0.132 A 
ATOM      2  C   UNL     1      85.226  48.229  44.203  0.00  0.00    -0.015 A 
ATOM      3  C   UNL     1      86.415  47.698  43.698  0.00  0.00    -0.030 A 
ATOM      4  C   UNL     1      86.549  46.207  43.516  0.00  0.00    -0.005 C 
ATOM      5  C   UNL     1      87.491  45.913  42.338  0.00  0.00    +0.052 C 
ATOM      6  C   UNL     1      87.801  44.421  42.236  0.00  0.00    -0.042 C 
ATOM      7  N   UNL     1      88.736  46.666  42.494  0.00  0.00    -0.284 NA
ATOM      8  C   UNL     1      88.777  47.886  42.948  0.00  0.00    +0.044 C 
ATOM      9  C   UNL     1      87.512  48.540  43.420  0.00  0.00    +0.041 A 
ATOM     10  C   UNL     1      87.380  49.941  43.597  0.00  0.00    +0.140 A 
ATOM     11  C   UNL     1      86.146  50.471  44.058  0.00  0.00    +0.070 A 
ATOM     12  C   UNL     1      90.121  48.542  43.065  0.00  0.00    -0.022 C 
ENDROOT
BRANCH  11  13
ATOM     13  C   UNL     1      85.906  51.933  44.135  0.00  0.00    +0.034 A 
ATOM     14  C   UNL     1      86.371  52.679  45.238  0.00  0.00    -0.038 A 
ATOM     15  C   UNL     1      87.124  52.023  46.368  0.00  0.00    -0.039 C 
ATOM     16  C   UNL     1      86.071  54.041  45.321  0.00  0.00    -0.050 A 
ATOM     17  C   UNL     1      85.403  54.695  44.280  0.00  0.00    -0.011 A 
ATOM     18  C   UNL     1      85.002  53.978  43.118  0.00  0.00    +0.066 A 
ATOM     19  C   UNL     1      85.196  52.567  43.094  0.00  0.00    +0.136 A 
ATOM     20  C   UNL     1      84.461  54.708  42.022  0.00  0.00    +0.131 A 
ATOM     21  C   UNL     1      84.207  56.087  42.167  0.00  0.00    -0.019 A 
ATOM     22  C   UNL     1      84.538  56.754  43.343  0.00  0.00    -0.058 A 
ATOM     23  C   UNL     1      85.151  56.069  44.386  0.00  0.00    -0.054 A 
BRANCH  19  24
ATOM     24  O   UNL     1      84.658  51.750  42.095  0.00  0.00    -0.505 OA
ATOM     25  H   UNL     1      84.931  51.855  41.205  0.00  0.00    +0.000 HD
ENDBRANCH  19  24
BRANCH  20  26
ATOM     26  O   UNL     1      84.232  54.071  40.792  0.00  0.00    -0.494 OA
ATOM     27  C   UNL     1      84.543  54.619  39.514  0.00  0.00    +0.079 C 
ENDBRANCH  20  26
ENDBRANCH  11  13
BRANCH   1  29
ATOM     28  C   UNL     1      82.582  49.859  44.341  0.00  0.00    +0.079 C 
ATOM     29  O   UNL     1      83.876  50.172  44.848  0.00  0.00    -0.494 OA
ENDBRANCH   1  29
BRANCH  10  30
ATOM     30  O   UNL     1      88.467  50.768  43.269  0.00  0.00    -0.494 OA
ATOM     31  C   UNL     1      88.596  51.504  42.056  0.00  0.00    +0.079 C 
ENDBRANCH  10  30
TORSDOF 5
ENDMDL
MODEL 6
REMARK VINA RESULT:    -8.574      2.975      7.552
REMARK INTER + INTRA:         -11.612
REMARK INTER:                 -10.943
REMARK INTRA:                  -0.669
REMARK UNBOUND:                -0.783
REMARK  Name = 
REMARK  11 active torsions:
REMARK  status: ('A' for Active; 'I' for Inactive)
REMARK    1  A    between atoms: C_1  and  O_2
REMARK    2  A    between atoms: O_2  and  C_3
REMARK    3  A    between atoms: C_7  and  C_8
REMARK    4  A    between atoms: C_10  and  C_30
REMARK    5  A    between atoms: C_12  and  O_28
REMARK    6  A    between atoms: C_13  and  C_14
REMARK    7  A    between atoms: C_15  and  C_16
REMARK    8  A    between atoms: C_20  and  O_21
REMARK    9  A    between atoms: C_22  and  O_23
REMARK   10  A    between atoms: O_23  and  C_24
REMARK   11  A    between atoms: O_28  and  C_29
REMARK                            x       y       z     vdW  Elec       q    Type
REMARK                         _______ _______ _______ _____ _____    ______ ____
ROOT
ATOM      1  C   UNL     1      85.800  52.973  43.014  0.00  0.00    +0.132 A 
ATOM      2  C   UNL     1      85.857  54.373  43.038  0.00  0.00    -0.015 A 
ATOM      3  C   UNL     1      85.683  55.073  44.233  0.00  0.00    -0.030 A 
ATOM      4  C   UNL     1      85.746  56.580  44.232  0.00  0.00    -0.005 C 
ATOM      5  C   UNL     1      84.837  57.135  45.341  0.00  0.00    +0.052 C 
ATOM      6  C   UNL     1      85.013  58.644  45.496  0.00  0.00    -0.042 C 
ATOM      7  N   UNL     1      85.134  56.471  46.610  0.00  0.00    -0.284 NA
ATOM      8  C   UNL     1      85.409  55.201  46.700  0.00  0.00    +0.044 C 
ATOM      9  C   UNL     1      85.518  54.379  45.450  0.00  0.00    +0.041 A 
ATOM     10  C   UNL     1      85.463  52.962  45.444  0.00  0.00    +0.140 A 
ATOM     11  C   UNL     1      85.585  52.266  44.212  0.00  0.00    +0.070 A 
ATOM     12  C   UNL     1      85.701  54.645  48.063  0.00  0.00    -0.022 C 
ENDROOT
BRANCH  11  13
ATOM     13  C   UNL     1      85.404  50.796  44.126  0.00  0.00    +0.034 A 
ATOM     14  C   UNL     1      86.515  49.930  44.207  0.00  0.00    -0.038 A 
ATOM     15  C   UNL     1      87.914  50.463  44.384  0.00  0.00    -0.039 C 
ATOM     16  C   UNL     1      86.326  48.555  44.053  0.00  0.00    -0.050 A 
ATOM     17  C   UNL     1      85.041  48.016  43.918  0.00  0.00    -0.011 A 
ATOM     18  C   UNL     1      83.900  48.864  43.922  0.00  0.00    +0.066 A 
ATOM     19  C   UNL     1      84.105  50.274  43.951  0.00  0.00    +0.136 A 
ATOM     20  C   UNL     1      82.607  48.266  43.934  0.00  0.00    +0.131 A 
ATOM     21  C   UNL     1      82.492  46.868  43.800  0.00  0.00    -0.019 A 
ATOM     22  C   UNL     1      83.623  46.063  43.721  0.00  0.00    -0.058 A 
ATOM     23  C   UNL     1      84.891  46.628  43.801  0.00  0.00    -0.054 A 
BRANCH  19  24
ATOM     24  O   UNL     1      83.068  51.191  43.755  0.00  0.00    -0.505 OA
ATOM     25  H   UNL     1      82.247  51.070  44.190  0.00  0.00    +0.000 HD
ENDBRANCH  19  24
BRANCH  20  26
ATOM     26  O   UNL     1      81.464  49.057  44.131  0.00  0.00    -0.494 OA
ATOM     27  C   UNL     1      80.369  48.719  44.978  0.00  0.00    +0.079 C 
ENDBRANCH  20  26
ENDBRANCH  11  13
BRANCH   1  29
ATOM     28  C   UNL     1      87.085  52.269  40.978  0.00  0.00    +0.079 C 
ATOM     29  O   UNL     1      85.933  52.249  41.815  0.00  0.00    -0.494 OA
ENDBRANCH   1  29
BRANCH  10  30
ATOM     30  O   UNL     1      85.249  52.289  46.659  0.00  0.00    -0.494 OA
ATOM     31  C   UNL     1      86.253  51.603  47.400  0.00  0.00    +0.079 C 
ENDBRANCH  10  30
TORSDOF 5
ENDMDL
MODEL 7
REMARK VINA RESULT:    -8.247      2.673      7.478
REMARK INTER + INTRA:         -11.199
REMARK INTER:                 -10.473
REMARK INTRA:                  -0.726
REMARK UNBOUND:                -0.783
REMARK  Name = 
REMARK  11 active torsions:
REMARK  status: ('A' for Active; 'I' for Inactive)
REMARK    1  A    between atoms: C_1  and  O_2
REMARK    2  A    between atoms: O_2  and  C_3
REMARK    3  A    between atoms: C_7  and  C_8
REMARK    4  A    between atoms: C_10  and  C_30
REMARK    5  A    between atoms: C_12  and  O_28
REMARK    6  A    between atoms: C_13  and  C_14
REMARK    7  A    between atoms: C_15  and  C_16
REMARK    8  A    between atoms: C_20  and  O_21
REMARK    9  A    between atoms: C_22  and  O_23
REMARK   10  A    between atoms: O_23  and  C_24
REMARK   11  A    between atoms: O_28  and  C_29
REMARK                            x       y       z     vdW  Elec       q    Type
REMARK                         _______ _______ _______ _____ _____    ______ ____
ROOT
ATOM      1  C   UNL     1      85.330  52.823  43.363  0.00  0.00    +0.132 A 
ATOM      2  C   UNL     1      85.077  54.172  43.642  0.00  0.00    -0.015 A 
ATOM      3  C   UNL     1      84.995  54.625  44.960  0.00  0.00    -0.030 A 
ATOM      4  C   UNL     1      84.719  56.082  45.234  0.00  0.00    -0.005 C 
ATOM      5  C   UNL     1      83.949  56.222  46.557  0.00  0.00    +0.052 C 
ATOM      6  C   UNL     1      83.812  57.687  46.965  0.00  0.00    -0.042 C 
ATOM      7  N   UNL     1      84.633  55.478  47.614  0.00  0.00    -0.284 NA
ATOM      8  C   UNL     1      85.197  54.321  47.418  0.00  0.00    +0.044 C 
ATOM      9  C   UNL     1      85.234  53.743  46.034  0.00  0.00    +0.041 A 
ATOM     10  C   UNL     1      85.497  52.375  45.769  0.00  0.00    +0.140 A 
ATOM     11  C   UNL     1      85.522  51.918  44.425  0.00  0.00    +0.070 A 
ATOM     12  C   UNL     1      85.871  53.666  48.588  0.00  0.00    -0.022 C 
ENDROOT
BRANCH  11  13
ATOM     13  C   UNL     1      85.659  50.479  44.093  0.00  0.00    +0.034 A 
ATOM     14  C   UNL     1      84.541  49.620  44.151  0.00  0.00    -0.038 A 
ATOM     15  C   UNL     1      83.178  50.131  44.545  0.00  0.00    -0.039 C 
ATOM     16  C   UNL     1      84.711  48.256  43.903  0.00  0.00    -0.050 A 
ATOM     17  C   UNL     1      85.952  47.746  43.503  0.00  0.00    -0.011 A 
ATOM     18  C   UNL     1      87.071  48.610  43.355  0.00  0.00    +0.066 A 
ATOM     19  C   UNL     1      86.926  49.976  43.731  0.00  0.00    +0.136 A 
ATOM     20  C   UNL     1      88.272  48.078  42.803  0.00  0.00    +0.131 A 
ATOM     21  C   UNL     1      88.365  46.693  42.555  0.00  0.00    -0.019 A 
ATOM     22  C   UNL     1      87.279  45.854  42.780  0.00  0.00    -0.058 A 
ATOM     23  C   UNL     1      86.072  46.377  43.231  0.00  0.00    -0.054 A 
BRANCH  19  24
ATOM     24  O   UNL     1      88.011  50.854  43.815  0.00  0.00    -0.505 OA
ATOM     25  H   UNL     1      88.550  51.006  43.064  0.00  0.00    +0.000 HD
ENDBRANCH  19  24
BRANCH  20  26
ATOM     26  O   UNL     1      89.333  48.932  42.462  0.00  0.00    -0.494 OA
ATOM     27  C   UNL     1      90.699  48.723  42.809  0.00  0.00    +0.079 C 
ENDBRANCH  20  26
ENDBRANCH  11  13
BRANCH   1  29
ATOM     28  C   UNL     1      86.340  52.731  41.070  0.00  0.00    +0.079 C 
ATOM     29  O   UNL     1      85.379  52.337  42.044  0.00  0.00    -0.494 OA
ENDBRANCH   1  29
BRANCH  10  30
ATOM     30  O   UNL     1      85.684  51.501  46.854  0.00  0.00    -0.494 OA
ATOM     31  C   UNL     1      86.927  50.907  47.218  0.00  0.00    +0.079 C 
ENDBRANCH  10  30
TORSDOF 5
ENDMDL
MODEL 8
REMARK VINA RESULT:    -7.349      2.291      4.437
REMARK INTER + INTRA:         -10.065
REMARK INTER:                  -9.521
REMARK INTRA:                  -0.545
REMARK UNBOUND:                -0.783
REMARK  Name = 
REMARK  11 active torsions:
REMARK  status: ('A' for Active; 'I' for Inactive)
REMARK    1  A    between atoms: C_1  and  O_2
REMARK    2  A    between atoms: O_2  and  C_3
REMARK    3  A    between atoms: C_7  and  C_8
REMARK    4  A    between atoms: C_10  and  C_30
REMARK    5  A    between atoms: C_12  and  O_28
REMARK    6  A    between atoms: C_13  and  C_14
REMARK    7  A    between atoms: C_15  and  C_16
REMARK    8  A    between atoms: C_20  and  O_21
REMARK    9  A    between atoms: C_22  and  O_23
REMARK   10  A    between atoms: O_23  and  C_24
REMARK   11  A    between atoms: O_28  and  C_29
REMARK                            x       y       z     vdW  Elec       q    Type
REMARK                         _______ _______ _______ _____ _____    ______ ____
ROOT
ATOM      1  C   UNL     1      83.288  50.881  43.730  0.00  0.00    +0.132 A 
ATOM      2  C   UNL     1      83.175  49.486  43.668  0.00  0.00    -0.015 A 
ATOM      3  C   UNL     1      84.315  48.680  43.636  0.00  0.00    -0.030 A 
ATOM      4  C   UNL     1      84.168  47.180  43.567  0.00  0.00    -0.005 C 
ATOM      5  C   UNL     1      85.363  46.579  42.810  0.00  0.00    +0.052 C 
ATOM      6  C   UNL     1      85.349  45.053  42.878  0.00  0.00    -0.042 C 
ATOM      7  N   UNL     1      86.616  47.086  43.370  0.00  0.00    -0.284 NA
ATOM      8  C   UNL     1      86.770  48.317  43.766  0.00  0.00    +0.044 C 
ATOM      9  C   UNL     1      85.599  49.255  43.736  0.00  0.00    +0.041 A 
ATOM     10  C   UNL     1      85.730  50.665  43.804  0.00  0.00    +0.140 A 
ATOM     11  C   UNL     1      84.563  51.474  43.779  0.00  0.00    +0.070 A 
ATOM     12  C   UNL     1      88.106  48.707  44.327  0.00  0.00    -0.022 C 
ENDROOT
BRANCH  11  13
ATOM     13  C   UNL     1      84.643  52.954  43.714  0.00  0.00    +0.034 A 
ATOM     14  C   UNL     1      84.655  53.617  42.469  0.00  0.00    -0.038 A 
ATOM     15  C   UNL     1      84.584  52.853  41.171  0.00  0.00    -0.039 C 
ATOM     16  C   UNL     1      84.802  55.006  42.433  0.00  0.00    -0.050 A 
ATOM     17  C   UNL     1      84.839  55.756  43.614  0.00  0.00    -0.011 A 
ATOM     18  C   UNL     1      84.741  55.114  44.879  0.00  0.00    +0.066 A 
ATOM     19  C   UNL     1      84.719  53.691  44.914  0.00  0.00    +0.136 A 
ATOM     20  C   UNL     1      84.631  55.923  46.046  0.00  0.00    +0.131 A 
ATOM     21  C   UNL     1      84.765  57.322  45.932  0.00  0.00    -0.019 A 
ATOM     22  C   UNL     1      84.937  57.924  44.689  0.00  0.00    -0.058 A 
ATOM     23  C   UNL     1      84.953  57.151  43.534  0.00  0.00    -0.054 A 
BRANCH  19  24
ATOM     24  O   UNL     1      84.828  52.965  46.105  0.00  0.00    -0.505 OA
ATOM     25  H   UNL     1      84.078  52.527  46.457  0.00  0.00    +0.000 HD
ENDBRANCH  19  24
BRANCH  20  26
ATOM     26  O   UNL     1      84.341  55.338  47.288  0.00  0.00    -0.494 OA
ATOM     27  C   UNL     1      83.246  55.694  48.127  0.00  0.00    +0.079 C 
ENDBRANCH  20  26
ENDBRANCH  11  13
BRANCH   1  29
ATOM     28  C   UNL     1      81.263  51.863  42.623  0.00  0.00    +0.079 C 
ATOM     29  O   UNL     1      82.154  51.714  43.724  0.00  0.00    -0.494 OA
ENDBRANCH   1  29
BRANCH  10  30
ATOM     30  O   UNL     1      87.019  51.222  43.853  0.00  0.00    -0.494 OA
ATOM     31  C   UNL     1      87.661  51.689  45.035  0.00  0.00    +0.079 C 
ENDBRANCH  10  30
TORSDOF 5
ENDMDL
MODEL 9
REMARK VINA RESULT:    -7.020     18.148     20.578
REMARK INTER + INTRA:          -9.649
REMARK INTER:                  -8.866
REMARK INTRA:                  -0.783
REMARK UNBOUND:                -0.783
REMARK  Name = 
REMARK  11 active torsions:
REMARK  status: ('A' for Active; 'I' for Inactive)
REMARK    1  A    between atoms: C_1  and  O_2
REMARK    2  A    between atoms: O_2  and  C_3
REMARK    3  A    between atoms: C_7  and  C_8
REMARK    4  A    between atoms: C_10  and  C_30
REMARK    5  A    between atoms: C_12  and  O_28
REMARK    6  A    between atoms: C_13  and  C_14
REMARK    7  A    between atoms: C_15  and  C_16
REMARK    8  A    between atoms: C_20  and  O_21
REMARK    9  A    between atoms: C_22  and  O_23
REMARK   10  A    between atoms: O_23  and  C_24
REMARK   11  A    between atoms: O_28  and  C_29
REMARK                            x       y       z     vdW  Elec       q    Type
REMARK                         _______ _______ _______ _____ _____    ______ ____
ROOT
ATOM      1  C   UNL     1      96.659  66.090  44.116  0.00  0.00    +0.132 A 
ATOM      2  C   UNL     1      96.736  65.447  42.873  0.00  0.00    -0.015 A 
ATOM      3  C   UNL     1      96.620  66.175  41.687  0.00  0.00    -0.030 A 
ATOM      4  C   UNL     1      96.704  65.460  40.362  0.00  0.00    -0.005 C 
ATOM      5  C   UNL     1      95.848  66.199  39.321  0.00  0.00    +0.052 C 
ATOM      6  C   UNL     1      96.051  65.618  37.924  0.00  0.00    -0.042 C 
ATOM      7  N   UNL     1      96.186  67.622  39.317  0.00  0.00    -0.284 NA
ATOM      8  C   UNL     1      96.447  68.294  40.401  0.00  0.00    +0.044 C 
ATOM      9  C   UNL     1      96.494  67.579  41.719  0.00  0.00    +0.041 A 
ATOM     10  C   UNL     1      96.420  68.245  42.969  0.00  0.00    +0.140 A 
ATOM     11  C   UNL     1      96.482  67.485  44.168  0.00  0.00    +0.070 A 
ATOM     12  C   UNL     1      96.785  69.749  40.257  0.00  0.00    -0.022 C 
ENDROOT
BRANCH  11  13
ATOM     13  C   UNL     1      96.277  68.110  45.497  0.00  0.00    +0.034 A 
ATOM     14  C   UNL     1      97.363  68.673  46.200  0.00  0.00    -0.038 A 
ATOM     15  C   UNL     1      98.759  68.662  45.629  0.00  0.00    -0.039 C 
ATOM     16  C   UNL     1      97.156  69.191  47.481  0.00  0.00    -0.050 A 
ATOM     17  C   UNL     1      95.872  69.250  48.035  0.00  0.00    -0.011 A 
ATOM     18  C   UNL     1      94.751  68.767  47.306  0.00  0.00    +0.066 A 
ATOM     19  C   UNL     1      94.982  68.124  46.056  0.00  0.00    +0.136 A 
ATOM     20  C   UNL     1      93.448  68.981  47.841  0.00  0.00    +0.131 A 
ATOM     21  C   UNL     1      93.313  69.533  49.131  0.00  0.00    -0.019 A 
ATOM     22  C   UNL     1      94.431  69.929  49.858  0.00  0.00    -0.058 A 
ATOM     23  C   UNL     1      95.702  69.809  49.308  0.00  0.00    -0.054 A 
BRANCH  19  24
ATOM     24  O   UNL     1      93.978  67.440  45.363  0.00  0.00    -0.505 OA
ATOM     25  H   UNL     1      94.148  66.588  45.013  0.00  0.00    +0.000 HD
ENDBRANCH  19  24
BRANCH  20  26
ATOM     26  O   UNL     1      92.311  68.695  47.070  0.00  0.00    -0.494 OA
ATOM     27  C   UNL     1      90.971  68.691  47.554  0.00  0.00    +0.079 C 
ENDBRANCH  20  26
ENDBRANCH  11  13
BRANCH   1  29
ATOM     28  C   UNL     1      96.953  63.969  45.422  0.00  0.00    +0.079 C 
ATOM     29  O   UNL     1      96.734  65.373  45.324  0.00  0.00    -0.494 OA
ENDBRANCH   1  29
BRANCH  10  30
ATOM     30  O   UNL     1      96.244  69.639  42.982  0.00  0.00    -0.494 OA
ATOM     31  C   UNL     1      95.023  70.305  43.290  0.00  0.00    +0.079 C 
ENDBRANCH  10  30
TORSDOF 5
ENDMDL
