MODEL 1
REMARK VINA RESULT:   -10.013      0.000      0.000
REMARK INTER + INTRA:         -12.564
REMARK INTER:                 -11.647
REMARK INTRA:                  -0.917
REMARK UNBOUND:                 0.083
REMARK  Name = 
REMARK  12 active torsions:
REMARK  status: ('A' for Active; 'I' for Inactive)
REMARK    1  A    between atoms: C_1  and  O_2
REMARK    2  A    between atoms: O_2  and  C_3
REMARK    3  A    between atoms: C_7  and  C_8
REMARK    4  A    between atoms: N_9  and  C_31
REMARK    5  A    between atoms: C_10  and  C_30
REMARK    6  A    between atoms: C_12  and  O_28
REMARK    7  A    between atoms: C_13  and  C_14
REMARK    8  A    between atoms: C_15  and  C_16
REMARK    9  A    between atoms: C_20  and  O_21
REMARK   10  A    between atoms: C_22  and  O_23
REMARK   11  A    between atoms: O_23  and  C_24
REMARK   12  A    between atoms: O_28  and  C_29
REMARK                            x       y       z     vdW  Elec       q    Type
REMARK                         _______ _______ _______ _____ _____    ______ ____
ROOT
ATOM      1  C   UNL     1      87.251  50.807  45.275  0.00  0.00    +0.132 A 
ATOM      2  C   UNL     1      87.093  52.153  45.631  0.00  0.00    -0.016 A 
ATOM      3  C   UNL     1      86.779  53.121  44.669  0.00  0.00    -0.034 A 
ATOM      4  C   UNL     1      86.659  54.553  45.131  0.00  0.00    -0.012 C 
ATOM      5  C   UNL     1      86.577  55.527  43.947  0.00  0.00    +0.012 C 
ATOM      6  C   UNL     1      86.270  56.962  44.402  0.00  0.00    -0.049 C 
ATOM      7  N   UNL     1      85.621  55.044  42.924  0.00  0.00    -0.296 N 
ATOM      8  C   UNL     1      86.162  53.814  42.282  0.00  0.00    +0.037 C 
ATOM      9  C   UNL     1      86.546  52.739  43.320  0.00  0.00    +0.015 A 
ATOM     10  C   UNL     1      86.818  51.398  42.949  0.00  0.00    +0.136 A 
ATOM     11  C   UNL     1      87.137  50.436  43.928  0.00  0.00    +0.069 A 
ATOM     12  C   UNL     1      85.208  53.324  41.170  0.00  0.00    -0.045 C 
ATOM     13  C   UNL     1      84.243  54.858  43.446  0.00  0.00    -0.012 C 
ATOM     14  H   UNL     1      85.526  55.770  42.213  0.00  0.00    +0.000 HD
ENDROOT
BRANCH  11  15
ATOM     15  C   UNL     1      87.353  49.021  43.535  0.00  0.00    +0.034 A 
ATOM     16  C   UNL     1      88.648  48.576  43.182  0.00  0.00    -0.038 A 
ATOM     17  C   UNL     1      89.841  49.499  43.218  0.00  0.00    -0.039 C 
ATOM     18  C   UNL     1      88.844  47.238  42.825  0.00  0.00    -0.050 A 
ATOM     19  C   UNL     1      87.772  46.341  42.776  0.00  0.00    -0.011 A 
ATOM     20  C   UNL     1      86.461  46.771  43.110  0.00  0.00    +0.066 A 
ATOM     21  C   UNL     1      86.261  48.120  43.504  0.00  0.00    +0.136 A 
ATOM     22  C   UNL     1      85.393  45.835  43.046  0.00  0.00    +0.131 A 
ATOM     23  C   UNL     1      85.659  44.507  42.658  0.00  0.00    -0.019 A 
ATOM     24  C   UNL     1      86.953  44.104  42.336  0.00  0.00    -0.058 A 
ATOM     25  C   UNL     1      88.004  45.013  42.394  0.00  0.00    -0.054 A 
BRANCH  21  26
ATOM     26  O   UNL     1      84.982  48.551  43.876  0.00  0.00    -0.505 OA
ATOM     27  H   UNL     1      84.752  48.609  44.782  0.00  0.00    +0.000 HD
ENDBRANCH  21  26
BRANCH  22  28
ATOM     28  O   UNL     1      84.085  46.239  43.367  0.00  0.00    -0.494 OA
ATOM     29  C   UNL     1      83.201  45.532  44.233  0.00  0.00    +0.079 C 
ENDBRANCH  22  28
ENDBRANCH  11  15
BRANCH   1  31
ATOM     30  C   UNL     1      87.566  50.030  47.637  0.00  0.00    +0.079 C 
ATOM     31  O   UNL     1      87.529  49.814  46.230  0.00  0.00    -0.494 OA
ENDBRANCH   1  31
BRANCH  10  32
ATOM     32  O   UNL     1      86.776  51.006  41.609  0.00  0.00    -0.494 OA
ATOM     33  C   UNL     1      87.893  51.178  40.746  0.00  0.00    +0.079 C 
ENDBRANCH  10  32
TORSDOF 5
ENDMDL
MODEL 2
REMARK VINA RESULT:    -9.698      1.463      1.850
REMARK INTER + INTRA:         -12.166
REMARK INTER:                 -11.179
REMARK INTRA:                  -0.987
REMARK UNBOUND:                 0.083
REMARK  Name = 
REMARK  12 active torsions:
REMARK  status: ('A' for Active; 'I' for Inactive)
REMARK    1  A    between atoms: C_1  and  O_2
REMARK    2  A    between atoms: O_2  and  C_3
REMARK    3  A    between atoms: C_7  and  C_8
REMARK    4  A    between atoms: N_9  and  C_31
REMARK    5  A    between atoms: C_10  and  C_30
REMARK    6  A    between atoms: C_12  and  O_28
REMARK    7  A    between atoms: C_13  and  C_14
REMARK    8  A    between atoms: C_15  and  C_16
REMARK    9  A    between atoms: C_20  and  O_21
REMARK   10  A    between atoms: C_22  and  O_23
REMARK   11  A    between atoms: O_23  and  C_24
REMARK   12  A    between atoms: O_28  and  C_29
REMARK                            x       y       z     vdW  Elec       q    Type
REMARK                         _______ _______ _______ _____ _____    ______ ____
ROOT
ATOM      1  C   UNL     1      86.246  51.876  45.826  0.00  0.00    +0.132 A 
ATOM      2  C   UNL     1      86.328  53.247  46.100  0.00  0.00    -0.016 A 
ATOM      3  C   UNL     1      86.120  54.197  45.092  0.00  0.00    -0.034 A 
ATOM      4  C   UNL     1      86.260  55.654  45.465  0.00  0.00    -0.012 C 
ATOM      5  C   UNL     1      86.269  56.559  44.225  0.00  0.00    +0.012 C 
ATOM      6  C   UNL     1      86.225  58.049  44.598  0.00  0.00    -0.049 C 
ATOM      7  N   UNL     1      85.191  56.183  43.281  0.00  0.00    -0.296 N 
ATOM      8  C   UNL     1      85.489  54.845  42.696  0.00  0.00    +0.037 C 
ATOM      9  C   UNL     1      85.753  53.783  43.784  0.00  0.00    +0.015 A 
ATOM     10  C   UNL     1      85.783  52.397  43.489  0.00  0.00    +0.136 A 
ATOM     11  C   UNL     1      85.997  51.452  44.513  0.00  0.00    +0.069 A 
ATOM     12  C   UNL     1      84.407  54.456  41.665  0.00  0.00    -0.045 C 
ATOM     13  C   UNL     1      83.834  56.256  43.878  0.00  0.00    -0.012 C 
ATOM     14  H   UNL     1      85.175  56.872  42.529  0.00  0.00    +0.000 HD
ENDROOT
BRANCH  11  15
ATOM     15  C   UNL     1      85.960  50.001  44.204  0.00  0.00    +0.034 A 
ATOM     16  C   UNL     1      87.148  49.324  43.845  0.00  0.00    -0.038 A 
ATOM     17  C   UNL     1      88.479  50.033  43.790  0.00  0.00    -0.039 C 
ATOM     18  C   UNL     1      87.104  47.954  43.567  0.00  0.00    -0.050 A 
ATOM     19  C   UNL     1      85.897  47.250  43.603  0.00  0.00    -0.011 A 
ATOM     20  C   UNL     1      84.689  47.914  43.945  0.00  0.00    +0.066 A 
ATOM     21  C   UNL     1      84.732  49.297  44.260  0.00  0.00    +0.136 A 
ATOM     22  C   UNL     1      83.478  47.169  43.969  0.00  0.00    +0.131 A 
ATOM     23  C   UNL     1      83.504  45.795  43.659  0.00  0.00    -0.019 A 
ATOM     24  C   UNL     1      84.700  45.162  43.328  0.00  0.00    -0.058 A 
ATOM     25  C   UNL     1      85.889  45.882  43.300  0.00  0.00    -0.054 A 
BRANCH  21  26
ATOM     26  O   UNL     1      83.558  49.959  44.638  0.00  0.00    -0.505 OA
ATOM     27  H   UNL     1      83.277  50.719  44.169  0.00  0.00    +0.000 HD
ENDBRANCH  21  26
BRANCH  22  28
ATOM     28  O   UNL     1      82.269  47.806  44.301  0.00  0.00    -0.494 OA
ATOM     29  C   UNL     1      80.997  47.167  44.354  0.00  0.00    +0.079 C 
ENDBRANCH  22  28
ENDBRANCH  11  15
BRANCH   1  31
ATOM     30  C   UNL     1      87.658  50.581  47.442  0.00  0.00    +0.079 C 
ATOM     31  O   UNL     1      86.414  50.907  46.831  0.00  0.00    -0.494 OA
ENDBRANCH   1  31
BRANCH  10  32
ATOM     32  O   UNL     1      85.602  51.941  42.181  0.00  0.00    -0.494 OA
ATOM     33  C   UNL     1      86.685  51.858  41.263  0.00  0.00    +0.079 C 
ENDBRANCH  10  32
TORSDOF 5
ENDMDL
MODEL 3
REMARK VINA RESULT:    -9.636      1.727      2.844
REMARK INTER + INTRA:         -12.088
REMARK INTER:                 -11.157
REMARK INTRA:                  -0.931
REMARK UNBOUND:                 0.083
REMARK  Name = 
REMARK  12 active torsions:
REMARK  status: ('A' for Active; 'I' for Inactive)
REMARK    1  A    between atoms: C_1  and  O_2
REMARK    2  A    between atoms: O_2  and  C_3
REMARK    3  A    between atoms: C_7  and  C_8
REMARK    4  A    between atoms: N_9  and  C_31
REMARK    5  A    between atoms: C_10  and  C_30
REMARK    6  A    between atoms: C_12  and  O_28
REMARK    7  A    between atoms: C_13  and  C_14
REMARK    8  A    between atoms: C_15  and  C_16
REMARK    9  A    between atoms: C_20  and  O_21
REMARK   10  A    between atoms: C_22  and  O_23
REMARK   11  A    between atoms: O_23  and  C_24
REMARK   12  A    between atoms: O_28  and  C_29
REMARK                            x       y       z     vdW  Elec       q    Type
REMARK                         _______ _______ _______ _____ _____    ______ ____
ROOT
ATOM      1  C   UNL     1      86.411  51.706  45.618  0.00  0.00    +0.132 A 
ATOM      2  C   UNL     1      86.421  53.069  45.942  0.00  0.00    -0.016 A 
ATOM      3  C   UNL     1      86.190  54.044  44.963  0.00  0.00    -0.034 A 
ATOM      4  C   UNL     1      86.252  55.491  45.390  0.00  0.00    -0.012 C 
ATOM      5  C   UNL     1      86.246  56.439  44.182  0.00  0.00    +0.012 C 
ATOM      6  C   UNL     1      86.121  57.911  44.606  0.00  0.00    -0.049 C 
ATOM      7  N   UNL     1      85.209  56.047  43.200  0.00  0.00    -0.296 N 
ATOM      8  C   UNL     1      85.584  54.747  42.577  0.00  0.00    +0.037 C 
ATOM      9  C   UNL     1      85.873  53.660  43.632  0.00  0.00    +0.015 A 
ATOM     10  C   UNL     1      85.976  52.288  43.290  0.00  0.00    +0.136 A 
ATOM     11  C   UNL     1      86.212  51.319  44.286  0.00  0.00    +0.069 A 
ATOM     12  C   UNL     1      84.545  54.345  41.506  0.00  0.00    -0.045 C 
ATOM     13  C   UNL     1      83.836  56.034  43.766  0.00  0.00    -0.012 C 
ATOM     14  H   UNL     1      85.176  56.761  42.473  0.00  0.00    +0.000 HD
ENDROOT
BRANCH  11  15
ATOM     15  C   UNL     1      86.252  49.879  43.925  0.00  0.00    +0.034 A 
ATOM     16  C   UNL     1      85.072  49.102  43.989  0.00  0.00    -0.038 A 
ATOM     17  C   UNL     1      83.748  49.704  44.391  0.00  0.00    -0.039 C 
ATOM     18  C   UNL     1      85.117  47.750  43.637  0.00  0.00    -0.050 A 
ATOM     19  C   UNL     1      86.319  47.144  43.257  0.00  0.00    -0.011 A 
ATOM     20  C   UNL     1      87.519  47.901  43.202  0.00  0.00    +0.066 A 
ATOM     21  C   UNL     1      87.473  49.282  43.528  0.00  0.00    +0.136 A 
ATOM     22  C   UNL     1      88.724  47.254  42.816  0.00  0.00    +0.131 A 
ATOM     23  C   UNL     1      88.700  45.882  42.494  0.00  0.00    -0.019 A 
ATOM     24  C   UNL     1      87.512  45.158  42.551  0.00  0.00    -0.058 A 
ATOM     25  C   UNL     1      86.328  45.781  42.930  0.00  0.00    -0.054 A 
BRANCH  21  26
ATOM     26  O   UNL     1      88.638  50.053  43.441  0.00  0.00    -0.505 OA
ATOM     27  H   UNL     1      88.583  50.960  43.212  0.00  0.00    +0.000 HD
ENDBRANCH  21  26
BRANCH  22  28
ATOM     28  O   UNL     1      89.925  47.983  42.759  0.00  0.00    -0.494 OA
ATOM     29  C   UNL     1      91.071  47.732  43.568  0.00  0.00    +0.079 C 
ENDBRANCH  22  28
ENDBRANCH  11  15
BRANCH   1  31
ATOM     30  C   UNL     1      87.834  50.455  47.259  0.00  0.00    +0.079 C 
ATOM     31  O   UNL     1      86.603  50.710  46.592  0.00  0.00    -0.494 OA
ENDBRANCH   1  31
BRANCH  10  32
ATOM     32  O   UNL     1      85.847  51.872  41.963  0.00  0.00    -0.494 OA
ATOM     33  C   UNL     1      86.951  51.882  41.067  0.00  0.00    +0.079 C 
ENDBRANCH  10  32
TORSDOF 5
ENDMDL
MODEL 4
REMARK VINA RESULT:    -8.991      2.263      7.601
REMARK INTER + INTRA:         -11.273
REMARK INTER:                 -11.104
REMARK INTRA:                  -0.169
REMARK UNBOUND:                 0.083
REMARK  Name = 
REMARK  12 active torsions:
REMARK  status: ('A' for Active; 'I' for Inactive)
REMARK    1  A    between atoms: C_1  and  O_2
REMARK    2  A    between atoms: O_2  and  C_3
REMARK    3  A    between atoms: C_7  and  C_8
REMARK    4  A    between atoms: N_9  and  C_31
REMARK    5  A    between atoms: C_10  and  C_30
REMARK    6  A    between atoms: C_12  and  O_28
REMARK    7  A    between atoms: C_13  and  C_14
REMARK    8  A    between atoms: C_15  and  C_16
REMARK    9  A    between atoms: C_20  and  O_21
REMARK   10  A    between atoms: C_22  and  O_23
REMARK   11  A    between atoms: O_23  and  C_24
REMARK   12  A    between atoms: O_28  and  C_29
REMARK                            x       y       z     vdW  Elec       q    Type
REMARK                         _______ _______ _______ _____ _____    ______ ____
ROOT
ATOM      1  C   UNL     1      88.397  48.799  43.016  0.00  0.00    +0.132 A 
ATOM      2  C   UNL     1      88.669  47.448  42.758  0.00  0.00    -0.016 A 
ATOM      3  C   UNL     1      87.799  46.442  43.196  0.00  0.00    -0.034 A 
ATOM      4  C   UNL     1      88.184  45.011  42.905  0.00  0.00    -0.012 C 
ATOM      5  C   UNL     1      87.291  44.018  43.664  0.00  0.00    +0.012 C 
ATOM      6  C   UNL     1      87.550  42.566  43.234  0.00  0.00    -0.049 C 
ATOM      7  N   UNL     1      85.862  44.391  43.551  0.00  0.00    -0.296 N 
ATOM      8  C   UNL     1      85.622  45.660  44.293  0.00  0.00    +0.037 C 
ATOM      9  C   UNL     1      86.586  46.781  43.853  0.00  0.00    +0.015 A 
ATOM     10  C   UNL     1      86.375  48.137  44.208  0.00  0.00    +0.136 A 
ATOM     11  C   UNL     1      87.261  49.139  43.763  0.00  0.00    +0.069 A 
ATOM     12  C   UNL     1      84.125  46.040  44.238  0.00  0.00    -0.045 C 
ATOM     13  C   UNL     1      85.377  44.449  42.149  0.00  0.00    -0.012 C 
ATOM     14  H   UNL     1      85.307  43.651  43.981  0.00  0.00    +0.000 HD
ENDROOT
BRANCH  11  15
ATOM     15  C   UNL     1      86.994  50.563  44.085  0.00  0.00    +0.034 A 
ATOM     16  C   UNL     1      87.258  51.056  45.384  0.00  0.00    -0.038 A 
ATOM     17  C   UNL     1      87.839  50.175  46.463  0.00  0.00    -0.039 C 
ATOM     18  C   UNL     1      87.014  52.402  45.673  0.00  0.00    -0.050 A 
ATOM     19  C   UNL     1      86.476  53.260  44.709  0.00  0.00    -0.011 A 
ATOM     20  C   UNL     1      86.187  52.782  43.404  0.00  0.00    +0.066 A 
ATOM     21  C   UNL     1      86.463  51.425  43.094  0.00  0.00    +0.136 A 
ATOM     22  C   UNL     1      85.638  53.681  42.448  0.00  0.00    +0.131 A 
ATOM     23  C   UNL     1      85.398  55.019  42.815  0.00  0.00    -0.019 A 
ATOM     24  C   UNL     1      85.691  55.470  44.100  0.00  0.00    -0.058 A 
ATOM     25  C   UNL     1      86.227  54.598  45.042  0.00  0.00    -0.054 A 
BRANCH  21  26
ATOM     26  O   UNL     1      86.222  50.946  41.801  0.00  0.00    -0.505 OA
ATOM     27  H   UNL     1      85.495  50.379  41.639  0.00  0.00    +0.000 HD
ENDBRANCH  21  26
BRANCH  22  28
ATOM     28  O   UNL     1      85.339  53.228  41.150  0.00  0.00    -0.494 OA
ATOM     29  C   UNL     1      84.618  53.972  40.172  0.00  0.00    +0.079 C 
ENDBRANCH  22  28
ENDBRANCH  11  15
BRANCH   1  31
ATOM     30  C   UNL     1      89.477  50.121  41.181  0.00  0.00    +0.079 C 
ATOM     31  O   UNL     1      89.237  49.826  42.553  0.00  0.00    -0.494 OA
ENDBRANCH   1  31
BRANCH  10  32
ATOM     32  O   UNL     1      85.289  48.506  45.004  0.00  0.00    -0.494 OA
ATOM     33  C   UNL     1      84.146  49.152  44.456  0.00  0.00    +0.079 C 
ENDBRANCH  10  32
TORSDOF 5
ENDMDL
MODEL 5
REMARK VINA RESULT:    -8.833      2.370      7.495
REMARK INTER + INTRA:         -11.074
REMARK INTER:                 -10.045
REMARK INTRA:                  -1.030
REMARK UNBOUND:                 0.083
REMARK  Name = 
REMARK  12 active torsions:
REMARK  status: ('A' for Active; 'I' for Inactive)
REMARK    1  A    between atoms: C_1  and  O_2
REMARK    2  A    between atoms: O_2  and  C_3
REMARK    3  A    between atoms: C_7  and  C_8
REMARK    4  A    between atoms: N_9  and  C_31
REMARK    5  A    between atoms: C_10  and  C_30
REMARK    6  A    between atoms: C_12  and  O_28
REMARK    7  A    between atoms: C_13  and  C_14
REMARK    8  A    between atoms: C_15  and  C_16
REMARK    9  A    between atoms: C_20  and  O_21
REMARK   10  A    between atoms: C_22  and  O_23
REMARK   11  A    between atoms: O_23  and  C_24
REMARK   12  A    between atoms: O_28  and  C_29
REMARK                            x       y       z     vdW  Elec       q    Type
REMARK                         _______ _______ _______ _____ _____    ______ ____
ROOT
ATOM      1  C   UNL     1      85.214  48.508  44.268  0.00  0.00    +0.132 A 
ATOM      2  C   UNL     1      85.167  47.133  44.000  0.00  0.00    -0.016 A 
ATOM      3  C   UNL     1      86.242  46.482  43.382  0.00  0.00    -0.034 A 
ATOM      4  C   UNL     1      86.096  45.006  43.100  0.00  0.00    -0.012 C 
ATOM      5  C   UNL     1      87.222  44.488  42.193  0.00  0.00    +0.012 C 
ATOM      6  C   UNL     1      87.189  42.958  42.051  0.00  0.00    -0.049 C 
ATOM      7  N   UNL     1      88.543  44.983  42.645  0.00  0.00    -0.296 N 
ATOM      8  C   UNL     1      88.619  46.455  42.431  0.00  0.00    +0.037 C 
ATOM      9  C   UNL     1      87.431  47.197  43.076  0.00  0.00    +0.015 A 
ATOM     10  C   UNL     1      87.426  48.605  43.246  0.00  0.00    +0.136 A 
ATOM     11  C   UNL     1      86.336  49.246  43.867  0.00  0.00    +0.069 A 
ATOM     12  C   UNL     1      90.010  46.986  42.842  0.00  0.00    -0.045 C 
ATOM     13  C   UNL     1      88.874  44.590  44.038  0.00  0.00    -0.012 C 
ATOM     14  H   UNL     1      89.260  44.532  42.077  0.00  0.00    +0.000 HD
ENDROOT
BRANCH  11  15
ATOM     15  C   UNL     1      86.371  50.712  44.100  0.00  0.00    +0.034 A 
ATOM     16  C   UNL     1      86.959  51.226  45.278  0.00  0.00    -0.038 A 
ATOM     17  C   UNL     1      87.586  50.322  46.311  0.00  0.00    -0.039 C 
ATOM     18  C   UNL     1      86.998  52.609  45.483  0.00  0.00    -0.050 A 
ATOM     19  C   UNL     1      86.431  53.490  44.557  0.00  0.00    -0.011 A 
ATOM     20  C   UNL     1      85.820  52.995  43.375  0.00  0.00    +0.066 A 
ATOM     21  C   UNL     1      85.806  51.594  43.147  0.00  0.00    +0.136 A 
ATOM     22  C   UNL     1      85.250  53.918  42.456  0.00  0.00    +0.131 A 
ATOM     23  C   UNL     1      85.307  55.297  42.736  0.00  0.00    -0.019 A 
ATOM     24  C   UNL     1      85.913  55.764  43.900  0.00  0.00    -0.058 A 
ATOM     25  C   UNL     1      86.472  54.869  44.806  0.00  0.00    -0.054 A 
BRANCH  21  26
ATOM     26  O   UNL     1      85.244  51.090  41.967  0.00  0.00    -0.505 OA
ATOM     27  H   UNL     1      85.316  50.177  41.768  0.00  0.00    +0.000 HD
ENDBRANCH  21  26
BRANCH  22  28
ATOM     28  O   UNL     1      84.635  53.450  41.281  0.00  0.00    -0.494 OA
ATOM     29  C   UNL     1      84.546  54.178  40.060  0.00  0.00    +0.079 C 
ENDBRANCH  22  28
ENDBRANCH  11  15
BRANCH   1  31
ATOM     30  C   UNL     1      82.906  49.483  44.327  0.00  0.00    +0.079 C 
ATOM     31  O   UNL     1      84.162  49.173  44.921  0.00  0.00    -0.494 OA
ENDBRANCH   1  31
BRANCH  10  32
ATOM     32  O   UNL     1      88.499  49.381  42.802  0.00  0.00    -0.494 OA
ATOM     33  C   UNL     1      88.555  49.886  41.473  0.00  0.00    +0.079 C 
ENDBRANCH  10  32
TORSDOF 5
ENDMDL
MODEL 6
REMARK VINA RESULT:    -8.677      2.880      7.870
REMARK INTER + INTRA:         -10.877
REMARK INTER:                 -10.606
REMARK INTRA:                  -0.271
REMARK UNBOUND:                 0.083
REMARK  Name = 
REMARK  12 active torsions:
REMARK  status: ('A' for Active; 'I' for Inactive)
REMARK    1  A    between atoms: C_1  and  O_2
REMARK    2  A    between atoms: O_2  and  C_3
REMARK    3  A    between atoms: C_7  and  C_8
REMARK    4  A    between atoms: N_9  and  C_31
REMARK    5  A    between atoms: C_10  and  C_30
REMARK    6  A    between atoms: C_12  and  O_28
REMARK    7  A    between atoms: C_13  and  C_14
REMARK    8  A    between atoms: C_15  and  C_16
REMARK    9  A    between atoms: C_20  and  O_21
REMARK   10  A    between atoms: C_22  and  O_23
REMARK   11  A    between atoms: O_23  and  C_24
REMARK   12  A    between atoms: O_28  and  C_29
REMARK                            x       y       z     vdW  Elec       q    Type
REMARK                         _______ _______ _______ _____ _____    ______ ____
ROOT
ATOM      1  C   UNL     1      86.695  50.798  43.819  0.00  0.00    +0.132 A 
ATOM      2  C   UNL     1      86.869  49.412  43.931  0.00  0.00    -0.016 A 
ATOM      3  C   UNL     1      85.770  48.557  44.080  0.00  0.00    -0.034 A 
ATOM      4  C   UNL     1      86.047  47.080  44.227  0.00  0.00    -0.012 C 
ATOM      5  C   UNL     1      84.790  46.305  44.645  0.00  0.00    +0.012 C 
ATOM      6  C   UNL     1      85.014  44.785  44.617  0.00  0.00    -0.049 C 
ATOM      7  N   UNL     1      83.616  46.716  43.839  0.00  0.00    -0.296 N 
ATOM      8  C   UNL     1      83.249  48.119  44.179  0.00  0.00    +0.037 C 
ATOM      9  C   UNL     1      84.449  49.080  44.052  0.00  0.00    +0.015 A 
ATOM     10  C   UNL     1      84.287  50.488  44.053  0.00  0.00    +0.136 A 
ATOM     11  C   UNL     1      85.404  51.336  43.905  0.00  0.00    +0.069 A 
ATOM     12  C   UNL     1      81.992  48.551  43.393  0.00  0.00    -0.045 C 
ATOM     13  C   UNL     1      83.804  46.512  42.380  0.00  0.00    -0.012 C 
ATOM     14  H   UNL     1      82.837  46.105  44.082  0.00  0.00    +0.000 HD
ENDROOT
BRANCH  11  15
ATOM     15  C   UNL     1      85.215  52.807  43.840  0.00  0.00    +0.034 A 
ATOM     16  C   UNL     1      85.181  53.460  42.586  0.00  0.00    -0.038 A 
ATOM     17  C   UNL     1      85.304  52.696  41.291  0.00  0.00    -0.039 C 
ATOM     18  C   UNL     1      84.992  54.844  42.535  0.00  0.00    -0.050 A 
ATOM     19  C   UNL     1      84.872  55.599  43.707  0.00  0.00    -0.011 A 
ATOM     20  C   UNL     1      84.921  54.966  44.976  0.00  0.00    +0.066 A 
ATOM     21  C   UNL     1      85.080  53.557  45.034  0.00  0.00    +0.136 A 
ATOM     22  C   UNL     1      84.799  55.763  46.148  0.00  0.00    +0.131 A 
ATOM     23  C   UNL     1      84.631  57.156  46.022  0.00  0.00    -0.019 A 
ATOM     24  C   UNL     1      84.583  57.758  44.767  0.00  0.00    -0.058 A 
ATOM     25  C   UNL     1      84.703  56.987  43.615  0.00  0.00    -0.054 A 
BRANCH  21  26
ATOM     26  O   UNL     1      85.090  52.911  46.276  0.00  0.00    -0.505 OA
ATOM     27  H   UNL     1      85.883  52.534  46.601  0.00  0.00    +0.000 HD
ENDBRANCH  21  26
BRANCH  22  28
ATOM     28  O   UNL     1      84.849  55.158  47.416  0.00  0.00    -0.494 OA
ATOM     29  C   UNL     1      83.841  55.274  48.417  0.00  0.00    +0.079 C 
ENDBRANCH  22  28
ENDBRANCH  11  15
BRANCH   1  31
ATOM     30  C   UNL     1      88.606  51.698  42.471  0.00  0.00    +0.079 C 
ATOM     31  O   UNL     1      87.782  51.669  43.631  0.00  0.00    -0.494 OA
ENDBRANCH   1  31
BRANCH  10  32
ATOM     32  O   UNL     1      83.022  51.062  44.200  0.00  0.00    -0.494 OA
ATOM     33  C   UNL     1      82.301  51.574  43.087  0.00  0.00    +0.079 C 
ENDBRANCH  10  32
TORSDOF 5
ENDMDL
MODEL 7
REMARK VINA RESULT:    -8.616      2.114      4.359
REMARK INTER + INTRA:         -10.801
REMARK INTER:                 -10.562
REMARK INTRA:                  -0.239
REMARK UNBOUND:                 0.083
REMARK  Name = 
REMARK  12 active torsions:
REMARK  status: ('A' for Active; 'I' for Inactive)
REMARK    1  A    between atoms: C_1  and  O_2
REMARK    2  A    between atoms: O_2  and  C_3
REMARK    3  A    between atoms: C_7  and  C_8
REMARK    4  A    between atoms: N_9  and  C_31
REMARK    5  A    between atoms: C_10  and  C_30
REMARK    6  A    between atoms: C_12  and  O_28
REMARK    7  A    between atoms: C_13  and  C_14
REMARK    8  A    between atoms: C_15  and  C_16
REMARK    9  A    between atoms: C_20  and  O_21
REMARK   10  A    between atoms: C_22  and  O_23
REMARK   11  A    between atoms: O_23  and  C_24
REMARK   12  A    between atoms: O_28  and  C_29
REMARK                            x       y       z     vdW  Elec       q    Type
REMARK                         _______ _______ _______ _____ _____    ______ ____
ROOT
ATOM      1  C   UNL     1      85.591  52.194  43.146  0.00  0.00    +0.132 A 
ATOM      2  C   UNL     1      85.199  53.493  43.494  0.00  0.00    -0.016 A 
ATOM      3  C   UNL     1      85.007  53.854  44.833  0.00  0.00    -0.034 A 
ATOM      4  C   UNL     1      84.552  55.265  45.118  0.00  0.00    -0.012 C 
ATOM      5  C   UNL     1      84.130  55.440  46.584  0.00  0.00    +0.012 C 
ATOM      6  C   UNL     1      83.843  56.909  46.930  0.00  0.00    -0.049 C 
ATOM      7  N   UNL     1      85.119  54.828  47.502  0.00  0.00    -0.296 N 
ATOM      8  C   UNL     1      85.093  53.348  47.342  0.00  0.00    +0.037 C 
ATOM      9  C   UNL     1      85.274  52.921  45.870  0.00  0.00    +0.015 A 
ATOM     10  C   UNL     1      85.559  51.580  45.506  0.00  0.00    +0.136 A 
ATOM     11  C   UNL     1      85.746  51.231  44.153  0.00  0.00    +0.069 A 
ATOM     12  C   UNL     1      86.077  52.683  48.330  0.00  0.00    -0.045 C 
ATOM     13  C   UNL     1      86.484  55.395  47.359  0.00  0.00    -0.012 C 
ATOM     14  H   UNL     1      84.847  55.059  48.458  0.00  0.00    +0.000 HD
ENDROOT
BRANCH  11  15
ATOM     15  C   UNL     1      86.111  49.839  43.789  0.00  0.00    +0.034 A 
ATOM     16  C   UNL     1      85.121  48.830  43.777  0.00  0.00    -0.038 A 
ATOM     17  C   UNL     1      83.678  49.131  44.100  0.00  0.00    -0.039 C 
ATOM     18  C   UNL     1      85.472  47.524  43.421  0.00  0.00    -0.050 A 
ATOM     19  C   UNL     1      86.795  47.192  43.113  0.00  0.00    -0.011 A 
ATOM     20  C   UNL     1      87.808  48.187  43.136  0.00  0.00    +0.066 A 
ATOM     21  C   UNL     1      87.452  49.521  43.465  0.00  0.00    +0.136 A 
ATOM     22  C   UNL     1      89.144  47.815  42.821  0.00  0.00    +0.131 A 
ATOM     23  C   UNL     1      89.430  46.476  42.492  0.00  0.00    -0.019 A 
ATOM     24  C   UNL     1      88.422  45.515  42.472  0.00  0.00    -0.058 A 
ATOM     25  C   UNL     1      87.112  45.869  42.780  0.00  0.00    -0.054 A 
BRANCH  21  26
ATOM     26  O   UNL     1      88.430  50.522  43.453  0.00  0.00    -0.505 OA
ATOM     27  H   UNL     1      88.826  50.800  44.256  0.00  0.00    +0.000 HD
ENDBRANCH  21  26
BRANCH  22  28
ATOM     28  O   UNL     1      90.165  48.782  42.842  0.00  0.00    -0.494 OA
ATOM     29  C   UNL     1      91.383  48.669  43.573  0.00  0.00    +0.079 C 
ENDBRANCH  22  28
ENDBRANCH  11  15
BRANCH   1  31
ATOM     30  C   UNL     1      86.820  52.400  40.971  0.00  0.00    +0.079 C 
ATOM     31  O   UNL     1      85.826  51.821  41.811  0.00  0.00    -0.494 OA
ENDBRANCH   1  31
BRANCH  10  32
ATOM     32  O   UNL     1      85.658  50.582  46.478  0.00  0.00    -0.494 OA
ATOM     33  C   UNL     1      86.918  50.066  46.891  0.00  0.00    +0.079 C 
ENDBRANCH  10  32
TORSDOF 5
ENDMDL
MODEL 8
REMARK VINA RESULT:    -8.547      1.185      2.927
REMARK INTER + INTRA:         -10.712
REMARK INTER:                 -10.795
REMARK INTRA:                   0.083
REMARK UNBOUND:                 0.083
REMARK  Name = 
REMARK  12 active torsions:
REMARK  status: ('A' for Active; 'I' for Inactive)
REMARK    1  A    between atoms: C_1  and  O_2
REMARK    2  A    between atoms: O_2  and  C_3
REMARK    3  A    between atoms: C_7  and  C_8
REMARK    4  A    between atoms: N_9  and  C_31
REMARK    5  A    between atoms: C_10  and  C_30
REMARK    6  A    between atoms: C_12  and  O_28
REMARK    7  A    between atoms: C_13  and  C_14
REMARK    8  A    between atoms: C_15  and  C_16
REMARK    9  A    between atoms: C_20  and  O_21
REMARK   10  A    between atoms: C_22  and  O_23
REMARK   11  A    between atoms: O_23  and  C_24
REMARK   12  A    between atoms: O_28  and  C_29
REMARK                            x       y       z     vdW  Elec       q    Type
REMARK                         _______ _______ _______ _____ _____    ______ ____
ROOT
ATOM      1  C   UNL     1      87.043  51.485  41.853  0.00  0.00    +0.132 A 
ATOM      2  C   UNL     1      86.511  52.780  41.911  0.00  0.00    -0.016 A 
ATOM      3  C   UNL     1      86.011  53.300  43.111  0.00  0.00    -0.034 A 
ATOM      4  C   UNL     1      85.425  54.692  43.079  0.00  0.00    -0.012 C 
ATOM      5  C   UNL     1      84.684  55.026  44.381  0.00  0.00    +0.012 C 
ATOM      6  C   UNL     1      84.246  56.497  44.434  0.00  0.00    -0.049 C 
ATOM      7  N   UNL     1      85.482  54.634  45.566  0.00  0.00    -0.296 N 
ATOM      8  C   UNL     1      85.576  53.148  45.630  0.00  0.00    +0.037 C 
ATOM      9  C   UNL     1      86.097  52.543  44.310  0.00  0.00    +0.015 A 
ATOM     10  C   UNL     1      86.531  51.196  44.220  0.00  0.00    +0.136 A 
ATOM     11  C   UNL     1      87.029  50.685  43.004  0.00  0.00    +0.069 A 
ATOM     12  C   UNL     1      86.356  52.713  46.890  0.00  0.00    -0.045 C 
ATOM     13  C   UNL     1      86.811  55.294  45.626  0.00  0.00    -0.012 C 
ATOM     14  H   UNL     1      84.996  54.967  46.398  0.00  0.00    +0.000 HD
ENDROOT
BRANCH  11  15
ATOM     15  C   UNL     1      87.543  49.294  42.939  0.00  0.00    +0.034 A 
ATOM     16  C   UNL     1      88.930  49.059  42.793  0.00  0.00    -0.038 A 
ATOM     17  C   UNL     1      89.923  50.193  42.727  0.00  0.00    -0.039 C 
ATOM     18  C   UNL     1      89.404  47.745  42.743  0.00  0.00    -0.050 A 
ATOM     19  C   UNL     1      88.526  46.659  42.800  0.00  0.00    -0.011 A 
ATOM     20  C   UNL     1      87.128  46.872  42.930  0.00  0.00    +0.066 A 
ATOM     21  C   UNL     1      86.643  48.203  43.012  0.00  0.00    +0.136 A 
ATOM     22  C   UNL     1      86.262  45.746  42.981  0.00  0.00    +0.131 A 
ATOM     23  C   UNL     1      86.808  44.449  42.906  0.00  0.00    -0.019 A 
ATOM     24  C   UNL     1      88.182  44.261  42.781  0.00  0.00    -0.058 A 
ATOM     25  C   UNL     1      89.038  45.356  42.728  0.00  0.00    -0.054 A 
BRANCH  21  26
ATOM     26  O   UNL     1      85.272  48.432  43.181  0.00  0.00    -0.505 OA
ATOM     27  H   UNL     1      84.949  48.756  43.999  0.00  0.00    +0.000 HD
ENDBRANCH  21  26
BRANCH  22  28
ATOM     28  O   UNL     1      84.874  45.933  43.105  0.00  0.00    -0.494 OA
ATOM     29  C   UNL     1      84.017  45.165  43.945  0.00  0.00    +0.079 C 
ENDBRANCH  22  28
ENDBRANCH  11  15
BRANCH   1  31
ATOM     30  C   UNL     1      88.471  51.656  39.801  0.00  0.00    +0.079 C 
ATOM     31  O   UNL     1      87.585  50.957  40.668  0.00  0.00    -0.494 OA
ENDBRANCH   1  31
BRANCH  10  32
ATOM     32  O   UNL     1      86.473  50.352  45.331  0.00  0.00    -0.494 OA
ATOM     33  C   UNL     1      87.635  50.027  46.083  0.00  0.00    +0.079 C 
ENDBRANCH  10  32
TORSDOF 5
ENDMDL
MODEL 9
REMARK VINA RESULT:    -8.543      2.155      3.860
REMARK INTER + INTRA:         -10.708
REMARK INTER:                 -10.456
REMARK INTRA:                  -0.252
REMARK UNBOUND:                 0.083
REMARK  Name = 
REMARK  12 active torsions:
REMARK  status: ('A' for Active; 'I' for Inactive)
REMARK    1  A    between atoms: C_1  and  O_2
REMARK    2  A    between atoms: O_2  and  C_3
REMARK    3  A    between atoms: C_7  and  C_8
REMARK    4  A    between atoms: N_9  and  C_31
REMARK    5  A    between atoms: C_10  and  C_30
REMARK    6  A    between atoms: C_12  and  O_28
REMARK    7  A    between atoms: C_13  and  C_14
REMARK    8  A    between atoms: C_15  and  C_16
REMARK    9  A    between atoms: C_20  and  O_21
REMARK   10  A    between atoms: C_22  and  O_23
REMARK   11  A    between atoms: O_23  and  C_24
REMARK   12  A    between atoms: O_28  and  C_29
REMARK                            x       y       z     vdW  Elec       q    Type
REMARK                         _______ _______ _______ _____ _____    ______ ____
ROOT
ATOM      1  C   UNL     1      85.078  52.864  43.291  0.00  0.00    +0.132 A 
ATOM      2  C   UNL     1      84.797  54.218  43.519  0.00  0.00    -0.016 A 
ATOM      3  C   UNL     1      84.705  54.725  44.821  0.00  0.00    -0.034 A 
ATOM      4  C   UNL     1      84.366  56.188  44.979  0.00  0.00    -0.012 C 
ATOM      5  C   UNL     1      84.039  56.541  46.437  0.00  0.00    +0.012 C 
ATOM      6  C   UNL     1      83.875  58.055  46.640  0.00  0.00    -0.049 C 
ATOM      7  N   UNL     1      85.032  55.953  47.365  0.00  0.00    -0.296 N 
ATOM      8  C   UNL     1      84.895  54.470  47.362  0.00  0.00    +0.037 C 
ATOM      9  C   UNL     1      84.963  53.884  45.937  0.00  0.00    +0.015 A 
ATOM     10  C   UNL     1      85.134  52.496  45.702  0.00  0.00    +0.136 A 
ATOM     11  C   UNL     1      85.222  52.000  44.385  0.00  0.00    +0.069 A 
ATOM     12  C   UNL     1      85.883  53.836  48.367  0.00  0.00    -0.045 C 
ATOM     13  C   UNL     1      86.424  56.399  47.098  0.00  0.00    -0.012 C 
ATOM     14  H   UNL     1      84.831  56.298  48.303  0.00  0.00    +0.000 HD
ENDROOT
BRANCH  11  15
ATOM     15  C   UNL     1      85.468  50.554  44.152  0.00  0.00    +0.034 A 
ATOM     16  C   UNL     1      86.775  50.096  43.870  0.00  0.00    -0.038 A 
ATOM     17  C   UNL     1      87.952  51.040  43.824  0.00  0.00    -0.039 C 
ATOM     18  C   UNL     1      86.998  48.732  43.663  0.00  0.00    -0.050 A 
ATOM     19  C   UNL     1      85.942  47.816  43.694  0.00  0.00    -0.011 A 
ATOM     20  C   UNL     1      84.618  48.256  43.959  0.00  0.00    +0.066 A 
ATOM     21  C   UNL     1      84.391  49.636  44.202  0.00  0.00    +0.136 A 
ATOM     22  C   UNL     1      83.567  47.300  43.981  0.00  0.00    +0.131 A 
ATOM     23  C   UNL     1      83.861  45.942  43.744  0.00  0.00    -0.019 A 
ATOM     24  C   UNL     1      85.166  45.530  43.488  0.00  0.00    -0.058 A 
ATOM     25  C   UNL     1      86.202  46.459  43.463  0.00  0.00    -0.054 A 
BRANCH  21  26
ATOM     26  O   UNL     1      83.099  50.082  44.505  0.00  0.00    -0.505 OA
ATOM     27  H   UNL     1      82.883  50.990  44.414  0.00  0.00    +0.000 HD
ENDBRANCH  21  26
BRANCH  22  28
ATOM     28  O   UNL     1      82.247  47.713  44.236  0.00  0.00    -0.494 OA
ATOM     29  C   UNL     1      81.141  46.838  44.438  0.00  0.00    +0.079 C 
ENDBRANCH  22  28
ENDBRANCH  11  15
BRANCH   1  31
ATOM     30  C   UNL     1      86.222  52.726  41.065  0.00  0.00    +0.079 C 
ATOM     31  O   UNL     1      85.212  52.342  41.992  0.00  0.00    -0.494 OA
ENDBRANCH   1  31
BRANCH  10  32
ATOM     32  O   UNL     1      85.218  51.597  46.767  0.00  0.00    -0.494 OA
ATOM     33  C   UNL     1      86.470  51.122  47.247  0.00  0.00    +0.079 C 
ENDBRANCH  10  32
TORSDOF 5
ENDMDL
