MODEL 1
REMARK VINA RESULT:    -9.181      0.000      0.000
REMARK INTER + INTRA:         -12.962
REMARK INTER:                 -11.769
REMARK INTRA:                  -1.193
REMARK UNBOUND:                -1.098
REMARK  Name = 
REMARK  12 active torsions:
REMARK  status: ('A' for Active; 'I' for Inactive)
REMARK    1  A    between atoms: C_1  and  O_2
REMARK    2  A    between atoms: O_2  and  C_3
REMARK    3  A    between atoms: C_7  and  C_8
REMARK    4  A    between atoms: C_10  and  C_31
REMARK    5  A    between atoms: C_12  and  O_29
REMARK    6  A    between atoms: C_13  and  C_14
REMARK    7  A    between atoms: C_15  and  C_16
REMARK    8  A    between atoms: C_18  and  O_27
REMARK    9  A    between atoms: C_24  and  O_25
REMARK   10  A    between atoms: O_25  and  C_26
REMARK   11  A    between atoms: O_27  and  C_28
REMARK   12  A    between atoms: O_29  and  C_30
REMARK                            x       y       z     vdW  Elec       q    Type
REMARK                         _______ _______ _______ _____ _____    ______ ____
ROOT
ATOM      1  C   UNL     1      85.439  53.214  42.853  0.00  0.00    +0.132 A 
ATOM      2  C   UNL     1      85.355  54.612  42.876  0.00  0.00    -0.015 A 
ATOM      3  C   UNL     1      85.068  55.290  44.063  0.00  0.00    -0.030 A 
ATOM      4  C   UNL     1      84.940  56.793  44.053  0.00  0.00    -0.005 C 
ATOM      5  C   UNL     1      85.372  57.357  45.416  0.00  0.00    +0.052 C 
ATOM      6  C   UNL     1      85.082  58.854  45.514  0.00  0.00    -0.042 C 
ATOM      7  N   UNL     1      84.679  56.650  46.493  0.00  0.00    -0.284 NA
ATOM      8  C   UNL     1      84.450  55.368  46.468  0.00  0.00    +0.044 C 
ATOM      9  C   UNL     1      84.828  54.574  45.254  0.00  0.00    +0.041 A 
ATOM     10  C   UNL     1      84.985  53.165  45.265  0.00  0.00    +0.140 A 
ATOM     11  C   UNL     1      85.268  52.487  44.047  0.00  0.00    +0.067 A 
ATOM     12  C   UNL     1      83.723  54.764  47.633  0.00  0.00    -0.022 C 
ENDROOT
BRANCH  11  13
ATOM     13  C   UNL     1      85.304  51.002  43.969  0.00  0.00    +0.000 A 
ATOM     14  C   UNL     1      86.528  50.326  44.162  0.00  0.00    -0.038 A 
ATOM     15  C   UNL     1      87.815  51.073  44.422  0.00  0.00    -0.039 C 
ATOM     16  C   UNL     1      86.572  48.933  44.066  0.00  0.00    -0.016 A 
ATOM     17  C   UNL     1      85.418  48.177  43.806  0.00  0.00    +0.132 A 
ATOM     18  C   UNL     1      84.178  48.837  43.610  0.00  0.00    +0.066 A 
ATOM     19  C   UNL     1      84.127  50.262  43.680  0.00  0.00    -0.003 A 
ATOM     20  C   UNL     1      82.898  50.917  43.454  0.00  0.00    -0.053 A 
ATOM     21  C   UNL     1      81.743  50.195  43.187  0.00  0.00    -0.058 A 
ATOM     22  C   UNL     1      81.779  48.808  43.132  0.00  0.00    -0.019 A 
ATOM     23  C   UNL     1      82.983  48.110  43.337  0.00  0.00    +0.131 A 
BRANCH  23  24
ATOM     24  O   UNL     1      83.013  46.705  43.276  0.00  0.00    -0.494 OA
ATOM     25  C   UNL     1      82.123  45.836  43.971  0.00  0.00    +0.079 C 
ENDBRANCH  23  24
BRANCH  17  26
ATOM     26  O   UNL     1      85.485  46.774  43.731  0.00  0.00    -0.494 OA
ATOM     27  C   UNL     1      86.381  46.037  42.904  0.00  0.00    +0.079 C 
ENDBRANCH  17  26
ENDBRANCH  11  13
BRANCH   1  29
ATOM     28  C   UNL     1      86.939  52.448  40.996  0.00  0.00    +0.079 C 
ATOM     29  O   UNL     1      85.682  52.509  41.662  0.00  0.00    -0.494 OA
ENDBRANCH   1  29
BRANCH  10  30
ATOM     30  O   UNL     1      84.841  52.489  46.490  0.00  0.00    -0.494 OA
ATOM     31  C   UNL     1      85.903  52.091  47.352  0.00  0.00    +0.079 C 
ENDBRANCH  10  30
TORSDOF 5
ENDMDL
MODEL 2
REMARK VINA RESULT:    -8.692      1.794      3.455
REMARK INTER + INTRA:         -12.331
REMARK INTER:                 -11.314
REMARK INTRA:                  -1.017
REMARK UNBOUND:                -1.098
REMARK  Name = 
REMARK  12 active torsions:
REMARK  status: ('A' for Active; 'I' for Inactive)
REMARK    1  A    between atoms: C_1  and  O_2
REMARK    2  A    between atoms: O_2  and  C_3
REMARK    3  A    between atoms: C_7  and  C_8
REMARK    4  A    between atoms: C_10  and  C_31
REMARK    5  A    between atoms: C_12  and  O_29
REMARK    6  A    between atoms: C_13  and  C_14
REMARK    7  A    between atoms: C_15  and  C_16
REMARK    8  A    between atoms: C_18  and  O_27
REMARK    9  A    between atoms: C_24  and  O_25
REMARK   10  A    between atoms: O_25  and  C_26
REMARK   11  A    between atoms: O_27  and  C_28
REMARK   12  A    between atoms: O_29  and  C_30
REMARK                            x       y       z     vdW  Elec       q    Type
REMARK                         _______ _______ _______ _____ _____    ______ ____
ROOT
ATOM      1  C   UNL     1      85.232  53.454  42.541  0.00  0.00    +0.132 A 
ATOM      2  C   UNL     1      84.917  54.798  42.785  0.00  0.00    -0.015 A 
ATOM      3  C   UNL     1      85.003  55.328  44.073  0.00  0.00    -0.030 A 
ATOM      4  C   UNL     1      84.617  56.766  44.316  0.00  0.00    -0.005 C 
ATOM      5  C   UNL     1      85.440  57.331  45.485  0.00  0.00    +0.052 C 
ATOM      6  C   UNL     1      84.950  58.721  45.887  0.00  0.00    -0.042 C 
ATOM      7  N   UNL     1      85.360  56.430  46.635  0.00  0.00    -0.284 NA
ATOM      8  C   UNL     1      85.370  55.132  46.522  0.00  0.00    +0.044 C 
ATOM      9  C   UNL     1      85.378  54.510  45.159  0.00  0.00    +0.041 A 
ATOM     10  C   UNL     1      85.773  53.170  44.919  0.00  0.00    +0.140 A 
ATOM     11  C   UNL     1      85.673  52.640  43.602  0.00  0.00    +0.067 A 
ATOM     12  C   UNL     1      85.276  54.319  47.780  0.00  0.00    -0.022 C 
ENDROOT
BRANCH  11  13
ATOM     13  C   UNL     1      85.938  51.205  43.315  0.00  0.00    +0.000 A 
ATOM     14  C   UNL     1      84.953  50.242  43.621  0.00  0.00    -0.038 A 
ATOM     15  C   UNL     1      83.638  50.627  44.258  0.00  0.00    -0.039 C 
ATOM     16  C   UNL     1      85.206  48.890  43.376  0.00  0.00    -0.016 A 
ATOM     17  C   UNL     1      86.415  48.461  42.804  0.00  0.00    +0.132 A 
ATOM     18  C   UNL     1      87.418  49.412  42.489  0.00  0.00    +0.066 A 
ATOM     19  C   UNL     1      87.179  50.793  42.760  0.00  0.00    -0.003 A 
ATOM     20  C   UNL     1      88.191  51.734  42.474  0.00  0.00    -0.053 A 
ATOM     21  C   UNL     1      89.399  51.336  41.916  0.00  0.00    -0.058 A 
ATOM     22  C   UNL     1      89.634  49.997  41.634  0.00  0.00    -0.019 A 
ATOM     23  C   UNL     1      88.661  49.020  41.914  0.00  0.00    +0.131 A 
BRANCH  23  24
ATOM     24  O   UNL     1      88.908  47.665  41.629  0.00  0.00    -0.494 OA
ATOM     25  C   UNL     1      90.089  46.954  41.990  0.00  0.00    +0.079 C 
ENDBRANCH  23  24
BRANCH  17  26
ATOM     26  O   UNL     1      86.639  47.095  42.551  0.00  0.00    -0.494 OA
ATOM     27  C   UNL     1      86.173  46.021  43.363  0.00  0.00    +0.079 C 
ENDBRANCH  17  26
ENDBRANCH  11  13
BRANCH   1  29
ATOM     28  C   UNL     1      84.794  53.616  40.079  0.00  0.00    +0.079 C 
ATOM     29  O   UNL     1      85.111  52.888  41.260  0.00  0.00    -0.494 OA
ENDBRANCH   1  29
BRANCH  10  30
ATOM     30  O   UNL     1      86.242  52.409  46.005  0.00  0.00    -0.494 OA
ATOM     31  C   UNL     1      87.576  51.941  46.181  0.00  0.00    +0.079 C 
ENDBRANCH  10  30
TORSDOF 5
ENDMDL
MODEL 3
REMARK VINA RESULT:    -8.691      1.519      3.010
REMARK INTER + INTRA:         -12.329
REMARK INTER:                 -11.271
REMARK INTRA:                  -1.059
REMARK UNBOUND:                -1.098
REMARK  Name = 
REMARK  12 active torsions:
REMARK  status: ('A' for Active; 'I' for Inactive)
REMARK    1  A    between atoms: C_1  and  O_2
REMARK    2  A    between atoms: O_2  and  C_3
REMARK    3  A    between atoms: C_7  and  C_8
REMARK    4  A    between atoms: C_10  and  C_31
REMARK    5  A    between atoms: C_12  and  O_29
REMARK    6  A    between atoms: C_13  and  C_14
REMARK    7  A    between atoms: C_15  and  C_16
REMARK    8  A    between atoms: C_18  and  O_27
REMARK    9  A    between atoms: C_24  and  O_25
REMARK   10  A    between atoms: O_25  and  C_26
REMARK   11  A    between atoms: O_27  and  C_28
REMARK   12  A    between atoms: O_29  and  C_30
REMARK                            x       y       z     vdW  Elec       q    Type
REMARK                         _______ _______ _______ _____ _____    ______ ____
ROOT
ATOM      1  C   UNL     1      85.941  51.475  46.071  0.00  0.00    +0.132 A 
ATOM      2  C   UNL     1      85.727  52.701  46.715  0.00  0.00    -0.015 A 
ATOM      3  C   UNL     1      85.367  53.837  45.987  0.00  0.00    -0.030 A 
ATOM      4  C   UNL     1      85.184  55.154  46.698  0.00  0.00    -0.005 C 
ATOM      5  C   UNL     1      84.135  56.000  45.958  0.00  0.00    +0.052 C 
ATOM      6  C   UNL     1      84.055  57.412  46.534  0.00  0.00    -0.042 C 
ATOM      7  N   UNL     1      84.460  56.066  44.533  0.00  0.00    -0.284 NA
ATOM      8  C   UNL     1      84.932  55.052  43.865  0.00  0.00    +0.044 C 
ATOM      9  C   UNL     1      85.244  53.774  44.583  0.00  0.00    +0.041 A 
ATOM     10  C   UNL     1      85.382  52.527  43.925  0.00  0.00    +0.140 A 
ATOM     11  C   UNL     1      85.757  51.380  44.678  0.00  0.00    +0.067 A 
ATOM     12  C   UNL     1      85.232  55.253  42.408  0.00  0.00    -0.022 C 
ENDROOT
BRANCH  11  13
ATOM     13  C   UNL     1      86.054  50.078  44.024  0.00  0.00    +0.000 A 
ATOM     14  C   UNL     1      87.377  49.785  43.628  0.00  0.00    -0.038 A 
ATOM     15  C   UNL     1      88.501  50.774  43.827  0.00  0.00    -0.039 C 
ATOM     16  C   UNL     1      87.657  48.574  42.991  0.00  0.00    -0.016 A 
ATOM     17  C   UNL     1      86.655  47.619  42.756  0.00  0.00    +0.132 A 
ATOM     18  C   UNL     1      85.319  47.892  43.147  0.00  0.00    +0.066 A 
ATOM     19  C   UNL     1      85.019  49.138  43.775  0.00  0.00    -0.003 A 
ATOM     20  C   UNL     1      83.684  49.421  44.135  0.00  0.00    -0.053 A 
ATOM     21  C   UNL     1      82.672  48.497  43.906  0.00  0.00    -0.058 A 
ATOM     22  C   UNL     1      82.958  47.276  43.311  0.00  0.00    -0.019 A 
ATOM     23  C   UNL     1      84.271  46.954  42.922  0.00  0.00    +0.131 A 
BRANCH  23  24
ATOM     24  O   UNL     1      84.552  45.717  42.316  0.00  0.00    -0.494 OA
ATOM     25  C   UNL     1      84.498  44.453  42.971  0.00  0.00    +0.079 C 
ENDBRANCH  23  24
BRANCH  17  26
ATOM     26  O   UNL     1      86.966  46.398  42.128  0.00  0.00    -0.494 OA
ATOM     27  C   UNL     1      88.244  45.770  42.140  0.00  0.00    +0.079 C 
ENDBRANCH  17  26
ENDBRANCH  11  13
BRANCH   1  29
ATOM     28  C   UNL     1      87.544  50.231  47.543  0.00  0.00    +0.079 C 
ATOM     29  O   UNL     1      86.347  50.331  46.780  0.00  0.00    -0.494 OA
ENDBRANCH   1  29
BRANCH  10  30
ATOM     30  O   UNL     1      85.151  52.477  42.538  0.00  0.00    -0.494 OA
ATOM     31  C   UNL     1      83.920  52.129  41.910  0.00  0.00    +0.079 C 
ENDBRANCH  10  30
TORSDOF 5
ENDMDL
MODEL 4
REMARK VINA RESULT:    -8.686      2.997      7.814
REMARK INTER + INTRA:         -12.322
REMARK INTER:                 -11.529
REMARK INTRA:                  -0.794
REMARK UNBOUND:                -1.098
REMARK  Name = 
REMARK  12 active torsions:
REMARK  status: ('A' for Active; 'I' for Inactive)
REMARK    1  A    between atoms: C_1  and  O_2
REMARK    2  A    between atoms: O_2  and  C_3
REMARK    3  A    between atoms: C_7  and  C_8
REMARK    4  A    between atoms: C_10  and  C_31
REMARK    5  A    between atoms: C_12  and  O_29
REMARK    6  A    between atoms: C_13  and  C_14
REMARK    7  A    between atoms: C_15  and  C_16
REMARK    8  A    between atoms: C_18  and  O_27
REMARK    9  A    between atoms: C_24  and  O_25
REMARK   10  A    between atoms: O_25  and  C_26
REMARK   11  A    between atoms: O_27  and  C_28
REMARK   12  A    between atoms: O_29  and  C_30
REMARK                            x       y       z     vdW  Elec       q    Type
REMARK                         _______ _______ _______ _____ _____    ______ ____
ROOT
ATOM      1  C   UNL     1      85.000  49.153  44.017  0.00  0.00    +0.132 A 
ATOM      2  C   UNL     1      84.868  47.822  43.600  0.00  0.00    -0.015 A 
ATOM      3  C   UNL     1      85.954  47.134  43.054  0.00  0.00    -0.030 A 
ATOM      4  C   UNL     1      85.775  45.716  42.572  0.00  0.00    -0.005 C 
ATOM      5  C   UNL     1      87.096  44.946  42.732  0.00  0.00    +0.052 C 
ATOM      6  C   UNL     1      87.014  43.565  42.085  0.00  0.00    -0.042 C 
ATOM      7  N   UNL     1      88.194  45.706  42.133  0.00  0.00    -0.284 NA
ATOM      8  C   UNL     1      88.290  47.002  42.220  0.00  0.00    +0.044 C 
ATOM      9  C   UNL     1      87.196  47.781  42.885  0.00  0.00    +0.041 A 
ATOM     10  C   UNL     1      87.368  49.101  43.371  0.00  0.00    +0.140 A 
ATOM     11  C   UNL     1      86.251  49.792  43.918  0.00  0.00    +0.067 A 
ATOM     12  C   UNL     1      89.462  47.662  41.555  0.00  0.00    -0.022 C 
ENDROOT
BRANCH  11  13
ATOM     13  C   UNL     1      86.335  51.223  44.314  0.00  0.00    +0.000 A 
ATOM     14  C   UNL     1      86.801  51.561  45.603  0.00  0.00    -0.038 A 
ATOM     15  C   UNL     1      87.195  50.503  46.606  0.00  0.00    -0.039 C 
ATOM     16  C   UNL     1      86.858  52.902  45.989  0.00  0.00    -0.016 A 
ATOM     17  C   UNL     1      86.486  53.935  45.114  0.00  0.00    +0.132 A 
ATOM     18  C   UNL     1      86.016  53.618  43.814  0.00  0.00    +0.066 A 
ATOM     19  C   UNL     1      85.929  52.249  43.419  0.00  0.00    -0.003 A 
ATOM     20  C   UNL     1      85.432  51.934  42.136  0.00  0.00    -0.053 A 
ATOM     21  C   UNL     1      85.049  52.936  41.254  0.00  0.00    -0.058 A 
ATOM     22  C   UNL     1      85.145  54.271  41.623  0.00  0.00    -0.019 A 
ATOM     23  C   UNL     1      85.622  54.634  42.896  0.00  0.00    +0.131 A 
BRANCH  23  24
ATOM     24  O   UNL     1      85.713  55.988  43.264  0.00  0.00    -0.494 OA
ATOM     25  C   UNL     1      84.640  56.924  43.218  0.00  0.00    +0.079 C 
ENDBRANCH  23  24
BRANCH  17  26
ATOM     26  O   UNL     1      86.570  55.280  45.520  0.00  0.00    -0.494 OA
ATOM     27  C   UNL     1      86.190  55.777  46.800  0.00  0.00    +0.079 C 
ENDBRANCH  17  26
ENDBRANCH  11  13
BRANCH   1  29
ATOM     28  C   UNL     1      82.613  49.914  43.942  0.00  0.00    +0.079 C 
ATOM     29  O   UNL     1      83.909  49.877  44.528  0.00  0.00    -0.494 OA
ENDBRANCH   1  29
BRANCH  10  30
ATOM     30  O   UNL     1      88.646  49.682  43.283  0.00  0.00    -0.494 OA
ATOM     31  C   UNL     1      89.021  50.744  42.411  0.00  0.00    +0.079 C 
ENDBRANCH  10  30
TORSDOF 5
ENDMDL
MODEL 5
REMARK VINA RESULT:    -8.659      1.625      2.166
REMARK INTER + INTRA:         -12.288
REMARK INTER:                 -11.088
REMARK INTRA:                  -1.201
REMARK UNBOUND:                -1.098
REMARK  Name = 
REMARK  12 active torsions:
REMARK  status: ('A' for Active; 'I' for Inactive)
REMARK    1  A    between atoms: C_1  and  O_2
REMARK    2  A    between atoms: O_2  and  C_3
REMARK    3  A    between atoms: C_7  and  C_8
REMARK    4  A    between atoms: C_10  and  C_31
REMARK    5  A    between atoms: C_12  and  O_29
REMARK    6  A    between atoms: C_13  and  C_14
REMARK    7  A    between atoms: C_15  and  C_16
REMARK    8  A    between atoms: C_18  and  O_27
REMARK    9  A    between atoms: C_24  and  O_25
REMARK   10  A    between atoms: O_25  and  C_26
REMARK   11  A    between atoms: O_27  and  C_28
REMARK   12  A    between atoms: O_29  and  C_30
REMARK                            x       y       z     vdW  Elec       q    Type
REMARK                         _______ _______ _______ _____ _____    ______ ____
ROOT
ATOM      1  C   UNL     1      86.202  52.134  42.791  0.00  0.00    +0.132 A 
ATOM      2  C   UNL     1      85.946  53.469  43.132  0.00  0.00    -0.015 A 
ATOM      3  C   UNL     1      85.872  53.862  44.469  0.00  0.00    -0.030 A 
ATOM      4  C   UNL     1      85.553  55.296  44.811  0.00  0.00    -0.005 C 
ATOM      5  C   UNL     1      86.227  55.673  46.140  0.00  0.00    +0.052 C 
ATOM      6  C   UNL     1      85.779  57.053  46.617  0.00  0.00    -0.042 C 
ATOM      7  N   UNL     1      85.913  54.673  47.161  0.00  0.00    -0.284 NA
ATOM      8  C   UNL     1      85.851  53.396  46.909  0.00  0.00    +0.044 C 
ATOM      9  C   UNL     1      86.022  52.912  45.501  0.00  0.00    +0.041 A 
ATOM     10  C   UNL     1      86.356  51.574  45.175  0.00  0.00    +0.140 A 
ATOM     11  C   UNL     1      86.420  51.186  43.808  0.00  0.00    +0.067 A 
ATOM     12  C   UNL     1      85.512  52.475  48.044  0.00  0.00    -0.022 C 
ENDROOT
BRANCH  11  13
ATOM     13  C   UNL     1      86.627  49.769  43.407  0.00  0.00    +0.000 A 
ATOM     14  C   UNL     1      87.920  49.328  43.054  0.00  0.00    -0.038 A 
ATOM     15  C   UNL     1      89.104  50.267  43.049  0.00  0.00    -0.039 C 
ATOM     16  C   UNL     1      88.115  48.004  42.652  0.00  0.00    -0.016 A 
ATOM     17  C   UNL     1      87.056  47.084  42.614  0.00  0.00    +0.132 A 
ATOM     18  C   UNL     1      85.748  47.506  42.965  0.00  0.00    +0.066 A 
ATOM     19  C   UNL     1      85.534  48.863  43.352  0.00  0.00    -0.003 A 
ATOM     20  C   UNL     1      84.226  49.289  43.671  0.00  0.00    -0.053 A 
ATOM     21  C   UNL     1      83.158  48.401  43.633  0.00  0.00    -0.058 A 
ATOM     22  C   UNL     1      83.360  47.076  43.274  0.00  0.00    -0.019 A 
ATOM     23  C   UNL     1      84.643  46.608  42.934  0.00  0.00    +0.131 A 
BRANCH  23  24
ATOM     24  O   UNL     1      84.838  45.264  42.567  0.00  0.00    -0.494 OA
ATOM     25  C   UNL     1      84.609  44.142  43.414  0.00  0.00    +0.079 C 
ENDBRANCH  23  24
BRANCH  17  26
ATOM     26  O   UNL     1      87.281  45.752  42.223  0.00  0.00    -0.494 OA
ATOM     27  C   UNL     1      88.449  44.994  42.523  0.00  0.00    +0.079 C 
ENDBRANCH  17  26
ENDBRANCH  11  13
BRANCH   1  29
ATOM     28  C   UNL     1      87.146  52.193  40.469  0.00  0.00    +0.079 C 
ATOM     29  O   UNL     1      86.236  51.709  41.451  0.00  0.00    -0.494 OA
ENDBRANCH   1  29
BRANCH  10  30
ATOM     30  O   UNL     1      86.603  50.674  46.228  0.00  0.00    -0.494 OA
ATOM     31  C   UNL     1      87.885  50.277  46.702  0.00  0.00    +0.079 C 
ENDBRANCH  10  30
TORSDOF 5
ENDMDL
MODEL 6
REMARK VINA RESULT:    -8.588      2.083      4.329
REMARK INTER + INTRA:         -12.196
REMARK INTER:                 -11.161
REMARK INTRA:                  -1.035
REMARK UNBOUND:                -1.098
REMARK  Name = 
REMARK  12 active torsions:
REMARK  status: ('A' for Active; 'I' for Inactive)
REMARK    1  A    between atoms: C_1  and  O_2
REMARK    2  A    between atoms: O_2  and  C_3
REMARK    3  A    between atoms: C_7  and  C_8
REMARK    4  A    between atoms: C_10  and  C_31
REMARK    5  A    between atoms: C_12  and  O_29
REMARK    6  A    between atoms: C_13  and  C_14
REMARK    7  A    between atoms: C_15  and  C_16
REMARK    8  A    between atoms: C_18  and  O_27
REMARK    9  A    between atoms: C_24  and  O_25
REMARK   10  A    between atoms: O_25  and  C_26
REMARK   11  A    between atoms: O_27  and  C_28
REMARK   12  A    between atoms: O_29  and  C_30
REMARK                            x       y       z     vdW  Elec       q    Type
REMARK                         _______ _______ _______ _____ _____    ______ ____
ROOT
ATOM      1  C   UNL     1      86.797  52.609  45.251  0.00  0.00    +0.132 A 
ATOM      2  C   UNL     1      86.692  53.938  45.683  0.00  0.00    -0.015 A 
ATOM      3  C   UNL     1      86.023  54.888  44.909  0.00  0.00    -0.030 A 
ATOM      4  C   UNL     1      85.960  56.321  45.375  0.00  0.00    -0.005 C 
ATOM      5  C   UNL     1      84.662  56.972  44.872  0.00  0.00    +0.052 C 
ATOM      6  C   UNL     1      84.645  58.472  45.162  0.00  0.00    -0.042 C 
ATOM      7  N   UNL     1      84.512  56.746  43.435  0.00  0.00    -0.284 NA
ATOM      8  C   UNL     1      84.835  55.625  42.855  0.00  0.00    +0.044 C 
ATOM      9  C   UNL     1      85.468  54.532  43.662  0.00  0.00    +0.041 A 
ATOM     10  C   UNL     1      85.500  53.177  43.246  0.00  0.00    +0.140 A 
ATOM     11  C   UNL     1      86.192  52.221  44.040  0.00  0.00    +0.067 A 
ATOM     12  C   UNL     1      84.641  55.522  41.371  0.00  0.00    -0.022 C 
ENDROOT
BRANCH  11  13
ATOM     13  C   UNL     1      86.379  50.817  43.587  0.00  0.00    +0.000 A 
ATOM     14  C   UNL     1      85.394  49.852  43.889  0.00  0.00    -0.038 A 
ATOM     15  C   UNL     1      84.160  50.202  44.687  0.00  0.00    -0.039 C 
ATOM     16  C   UNL     1      85.577  48.527  43.487  0.00  0.00    -0.016 A 
ATOM     17  C   UNL     1      86.710  48.129  42.761  0.00  0.00    +0.132 A 
ATOM     18  C   UNL     1      87.712  49.082  42.445  0.00  0.00    +0.066 A 
ATOM     19  C   UNL     1      87.547  50.434  42.875  0.00  0.00    -0.003 A 
ATOM     20  C   UNL     1      88.559  51.374  42.587  0.00  0.00    -0.053 A 
ATOM     21  C   UNL     1      89.694  51.005  41.877  0.00  0.00    -0.058 A 
ATOM     22  C   UNL     1      89.856  49.697  41.442  0.00  0.00    -0.019 A 
ATOM     23  C   UNL     1      88.881  48.721  41.716  0.00  0.00    +0.131 A 
BRANCH  23  24
ATOM     24  O   UNL     1      89.053  47.396  41.275  0.00  0.00    -0.494 OA
ATOM     25  C   UNL     1      90.093  46.520  41.700  0.00  0.00    +0.079 C 
ENDBRANCH  23  24
BRANCH  17  26
ATOM     26  O   UNL     1      86.863  46.791  42.352  0.00  0.00    -0.494 OA
ATOM     27  C   UNL     1      85.974  45.726  42.677  0.00  0.00    +0.079 C 
ENDBRANCH  17  26
ENDBRANCH  11  13
BRANCH   1  29
ATOM     28  C   UNL     1      87.021  51.014  47.172  0.00  0.00    +0.079 C 
ATOM     29  O   UNL     1      87.504  51.646  45.992  0.00  0.00    -0.494 OA
ENDBRANCH   1  29
BRANCH  10  30
ATOM     30  O   UNL     1      84.847  52.834  42.048  0.00  0.00    -0.494 OA
ATOM     31  C   UNL     1      83.519  52.331  41.937  0.00  0.00    +0.079 C 
ENDBRANCH  10  30
TORSDOF 5
ENDMDL
MODEL 7
REMARK VINA RESULT:    -8.430      2.623      7.467
REMARK INTER + INTRA:         -11.992
REMARK INTER:                 -10.986
REMARK INTRA:                  -1.006
REMARK UNBOUND:                -1.098
REMARK  Name = 
REMARK  12 active torsions:
REMARK  status: ('A' for Active; 'I' for Inactive)
REMARK    1  A    between atoms: C_1  and  O_2
REMARK    2  A    between atoms: O_2  and  C_3
REMARK    3  A    between atoms: C_7  and  C_8
REMARK    4  A    between atoms: C_10  and  C_31
REMARK    5  A    between atoms: C_12  and  O_29
REMARK    6  A    between atoms: C_13  and  C_14
REMARK    7  A    between atoms: C_15  and  C_16
REMARK    8  A    between atoms: C_18  and  O_27
REMARK    9  A    between atoms: C_24  and  O_25
REMARK   10  A    between atoms: O_25  and  C_26
REMARK   11  A    between atoms: O_27  and  C_28
REMARK   12  A    between atoms: O_29  and  C_30
REMARK                            x       y       z     vdW  Elec       q    Type
REMARK                         _______ _______ _______ _____ _____    ______ ____
ROOT
ATOM      1  C   UNL     1      86.383  50.527  43.691  0.00  0.00    +0.132 A 
ATOM      2  C   UNL     1      86.492  49.130  43.647  0.00  0.00    -0.015 A 
ATOM      3  C   UNL     1      85.353  48.328  43.563  0.00  0.00    -0.030 A 
ATOM      4  C   UNL     1      85.495  46.826  43.561  0.00  0.00    -0.005 C 
ATOM      5  C   UNL     1      84.349  46.200  42.750  0.00  0.00    +0.052 C 
ATOM      6  C   UNL     1      84.347  44.678  42.877  0.00  0.00    -0.042 C 
ATOM      7  N   UNL     1      83.064  46.734  43.204  0.00  0.00    -0.284 NA
ATOM      8  C   UNL     1      82.893  47.981  43.541  0.00  0.00    +0.044 C 
ATOM      9  C   UNL     1      84.068  48.911  43.553  0.00  0.00    +0.041 A 
ATOM     10  C   UNL     1      83.943  50.322  43.520  0.00  0.00    +0.140 A 
ATOM     11  C   UNL     1      85.111  51.128  43.614  0.00  0.00    +0.067 A 
ATOM     12  C   UNL     1      81.527  48.401  43.997  0.00  0.00    -0.022 C 
ENDROOT
BRANCH  11  13
ATOM     13  C   UNL     1      85.033  52.608  43.726  0.00  0.00    +0.000 A 
ATOM     14  C   UNL     1      85.150  53.400  42.563  0.00  0.00    -0.038 A 
ATOM     15  C   UNL     1      85.377  52.783  41.203  0.00  0.00    -0.039 C 
ATOM     16  C   UNL     1      85.102  54.792  42.666  0.00  0.00    -0.016 A 
ATOM     17  C   UNL     1      84.914  55.432  43.902  0.00  0.00    +0.132 A 
ATOM     18  C   UNL     1      84.794  54.656  45.083  0.00  0.00    +0.066 A 
ATOM     19  C   UNL     1      84.868  53.233  44.991  0.00  0.00    -0.003 A 
ATOM     20  C   UNL     1      84.779  52.464  46.171  0.00  0.00    -0.053 A 
ATOM     21  C   UNL     1      84.602  53.071  47.407  0.00  0.00    -0.058 A 
ATOM     22  C   UNL     1      84.512  54.453  47.504  0.00  0.00    -0.019 A 
ATOM     23  C   UNL     1      84.608  55.263  46.357  0.00  0.00    +0.131 A 
BRANCH  23  24
ATOM     24  O   UNL     1      84.521  56.663  46.464  0.00  0.00    -0.494 OA
ATOM     25  C   UNL     1      83.348  57.385  46.824  0.00  0.00    +0.079 C 
ENDBRANCH  23  24
BRANCH  17  26
ATOM     26  O   UNL     1      84.851  56.836  43.977  0.00  0.00    -0.494 OA
ATOM     27  C   UNL     1      85.968  57.714  43.879  0.00  0.00    +0.079 C 
ENDBRANCH  17  26
ENDBRANCH  11  13
BRANCH   1  29
ATOM     28  C   UNL     1      88.532  51.492  42.836  0.00  0.00    +0.079 C 
ATOM     29  O   UNL     1      87.514  51.351  43.820  0.00  0.00    -0.494 OA
ENDBRANCH   1  29
BRANCH  10  30
ATOM     30  O   UNL     1      82.653  50.873  43.404  0.00  0.00    -0.494 OA
ATOM     31  C   UNL     1      82.058  51.357  42.204  0.00  0.00    +0.079 C 
ENDBRANCH  10  30
TORSDOF 5
ENDMDL
MODEL 8
REMARK VINA RESULT:    -8.319      2.802      7.806
REMARK INTER + INTRA:         -11.849
REMARK INTER:                 -10.834
REMARK INTRA:                  -1.014
REMARK UNBOUND:                -1.098
REMARK  Name = 
REMARK  12 active torsions:
REMARK  status: ('A' for Active; 'I' for Inactive)
REMARK    1  A    between atoms: C_1  and  O_2
REMARK    2  A    between atoms: O_2  and  C_3
REMARK    3  A    between atoms: C_7  and  C_8
REMARK    4  A    between atoms: C_10  and  C_31
REMARK    5  A    between atoms: C_12  and  O_29
REMARK    6  A    between atoms: C_13  and  C_14
REMARK    7  A    between atoms: C_15  and  C_16
REMARK    8  A    between atoms: C_18  and  O_27
REMARK    9  A    between atoms: C_24  and  O_25
REMARK   10  A    between atoms: O_25  and  C_26
REMARK   11  A    between atoms: O_27  and  C_28
REMARK   12  A    between atoms: O_29  and  C_30
REMARK                            x       y       z     vdW  Elec       q    Type
REMARK                         _______ _______ _______ _____ _____    ______ ____
ROOT
ATOM      1  C   UNL     1      84.109  48.949  43.880  0.00  0.00    +0.132 A 
ATOM      2  C   UNL     1      84.189  47.607  43.486  0.00  0.00    -0.015 A 
ATOM      3  C   UNL     1      85.377  47.085  42.969  0.00  0.00    -0.030 A 
ATOM      4  C   UNL     1      85.425  45.649  42.512  0.00  0.00    -0.005 C 
ATOM      5  C   UNL     1      86.845  45.093  42.705  0.00  0.00    +0.052 C 
ATOM      6  C   UNL     1      86.986  43.704  42.084  0.00  0.00    -0.042 C 
ATOM      7  N   UNL     1      87.824  46.001  42.108  0.00  0.00    -0.284 NA
ATOM      8  C   UNL     1      87.720  47.298  42.171  0.00  0.00    +0.044 C 
ATOM      9  C   UNL     1      86.508  47.912  42.806  0.00  0.00    +0.041 A 
ATOM     10  C   UNL     1      86.467  49.251  43.269  0.00  0.00    +0.140 A 
ATOM     11  C   UNL     1      85.249  49.771  43.786  0.00  0.00    +0.067 A 
ATOM     12  C   UNL     1      88.788  48.120  41.511  0.00  0.00    -0.022 C 
ENDROOT
BRANCH  11  13
ATOM     13  C   UNL     1      85.105  51.205  44.156  0.00  0.00    +0.000 A 
ATOM     14  C   UNL     1      84.675  52.133  43.184  0.00  0.00    -0.038 A 
ATOM     15  C   UNL     1      84.378  51.714  41.763  0.00  0.00    -0.039 C 
ATOM     16  C   UNL     1      84.562  53.485  43.519  0.00  0.00    -0.016 A 
ATOM     17  C   UNL     1      84.843  53.946  44.815  0.00  0.00    +0.132 A 
ATOM     18  C   UNL     1      85.276  53.030  45.807  0.00  0.00    +0.066 A 
ATOM     19  C   UNL     1      85.419  51.651  45.467  0.00  0.00    -0.003 A 
ATOM     20  C   UNL     1      85.880  50.746  46.447  0.00  0.00    -0.053 A 
ATOM     21  C   UNL     1      86.173  51.177  47.735  0.00  0.00    -0.058 A 
ATOM     22  C   UNL     1      86.021  52.513  48.079  0.00  0.00    -0.019 A 
ATOM     23  C   UNL     1      85.578  53.455  47.133  0.00  0.00    +0.131 A 
BRANCH  23  24
ATOM     24  O   UNL     1      85.430  54.808  47.488  0.00  0.00    -0.494 OA
ATOM     25  C   UNL     1      84.435  55.320  48.369  0.00  0.00    +0.079 C 
ENDBRANCH  23  24
BRANCH  17  26
ATOM     26  O   UNL     1      84.705  55.310  45.133  0.00  0.00    -0.494 OA
ATOM     27  C   UNL     1      84.463  56.352  44.193  0.00  0.00    +0.079 C 
ENDBRANCH  17  26
ENDBRANCH  11  13
BRANCH   1  29
ATOM     28  C   UNL     1      81.608  49.112  43.946  0.00  0.00    +0.079 C 
ATOM     29  O   UNL     1      82.911  49.506  44.361  0.00  0.00    -0.494 OA
ENDBRANCH   1  29
BRANCH  10  30
ATOM     30  O   UNL     1      87.643  50.019  43.188  0.00  0.00    -0.494 OA
ATOM     31  C   UNL     1      88.590  50.206  44.235  0.00  0.00    +0.079 C 
ENDBRANCH  10  30
TORSDOF 5
ENDMDL
MODEL 9
REMARK VINA RESULT:    -8.066      2.817      7.686
REMARK INTER + INTRA:         -11.522
REMARK INTER:                 -10.424
REMARK INTRA:                  -1.098
REMARK UNBOUND:                -1.098
REMARK  Name = 
REMARK  12 active torsions:
REMARK  status: ('A' for Active; 'I' for Inactive)
REMARK    1  A    between atoms: C_1  and  O_2
REMARK    2  A    between atoms: O_2  and  C_3
REMARK    3  A    between atoms: C_7  and  C_8
REMARK    4  A    between atoms: C_10  and  C_31
REMARK    5  A    between atoms: C_12  and  O_29
REMARK    6  A    between atoms: C_13  and  C_14
REMARK    7  A    between atoms: C_15  and  C_16
REMARK    8  A    between atoms: C_18  and  O_27
REMARK    9  A    between atoms: C_24  and  O_25
REMARK   10  A    between atoms: O_25  and  C_26
REMARK   11  A    between atoms: O_27  and  C_28
REMARK   12  A    between atoms: O_29  and  C_30
REMARK                            x       y       z     vdW  Elec       q    Type
REMARK                         _______ _______ _______ _____ _____    ______ ____
ROOT
ATOM      1  C   UNL     1      87.810  49.575  43.178  0.00  0.00    +0.132 A 
ATOM      2  C   UNL     1      88.291  48.329  42.752  0.00  0.00    -0.015 A 
ATOM      3  C   UNL     1      87.508  47.181  42.880  0.00  0.00    -0.030 A 
ATOM      4  C   UNL     1      88.065  45.845  42.454  0.00  0.00    -0.005 C 
ATOM      5  C   UNL     1      86.921  44.938  41.972  0.00  0.00    +0.052 C 
ATOM      6  C   UNL     1      87.415  43.517  41.709  0.00  0.00    -0.042 C 
ATOM      7  N   UNL     1      85.849  44.912  42.967  0.00  0.00    -0.284 NA
ATOM      8  C   UNL     1      85.481  45.964  43.641  0.00  0.00    +0.044 C 
ATOM      9  C   UNL     1      86.228  47.251  43.468  0.00  0.00    +0.041 A 
ATOM     10  C   UNL     1      85.696  48.513  43.834  0.00  0.00    +0.140 A 
ATOM     11  C   UNL     1      86.509  49.674  43.706  0.00  0.00    +0.067 A 
ATOM     12  C   UNL     1      84.372  45.802  44.639  0.00  0.00    -0.022 C 
ENDROOT
BRANCH  11  13
ATOM     13  C   UNL     1      86.058  51.002  44.203  0.00  0.00    +0.000 A 
ATOM     14  C   UNL     1      85.572  51.958  43.285  0.00  0.00    -0.038 A 
ATOM     15  C   UNL     1      85.519  51.679  41.802  0.00  0.00    -0.039 C 
ATOM     16  C   UNL     1      85.171  53.215  43.744  0.00  0.00    -0.016 A 
ATOM     17  C   UNL     1      85.214  53.549  45.106  0.00  0.00    +0.132 A 
ATOM     18  C   UNL     1      85.698  52.603  46.045  0.00  0.00    +0.066 A 
ATOM     19  C   UNL     1      86.135  51.324  45.584  0.00  0.00    -0.003 A 
ATOM     20  C   UNL     1      86.646  50.396  46.516  0.00  0.00    -0.053 A 
ATOM     21  C   UNL     1      86.708  50.703  47.869  0.00  0.00    -0.058 A 
ATOM     22  C   UNL     1      86.270  51.938  48.328  0.00  0.00    -0.019 A 
ATOM     23  C   UNL     1      85.766  52.902  47.436  0.00  0.00    +0.131 A 
BRANCH  23  24
ATOM     24  O   UNL     1      85.328  54.152  47.910  0.00  0.00    -0.494 OA
ATOM     25  C   UNL     1      84.310  54.347  48.886  0.00  0.00    +0.079 C 
ENDBRANCH  23  24
BRANCH  17  26
ATOM     26  O   UNL     1      84.788  54.816  45.545  0.00  0.00    -0.494 OA
ATOM     27  C   UNL     1      84.594  55.953  44.709  0.00  0.00    +0.079 C 
ENDBRANCH  17  26
ENDBRANCH  11  13
BRANCH   1  29
ATOM     28  C   UNL     1      89.209  51.225  41.910  0.00  0.00    +0.079 C 
ATOM     29  O   UNL     1      88.599  50.736  43.100  0.00  0.00    -0.494 OA
ENDBRANCH   1  29
BRANCH  10  30
ATOM     30  O   UNL     1      84.378  48.564  44.321  0.00  0.00    -0.494 OA
ATOM     31  C   UNL     1      83.233  48.986  43.586  0.00  0.00    +0.079 C 
ENDBRANCH  10  30
TORSDOF 5
ENDMDL
