MODEL 1
REMARK VINA RESULT:    -9.269      0.000      0.000
REMARK INTER + INTRA:         -12.638
REMARK INTER:                 -11.497
REMARK INTRA:                  -1.141
REMARK UNBOUND:                -0.659
REMARK  Name = 
REMARK  12 active torsions:
REMARK  status: ('A' for Active; 'I' for Inactive)
REMARK    1  A    between atoms: C_1  and  O_2
REMARK    2  A    between atoms: O_2  and  C_3
REMARK    3  A    between atoms: C_7  and  C_8
REMARK    4  A    between atoms: C_10  and  C_31
REMARK    5  A    between atoms: C_12  and  O_29
REMARK    6  A    between atoms: C_13  and  C_14
REMARK    7  A    between atoms: C_15  and  C_16
REMARK    8  A    between atoms: C_18  and  O_27
REMARK    9  A    between atoms: C_24  and  O_25
REMARK   10  A    between atoms: O_25  and  C_26
REMARK   11  A    between atoms: O_27  and  C_28
REMARK   12  A    between atoms: O_29  and  C_30
REMARK                            x       y       z     vdW  Elec       q    Type
REMARK                         _______ _______ _______ _____ _____    ______ ____
ROOT
ATOM      1  C   UNL     1      85.526  52.723  42.954  0.00  0.00    +0.132 A 
ATOM      2  C   UNL     1      85.593  54.113  42.791  0.00  0.00    -0.015 A 
ATOM      3  C   UNL     1      85.362  54.970  43.869  0.00  0.00    -0.030 A 
ATOM      4  C   UNL     1      85.397  56.463  43.658  0.00  0.00    -0.005 C 
ATOM      5  C   UNL     1      85.865  57.156  44.948  0.00  0.00    +0.052 C 
ATOM      6  C   UNL     1      85.736  58.674  44.839  0.00  0.00    -0.042 C 
ATOM      7  N   UNL     1      85.082  56.676  46.087  0.00  0.00    -0.284 NA
ATOM      8  C   UNL     1      84.716  55.433  46.223  0.00  0.00    +0.044 C 
ATOM      9  C   UNL     1      85.026  54.448  45.136  0.00  0.00    +0.041 A 
ATOM     10  C   UNL     1      85.029  53.045  45.336  0.00  0.00    +0.140 A 
ATOM     11  C   UNL     1      85.258  52.184  44.227  0.00  0.00    +0.067 A 
ATOM     12  C   UNL     1      83.908  55.070  47.434  0.00  0.00    -0.022 C 
ENDROOT
BRANCH  11  13
ATOM     13  C   UNL     1      85.134  50.707  44.346  0.00  0.00    +0.000 A 
ATOM     14  C   UNL     1      86.265  49.942  44.706  0.00  0.00    -0.038 A 
ATOM     15  C   UNL     1      87.611  50.583  44.952  0.00  0.00    -0.039 C 
ATOM     16  C   UNL     1      86.160  48.552  44.795  0.00  0.00    -0.016 A 
ATOM     17  C   UNL     1      84.945  47.890  44.560  0.00  0.00    +0.132 A 
ATOM     18  C   UNL     1      83.796  48.639  44.198  0.00  0.00    +0.066 A 
ATOM     19  C   UNL     1      83.900  50.058  44.078  0.00  0.00    -0.003 A 
ATOM     20  C   UNL     1      82.764  50.798  43.688  0.00  0.00    -0.053 A 
ATOM     21  C   UNL     1      81.551  50.168  43.440  0.00  0.00    -0.058 A 
ATOM     22  C   UNL     1      81.438  48.790  43.569  0.00  0.00    -0.019 A 
ATOM     23  C   UNL     1      82.546  48.008  43.943  0.00  0.00    +0.131 A 
BRANCH  23  24
ATOM     24  O   UNL     1      82.423  46.612  44.068  0.00  0.00    -0.494 OA
ATOM     25  C   UNL     1      81.241  45.926  44.469  0.00  0.00    +0.079 C 
ENDBRANCH  23  24
BRANCH  17  26
ATOM     26  O   UNL     1      84.861  46.490  44.673  0.00  0.00    -0.494 OA
ATOM     27  C   UNL     1      85.882  45.572  44.293  0.00  0.00    +0.079 C 
ENDBRANCH  17  26
ENDBRANCH  11  13
BRANCH   1  29
ATOM     28  C   UNL     1      86.967  51.552  41.270  0.00  0.00    +0.079 C 
ATOM     29  O   UNL     1      85.711  51.844  41.873  0.00  0.00    -0.494 OA
ENDBRANCH   1  29
BRANCH  10  30
ATOM     30  O   UNL     1      84.793  52.558  46.635  0.00  0.00    -0.494 OA
ATOM     31  C   UNL     1      85.790  52.262  47.608  0.00  0.00    +0.079 C 
ENDBRANCH  10  30
TORSDOF 5
ENDMDL
MODEL 2
REMARK VINA RESULT:    -8.929      2.228      4.441
REMARK INTER + INTRA:         -12.198
REMARK INTER:                 -11.022
REMARK INTRA:                  -1.177
REMARK UNBOUND:                -0.659
REMARK  Name = 
REMARK  12 active torsions:
REMARK  status: ('A' for Active; 'I' for Inactive)
REMARK    1  A    between atoms: C_1  and  O_2
REMARK    2  A    between atoms: O_2  and  C_3
REMARK    3  A    between atoms: C_7  and  C_8
REMARK    4  A    between atoms: C_10  and  C_31
REMARK    5  A    between atoms: C_12  and  O_29
REMARK    6  A    between atoms: C_13  and  C_14
REMARK    7  A    between atoms: C_15  and  C_16
REMARK    8  A    between atoms: C_18  and  O_27
REMARK    9  A    between atoms: C_24  and  O_25
REMARK   10  A    between atoms: O_25  and  C_26
REMARK   11  A    between atoms: O_27  and  C_28
REMARK   12  A    between atoms: O_29  and  C_30
REMARK                            x       y       z     vdW  Elec       q    Type
REMARK                         _______ _______ _______ _____ _____    ______ ____
ROOT
ATOM      1  C   UNL     1      86.644  52.684  45.560  0.00  0.00    +0.132 A 
ATOM      2  C   UNL     1      86.532  54.011  45.995  0.00  0.00    -0.015 A 
ATOM      3  C   UNL     1      85.884  54.967  45.210  0.00  0.00    -0.030 A 
ATOM      4  C   UNL     1      85.814  56.398  45.680  0.00  0.00    -0.005 C 
ATOM      5  C   UNL     1      84.529  57.055  45.149  0.00  0.00    +0.052 C 
ATOM      6  C   UNL     1      84.510  58.553  45.444  0.00  0.00    -0.042 C 
ATOM      7  N   UNL     1      84.413  56.835  43.708  0.00  0.00    -0.284 NA
ATOM      8  C   UNL     1      84.747  55.715  43.131  0.00  0.00    +0.044 C 
ATOM      9  C   UNL     1      85.358  54.617  43.949  0.00  0.00    +0.041 A 
ATOM     10  C   UNL     1      85.395  53.264  43.528  0.00  0.00    +0.140 A 
ATOM     11  C   UNL     1      86.066  52.303  44.334  0.00  0.00    +0.067 A 
ATOM     12  C   UNL     1      84.587  55.619  41.643  0.00  0.00    -0.022 C 
ENDROOT
BRANCH  11  13
ATOM     13  C   UNL     1      86.260  50.900  43.879  0.00  0.00    +0.000 A 
ATOM     14  C   UNL     1      85.297  49.923  44.210  0.00  0.00    -0.038 A 
ATOM     15  C   UNL     1      84.079  50.258  45.040  0.00  0.00    -0.039 C 
ATOM     16  C   UNL     1      85.486  48.599  43.807  0.00  0.00    -0.016 A 
ATOM     17  C   UNL     1      86.605  48.214  43.052  0.00  0.00    +0.132 A 
ATOM     18  C   UNL     1      87.585  49.180  42.707  0.00  0.00    +0.066 A 
ATOM     19  C   UNL     1      87.413  50.531  43.137  0.00  0.00    -0.003 A 
ATOM     20  C   UNL     1      88.404  51.484  42.820  0.00  0.00    -0.053 A 
ATOM     21  C   UNL     1      89.526  51.128  42.082  0.00  0.00    -0.058 A 
ATOM     22  C   UNL     1      89.693  49.821  41.645  0.00  0.00    -0.019 A 
ATOM     23  C   UNL     1      88.739  48.832  41.948  0.00  0.00    +0.131 A 
BRANCH  23  24
ATOM     24  O   UNL     1      88.918  47.509  41.506  0.00  0.00    -0.494 OA
ATOM     25  C   UNL     1      90.019  46.673  41.847  0.00  0.00    +0.079 C 
ENDBRANCH  23  24
BRANCH  17  26
ATOM     26  O   UNL     1      86.765  46.878  42.642  0.00  0.00    -0.494 OA
ATOM     27  C   UNL     1      86.307  45.737  43.362  0.00  0.00    +0.079 C 
ENDBRANCH  17  26
ENDBRANCH  11  13
BRANCH   1  29
ATOM     28  C   UNL     1      86.884  51.190  47.558  0.00  0.00    +0.079 C 
ATOM     29  O   UNL     1      87.330  51.717  46.314  0.00  0.00    -0.494 OA
ENDBRANCH   1  29
BRANCH  10  30
ATOM     30  O   UNL     1      84.770  52.927  42.313  0.00  0.00    -0.494 OA
ATOM     31  C   UNL     1      83.466  52.371  42.173  0.00  0.00    +0.079 C 
ENDBRANCH  10  30
TORSDOF 5
ENDMDL
MODEL 3
REMARK VINA RESULT:    -8.877      1.824      2.454
REMARK INTER + INTRA:         -12.130
REMARK INTER:                 -10.901
REMARK INTRA:                  -1.230
REMARK UNBOUND:                -0.659
REMARK  Name = 
REMARK  12 active torsions:
REMARK  status: ('A' for Active; 'I' for Inactive)
REMARK    1  A    between atoms: C_1  and  O_2
REMARK    2  A    between atoms: O_2  and  C_3
REMARK    3  A    between atoms: C_7  and  C_8
REMARK    4  A    between atoms: C_10  and  C_31
REMARK    5  A    between atoms: C_12  and  O_29
REMARK    6  A    between atoms: C_13  and  C_14
REMARK    7  A    between atoms: C_15  and  C_16
REMARK    8  A    between atoms: C_18  and  O_27
REMARK    9  A    between atoms: C_24  and  O_25
REMARK   10  A    between atoms: O_25  and  C_26
REMARK   11  A    between atoms: O_27  and  C_28
REMARK   12  A    between atoms: O_29  and  C_30
REMARK                            x       y       z     vdW  Elec       q    Type
REMARK                         _______ _______ _______ _____ _____    ______ ____
ROOT
ATOM      1  C   UNL     1      86.160  52.022  43.063  0.00  0.00    +0.132 A 
ATOM      2  C   UNL     1      85.900  53.355  43.411  0.00  0.00    -0.015 A 
ATOM      3  C   UNL     1      85.856  53.746  44.751  0.00  0.00    -0.030 A 
ATOM      4  C   UNL     1      85.532  55.177  45.101  0.00  0.00    -0.005 C 
ATOM      5  C   UNL     1      86.235  55.559  46.413  0.00  0.00    +0.052 C 
ATOM      6  C   UNL     1      85.785  56.935  46.902  0.00  0.00    -0.042 C 
ATOM      7  N   UNL     1      85.957  54.556  47.441  0.00  0.00    -0.284 NA
ATOM      8  C   UNL     1      85.901  53.279  47.190  0.00  0.00    +0.044 C 
ATOM      9  C   UNL     1      86.042  52.797  45.778  0.00  0.00    +0.041 A 
ATOM     10  C   UNL     1      86.380  51.463  45.442  0.00  0.00    +0.140 A 
ATOM     11  C   UNL     1      86.414  51.076  44.074  0.00  0.00    +0.067 A 
ATOM     12  C   UNL     1      85.600  52.354  48.332  0.00  0.00    -0.022 C 
ENDROOT
BRANCH  11  13
ATOM     13  C   UNL     1      86.624  49.661  43.666  0.00  0.00    +0.000 A 
ATOM     14  C   UNL     1      87.910  49.238  43.265  0.00  0.00    -0.038 A 
ATOM     15  C   UNL     1      89.079  50.192  43.213  0.00  0.00    -0.039 C 
ATOM     16  C   UNL     1      88.107  47.916  42.857  0.00  0.00    -0.016 A 
ATOM     17  C   UNL     1      87.060  46.982  42.861  0.00  0.00    +0.132 A 
ATOM     18  C   UNL     1      85.761  47.385  43.262  0.00  0.00    +0.066 A 
ATOM     19  C   UNL     1      85.543  48.741  43.654  0.00  0.00    -0.003 A 
ATOM     20  C   UNL     1      84.243  49.148  44.023  0.00  0.00    -0.053 A 
ATOM     21  C   UNL     1      83.187  48.246  44.027  0.00  0.00    -0.058 A 
ATOM     22  C   UNL     1      83.392  46.923  43.662  0.00  0.00    -0.019 A 
ATOM     23  C   UNL     1      84.668  46.472  43.274  0.00  0.00    +0.131 A 
BRANCH  23  24
ATOM     24  O   UNL     1      84.867  45.131  42.901  0.00  0.00    -0.494 OA
ATOM     25  C   UNL     1      84.362  44.001  43.607  0.00  0.00    +0.079 C 
ENDBRANCH  23  24
BRANCH  17  26
ATOM     26  O   UNL     1      87.288  45.651  42.463  0.00  0.00    -0.494 OA
ATOM     27  C   UNL     1      88.422  44.869  42.825  0.00  0.00    +0.079 C 
ENDBRANCH  17  26
ENDBRANCH  11  13
BRANCH   1  29
ATOM     28  C   UNL     1      87.036  52.101  40.715  0.00  0.00    +0.079 C 
ATOM     29  O   UNL     1      86.166  51.598  41.723  0.00  0.00    -0.494 OA
ENDBRANCH   1  29
BRANCH  10  30
ATOM     30  O   UNL     1      86.662  50.565  46.488  0.00  0.00    -0.494 OA
ATOM     31  C   UNL     1      87.961  50.170  46.921  0.00  0.00    +0.079 C 
ENDBRANCH  10  30
TORSDOF 5
ENDMDL
MODEL 4
REMARK VINA RESULT:    -8.863      2.025      3.684
REMARK INTER + INTRA:         -12.113
REMARK INTER:                 -11.069
REMARK INTRA:                  -1.044
REMARK UNBOUND:                -0.659
REMARK  Name = 
REMARK  12 active torsions:
REMARK  status: ('A' for Active; 'I' for Inactive)
REMARK    1  A    between atoms: C_1  and  O_2
REMARK    2  A    between atoms: O_2  and  C_3
REMARK    3  A    between atoms: C_7  and  C_8
REMARK    4  A    between atoms: C_10  and  C_31
REMARK    5  A    between atoms: C_12  and  O_29
REMARK    6  A    between atoms: C_13  and  C_14
REMARK    7  A    between atoms: C_15  and  C_16
REMARK    8  A    between atoms: C_18  and  O_27
REMARK    9  A    between atoms: C_24  and  O_25
REMARK   10  A    between atoms: O_25  and  C_26
REMARK   11  A    between atoms: O_27  and  C_28
REMARK   12  A    between atoms: O_29  and  C_30
REMARK                            x       y       z     vdW  Elec       q    Type
REMARK                         _______ _______ _______ _____ _____    ______ ____
ROOT
ATOM      1  C   UNL     1      84.887  53.342  42.893  0.00  0.00    +0.132 A 
ATOM      2  C   UNL     1      84.537  54.675  43.146  0.00  0.00    -0.015 A 
ATOM      3  C   UNL     1      84.696  55.224  44.420  0.00  0.00    -0.030 A 
ATOM      4  C   UNL     1      84.272  56.648  44.678  0.00  0.00    -0.005 C 
ATOM      5  C   UNL     1      85.157  57.260  45.777  0.00  0.00    +0.052 C 
ATOM      6  C   UNL     1      84.643  58.634  46.201  0.00  0.00    -0.042 C 
ATOM      7  N   UNL     1      85.200  56.370  46.938  0.00  0.00    -0.284 NA
ATOM      8  C   UNL     1      85.253  55.072  46.836  0.00  0.00    +0.044 C 
ATOM      9  C   UNL     1      85.185  54.434  45.482  0.00  0.00    +0.041 A 
ATOM     10  C   UNL     1      85.614  53.108  45.225  0.00  0.00    +0.140 A 
ATOM     11  C   UNL     1      85.438  52.559  43.925  0.00  0.00    +0.067 A 
ATOM     12  C   UNL     1      85.285  54.272  48.105  0.00  0.00    -0.022 C 
ENDROOT
BRANCH  11  13
ATOM     13  C   UNL     1      85.738  51.132  43.632  0.00  0.00    +0.000 A 
ATOM     14  C   UNL     1      84.804  50.137  43.992  0.00  0.00    -0.038 A 
ATOM     15  C   UNL     1      83.511  50.480  44.693  0.00  0.00    -0.039 C 
ATOM     16  C   UNL     1      85.092  48.794  43.741  0.00  0.00    -0.016 A 
ATOM     17  C   UNL     1      86.284  48.403  43.111  0.00  0.00    +0.132 A 
ATOM     18  C   UNL     1      87.237  49.386  42.740  0.00  0.00    +0.066 A 
ATOM     19  C   UNL     1      86.963  50.760  43.016  0.00  0.00    -0.003 A 
ATOM     20  C   UNL     1      87.926  51.734  42.674  0.00  0.00    -0.053 A 
ATOM     21  C   UNL     1      89.117  51.374  42.058  0.00  0.00    -0.058 A 
ATOM     22  C   UNL     1      89.385  50.042  41.772  0.00  0.00    -0.019 A 
ATOM     23  C   UNL     1      88.462  49.034  42.106  0.00  0.00    +0.131 A 
BRANCH  23  24
ATOM     24  O   UNL     1      88.742  47.686  41.815  0.00  0.00    -0.494 OA
ATOM     25  C   UNL     1      89.947  47.008  42.157  0.00  0.00    +0.079 C 
ENDBRANCH  23  24
BRANCH  17  26
ATOM     26  O   UNL     1      86.544  47.044  42.853  0.00  0.00    -0.494 OA
ATOM     27  C   UNL     1      85.814  45.950  43.401  0.00  0.00    +0.079 C 
ENDBRANCH  17  26
ENDBRANCH  11  13
BRANCH   1  29
ATOM     28  C   UNL     1      84.230  53.450  40.476  0.00  0.00    +0.079 C 
ATOM     29  O   UNL     1      84.693  52.756  41.630  0.00  0.00    -0.494 OA
ENDBRANCH   1  29
BRANCH  10  30
ATOM     30  O   UNL     1      86.193  52.380  46.280  0.00  0.00    -0.494 OA
ATOM     31  C   UNL     1      87.560  51.990  46.373  0.00  0.00    +0.079 C 
ENDBRANCH  10  30
TORSDOF 5
ENDMDL
MODEL 5
REMARK VINA RESULT:    -8.699      2.624      7.481
REMARK INTER + INTRA:         -11.900
REMARK INTER:                 -10.843
REMARK INTRA:                  -1.058
REMARK UNBOUND:                -0.659
REMARK  Name = 
REMARK  12 active torsions:
REMARK  status: ('A' for Active; 'I' for Inactive)
REMARK    1  A    between atoms: C_1  and  O_2
REMARK    2  A    between atoms: O_2  and  C_3
REMARK    3  A    between atoms: C_7  and  C_8
REMARK    4  A    between atoms: C_10  and  C_31
REMARK    5  A    between atoms: C_12  and  O_29
REMARK    6  A    between atoms: C_13  and  C_14
REMARK    7  A    between atoms: C_15  and  C_16
REMARK    8  A    between atoms: C_18  and  O_27
REMARK    9  A    between atoms: C_24  and  O_25
REMARK   10  A    between atoms: O_25  and  C_26
REMARK   11  A    between atoms: O_27  and  C_28
REMARK   12  A    between atoms: O_29  and  C_30
REMARK                            x       y       z     vdW  Elec       q    Type
REMARK                         _______ _______ _______ _____ _____    ______ ____
ROOT
ATOM      1  C   UNL     1      86.222  50.485  44.041  0.00  0.00    +0.132 A 
ATOM      2  C   UNL     1      86.355  49.090  44.014  0.00  0.00    -0.015 A 
ATOM      3  C   UNL     1      85.229  48.267  43.954  0.00  0.00    -0.030 A 
ATOM      4  C   UNL     1      85.397  46.768  43.970  0.00  0.00    -0.005 C 
ATOM      5  C   UNL     1      84.253  46.111  43.180  0.00  0.00    +0.052 C 
ATOM      6  C   UNL     1      84.279  44.591  43.328  0.00  0.00    -0.042 C 
ATOM      7  N   UNL     1      82.965  46.629  43.641  0.00  0.00    -0.284 NA
ATOM      8  C   UNL     1      82.776  47.877  43.963  0.00  0.00    +0.044 C 
ATOM      9  C   UNL     1      83.935  48.828  43.950  0.00  0.00    +0.041 A 
ATOM     10  C   UNL     1      83.784  50.236  43.899  0.00  0.00    +0.140 A 
ATOM     11  C   UNL     1      84.939  51.063  43.970  0.00  0.00    +0.067 A 
ATOM     12  C   UNL     1      81.407  48.280  44.429  0.00  0.00    -0.022 C 
ENDROOT
BRANCH  11  13
ATOM     13  C   UNL     1      84.837  52.543  44.063  0.00  0.00    +0.000 A 
ATOM     14  C   UNL     1      84.851  53.316  42.882  0.00  0.00    -0.038 A 
ATOM     15  C   UNL     1      84.992  52.679  41.519  0.00  0.00    -0.039 C 
ATOM     16  C   UNL     1      84.779  54.708  42.964  0.00  0.00    -0.016 A 
ATOM     17  C   UNL     1      84.668  55.367  44.200  0.00  0.00    +0.132 A 
ATOM     18  C   UNL     1      84.651  54.609  45.399  0.00  0.00    +0.066 A 
ATOM     19  C   UNL     1      84.750  53.187  45.326  0.00  0.00    -0.003 A 
ATOM     20  C   UNL     1      84.764  52.437  46.521  0.00  0.00    -0.053 A 
ATOM     21  C   UNL     1      84.664  53.063  47.757  0.00  0.00    -0.058 A 
ATOM     22  C   UNL     1      84.551  54.445  47.837  0.00  0.00    -0.019 A 
ATOM     23  C   UNL     1      84.545  55.236  46.673  0.00  0.00    +0.131 A 
BRANCH  23  24
ATOM     24  O   UNL     1      84.435  56.635  46.763  0.00  0.00    -0.494 OA
ATOM     25  C   UNL     1      83.298  57.337  47.255  0.00  0.00    +0.079 C 
ENDBRANCH  23  24
BRANCH  17  26
ATOM     26  O   UNL     1      84.579  56.770  44.256  0.00  0.00    -0.494 OA
ATOM     27  C   UNL     1      85.625  57.673  43.908  0.00  0.00    +0.079 C 
ENDBRANCH  17  26
ENDBRANCH  11  13
BRANCH   1  29
ATOM     28  C   UNL     1      88.254  51.603  43.090  0.00  0.00    +0.079 C 
ATOM     29  O   UNL     1      87.340  51.330  44.146  0.00  0.00    -0.494 OA
ENDBRANCH   1  29
BRANCH  10  30
ATOM     30  O   UNL     1      82.484  50.763  43.790  0.00  0.00    -0.494 OA
ATOM     31  C   UNL     1      81.844  51.160  42.582  0.00  0.00    +0.079 C 
ENDBRANCH  10  30
TORSDOF 5
ENDMDL
MODEL 6
REMARK VINA RESULT:    -8.604      1.610      2.991
REMARK INTER + INTRA:         -11.779
REMARK INTER:                 -10.831
REMARK INTRA:                  -0.947
REMARK UNBOUND:                -0.659
REMARK  Name = 
REMARK  12 active torsions:
REMARK  status: ('A' for Active; 'I' for Inactive)
REMARK    1  A    between atoms: C_1  and  O_2
REMARK    2  A    between atoms: O_2  and  C_3
REMARK    3  A    between atoms: C_7  and  C_8
REMARK    4  A    between atoms: C_10  and  C_31
REMARK    5  A    between atoms: C_12  and  O_29
REMARK    6  A    between atoms: C_13  and  C_14
REMARK    7  A    between atoms: C_15  and  C_16
REMARK    8  A    between atoms: C_18  and  O_27
REMARK    9  A    between atoms: C_24  and  O_25
REMARK   10  A    between atoms: O_25  and  C_26
REMARK   11  A    between atoms: O_27  and  C_28
REMARK   12  A    between atoms: O_29  and  C_30
REMARK                            x       y       z     vdW  Elec       q    Type
REMARK                         _______ _______ _______ _____ _____    ______ ____
ROOT
ATOM      1  C   UNL     1      85.977  51.599  46.237  0.00  0.00    +0.132 A 
ATOM      2  C   UNL     1      85.836  52.863  46.825  0.00  0.00    -0.015 A 
ATOM      3  C   UNL     1      85.446  53.966  46.062  0.00  0.00    -0.030 A 
ATOM      4  C   UNL     1      85.342  55.324  46.709  0.00  0.00    -0.005 C 
ATOM      5  C   UNL     1      84.258  56.153  46.002  0.00  0.00    +0.052 C 
ATOM      6  C   UNL     1      84.249  57.596  46.502  0.00  0.00    -0.042 C 
ATOM      7  N   UNL     1      84.478  56.134  44.555  0.00  0.00    -0.284 NA
ATOM      8  C   UNL     1      84.878  55.074  43.912  0.00  0.00    +0.044 C 
ATOM      9  C   UNL     1      85.217  53.830  44.677  0.00  0.00    +0.041 A 
ATOM     10  C   UNL     1      85.281  52.546  44.081  0.00  0.00    +0.140 A 
ATOM     11  C   UNL     1      85.688  51.433  44.868  0.00  0.00    +0.067 A 
ATOM     12  C   UNL     1      85.073  55.188  42.429  0.00  0.00    -0.022 C 
ENDROOT
BRANCH  11  13
ATOM     13  C   UNL     1      85.910  50.090  44.269  0.00  0.00    +0.000 A 
ATOM     14  C   UNL     1      87.204  49.726  43.840  0.00  0.00    -0.038 A 
ATOM     15  C   UNL     1      88.373  50.677  43.950  0.00  0.00    -0.039 C 
ATOM     16  C   UNL     1      87.413  48.475  43.253  0.00  0.00    -0.016 A 
ATOM     17  C   UNL     1      86.367  47.551  43.101  0.00  0.00    +0.132 A 
ATOM     18  C   UNL     1      85.058  47.896  43.526  0.00  0.00    +0.066 A 
ATOM     19  C   UNL     1      84.830  49.182  44.103  0.00  0.00    -0.003 A 
ATOM     20  C   UNL     1      83.522  49.535  44.497  0.00  0.00    -0.053 A 
ATOM     21  C   UNL     1      82.467  48.644  44.350  0.00  0.00    -0.058 A 
ATOM     22  C   UNL     1      82.683  47.385  43.805  0.00  0.00    -0.019 A 
ATOM     23  C   UNL     1      83.967  46.992  43.385  0.00  0.00    +0.131 A 
BRANCH  23  24
ATOM     24  O   UNL     1      84.177  45.717  42.830  0.00  0.00    -0.494 OA
ATOM     25  C   UNL     1      84.156  44.493  43.559  0.00  0.00    +0.079 C 
ENDBRANCH  23  24
BRANCH  17  26
ATOM     26  O   UNL     1      86.606  46.291  42.523  0.00  0.00    -0.494 OA
ATOM     27  C   UNL     1      87.732  45.461  42.798  0.00  0.00    +0.079 C 
ENDBRANCH  17  26
ENDBRANCH  11  13
BRANCH   1  29
ATOM     28  C   UNL     1      87.626  50.426  47.715  0.00  0.00    +0.079 C 
ATOM     29  O   UNL     1      86.411  50.486  46.977  0.00  0.00    -0.494 OA
ENDBRANCH   1  29
BRANCH  10  30
ATOM     30  O   UNL     1      84.946  52.425  42.720  0.00  0.00    -0.494 OA
ATOM     31  C   UNL     1      83.658  52.105  42.203  0.00  0.00    +0.079 C 
ENDBRANCH  10  30
TORSDOF 5
ENDMDL
MODEL 7
REMARK VINA RESULT:    -8.486      1.969      2.803
REMARK INTER + INTRA:         -11.626
REMARK INTER:                 -11.078
REMARK INTRA:                  -0.548
REMARK UNBOUND:                -0.659
REMARK  Name = 
REMARK  12 active torsions:
REMARK  status: ('A' for Active; 'I' for Inactive)
REMARK    1  A    between atoms: C_1  and  O_2
REMARK    2  A    between atoms: O_2  and  C_3
REMARK    3  A    between atoms: C_7  and  C_8
REMARK    4  A    between atoms: C_10  and  C_31
REMARK    5  A    between atoms: C_12  and  O_29
REMARK    6  A    between atoms: C_13  and  C_14
REMARK    7  A    between atoms: C_15  and  C_16
REMARK    8  A    between atoms: C_18  and  O_27
REMARK    9  A    between atoms: C_24  and  O_25
REMARK   10  A    between atoms: O_25  and  C_26
REMARK   11  A    between atoms: O_27  and  C_28
REMARK   12  A    between atoms: O_29  and  C_30
REMARK                            x       y       z     vdW  Elec       q    Type
REMARK                         _______ _______ _______ _____ _____    ______ ____
ROOT
ATOM      1  C   UNL     1      85.384  53.685  42.586  0.00  0.00    +0.132 A 
ATOM      2  C   UNL     1      84.774  54.898  42.930  0.00  0.00    -0.015 A 
ATOM      3  C   UNL     1      84.917  55.431  44.213  0.00  0.00    -0.030 A 
ATOM      4  C   UNL     1      84.215  56.716  44.572  0.00  0.00    -0.005 C 
ATOM      5  C   UNL     1      85.035  57.476  45.628  0.00  0.00    +0.052 C 
ATOM      6  C   UNL     1      84.271  58.688  46.156  0.00  0.00    -0.042 C 
ATOM      7  N   UNL     1      85.371  56.583  46.737  0.00  0.00    -0.284 NA
ATOM      8  C   UNL     1      85.699  55.334  46.569  0.00  0.00    +0.044 C 
ATOM      9  C   UNL     1      85.656  54.737  45.195  0.00  0.00    +0.041 A 
ATOM     10  C   UNL     1      86.341  53.548  44.842  0.00  0.00    +0.140 A 
ATOM     11  C   UNL     1      86.180  53.013  43.534  0.00  0.00    +0.067 A 
ATOM     12  C   UNL     1      86.014  54.522  47.791  0.00  0.00    -0.022 C 
ENDROOT
BRANCH  11  13
ATOM     13  C   UNL     1      86.759  51.698  43.150  0.00  0.00    +0.000 A 
ATOM     14  C   UNL     1      87.993  51.656  42.467  0.00  0.00    -0.038 A 
ATOM     15  C   UNL     1      88.735  52.917  42.091  0.00  0.00    -0.039 C 
ATOM     16  C   UNL     1      88.530  50.425  42.082  0.00  0.00    -0.016 A 
ATOM     17  C   UNL     1      87.883  49.215  42.381  0.00  0.00    +0.132 A 
ATOM     18  C   UNL     1      86.642  49.235  43.068  0.00  0.00    +0.066 A 
ATOM     19  C   UNL     1      86.073  50.489  43.442  0.00  0.00    -0.003 A 
ATOM     20  C   UNL     1      84.823  50.508  44.098  0.00  0.00    -0.053 A 
ATOM     21  C   UNL     1      84.157  49.327  44.398  0.00  0.00    -0.058 A 
ATOM     22  C   UNL     1      84.711  48.102  44.052  0.00  0.00    -0.019 A 
ATOM     23  C   UNL     1      85.948  48.032  43.386  0.00  0.00    +0.131 A 
BRANCH  23  24
ATOM     24  O   UNL     1      86.500  46.787  43.035  0.00  0.00    -0.494 OA
ATOM     25  C   UNL     1      85.782  45.559  42.979  0.00  0.00    +0.079 C 
ENDBRANCH  23  24
BRANCH  17  26
ATOM     26  O   UNL     1      88.452  47.987  41.999  0.00  0.00    -0.494 OA
ATOM     27  C   UNL     1      89.833  47.651  42.109  0.00  0.00    +0.079 C 
ENDBRANCH  17  26
ENDBRANCH  11  13
BRANCH   1  29
ATOM     28  C   UNL     1      85.185  53.837  40.092  0.00  0.00    +0.079 C 
ATOM     29  O   UNL     1      85.215  53.109  41.315  0.00  0.00    -0.494 OA
ENDBRANCH   1  29
BRANCH  10  30
ATOM     30  O   UNL     1      87.154  52.936  45.813  0.00  0.00    -0.494 OA
ATOM     31  C   UNL     1      86.813  51.786  46.581  0.00  0.00    +0.079 C 
ENDBRANCH  10  30
TORSDOF 5
ENDMDL
MODEL 8
REMARK VINA RESULT:    -8.334      3.030      7.606
REMARK INTER + INTRA:         -11.430
REMARK INTER:                 -10.203
REMARK INTRA:                  -1.226
REMARK UNBOUND:                -0.659
REMARK  Name = 
REMARK  12 active torsions:
REMARK  status: ('A' for Active; 'I' for Inactive)
REMARK    1  A    between atoms: C_1  and  O_2
REMARK    2  A    between atoms: O_2  and  C_3
REMARK    3  A    between atoms: C_7  and  C_8
REMARK    4  A    between atoms: C_10  and  C_31
REMARK    5  A    between atoms: C_12  and  O_29
REMARK    6  A    between atoms: C_13  and  C_14
REMARK    7  A    between atoms: C_15  and  C_16
REMARK    8  A    between atoms: C_18  and  O_27
REMARK    9  A    between atoms: C_24  and  O_25
REMARK   10  A    between atoms: O_25  and  C_26
REMARK   11  A    between atoms: O_27  and  C_28
REMARK   12  A    between atoms: O_29  and  C_30
REMARK                            x       y       z     vdW  Elec       q    Type
REMARK                         _______ _______ _______ _____ _____    ______ ____
ROOT
ATOM      1  C   UNL     1      88.346  49.106  43.217  0.00  0.00    +0.132 A 
ATOM      2  C   UNL     1      88.622  47.802  42.783  0.00  0.00    -0.015 A 
ATOM      3  C   UNL     1      87.715  46.766  43.016  0.00  0.00    -0.030 A 
ATOM      4  C   UNL     1      88.054  45.364  42.577  0.00  0.00    -0.005 C 
ATOM      5  C   UNL     1      86.763  44.605  42.229  0.00  0.00    +0.052 C 
ATOM      6  C   UNL     1      87.044  43.127  41.961  0.00  0.00    -0.042 C 
ATOM      7  N   UNL     1      85.798  44.732  43.322  0.00  0.00    -0.284 NA
ATOM      8  C   UNL     1      85.633  45.833  43.998  0.00  0.00    +0.044 C 
ATOM      9  C   UNL     1      86.518  47.011  43.720  0.00  0.00    +0.041 A 
ATOM     10  C   UNL     1      86.189  48.336  44.099  0.00  0.00    +0.140 A 
ATOM     11  C   UNL     1      87.125  49.380  43.863  0.00  0.00    +0.067 A 
ATOM     12  C   UNL     1      84.615  45.831  45.101  0.00  0.00    -0.022 C 
ENDROOT
BRANCH  11  13
ATOM     13  C   UNL     1      86.898  50.762  44.363  0.00  0.00    +0.000 A 
ATOM     14  C   UNL     1      87.191  51.072  45.709  0.00  0.00    -0.038 A 
ATOM     15  C   UNL     1      87.710  50.026  46.668  0.00  0.00    -0.039 C 
ATOM     16  C   UNL     1      86.956  52.362  46.190  0.00  0.00    -0.016 A 
ATOM     17  C   UNL     1      86.456  53.376  45.358  0.00  0.00    +0.132 A 
ATOM     18  C   UNL     1      86.154  53.087  44.003  0.00  0.00    +0.066 A 
ATOM     19  C   UNL     1      86.367  51.765  43.509  0.00  0.00    -0.003 A 
ATOM     20  C   UNL     1      86.037  51.472  42.168  0.00  0.00    -0.053 A 
ATOM     21  C   UNL     1      85.532  52.454  41.326  0.00  0.00    -0.058 A 
ATOM     22  C   UNL     1      85.338  53.747  41.794  0.00  0.00    -0.019 A 
ATOM     23  C   UNL     1      85.639  54.084  43.126  0.00  0.00    +0.131 A 
BRANCH  23  24
ATOM     24  O   UNL     1      85.435  55.395  43.593  0.00  0.00    -0.494 OA
ATOM     25  C   UNL     1      84.276  56.184  43.341  0.00  0.00    +0.079 C 
ENDBRANCH  23  24
BRANCH  17  26
ATOM     26  O   UNL     1      86.244  54.673  45.862  0.00  0.00    -0.494 OA
ATOM     27  C   UNL     1      86.042  54.999  47.234  0.00  0.00    +0.079 C 
ENDBRANCH  17  26
ENDBRANCH  11  13
BRANCH   1  29
ATOM     28  C   UNL     1      89.669  50.666  41.768  0.00  0.00    +0.079 C 
ATOM     29  O   UNL     1      89.264  50.154  43.033  0.00  0.00    -0.494 OA
ENDBRANCH   1  29
BRANCH  10  30
ATOM     30  O   UNL     1      84.941  48.564  44.707  0.00  0.00    -0.494 OA
ATOM     31  C   UNL     1      83.788  49.105  44.068  0.00  0.00    +0.079 C 
ENDBRANCH  10  30
TORSDOF 5
ENDMDL
MODEL 9
REMARK VINA RESULT:    -7.714      2.642      7.534
REMARK INTER + INTRA:         -10.628
REMARK INTER:                  -9.969
REMARK INTRA:                  -0.659
REMARK UNBOUND:                -0.659
REMARK  Name = 
REMARK  12 active torsions:
REMARK  status: ('A' for Active; 'I' for Inactive)
REMARK    1  A    between atoms: C_1  and  O_2
REMARK    2  A    between atoms: O_2  and  C_3
REMARK    3  A    between atoms: C_7  and  C_8
REMARK    4  A    between atoms: C_10  and  C_31
REMARK    5  A    between atoms: C_12  and  O_29
REMARK    6  A    between atoms: C_13  and  C_14
REMARK    7  A    between atoms: C_15  and  C_16
REMARK    8  A    between atoms: C_18  and  O_27
REMARK    9  A    between atoms: C_24  and  O_25
REMARK   10  A    between atoms: O_25  and  C_26
REMARK   11  A    between atoms: O_27  and  C_28
REMARK   12  A    between atoms: O_29  and  C_30
REMARK                            x       y       z     vdW  Elec       q    Type
REMARK                         _______ _______ _______ _____ _____    ______ ____
ROOT
ATOM      1  C   UNL     1      86.250  50.453  44.942  0.00  0.00    +0.132 A 
ATOM      2  C   UNL     1      86.432  49.084  44.705  0.00  0.00    -0.015 A 
ATOM      3  C   UNL     1      85.358  48.276  44.329  0.00  0.00    -0.030 A 
ATOM      4  C   UNL     1      85.571  46.797  44.121  0.00  0.00    -0.005 C 
ATOM      5  C   UNL     1      84.588  46.277  43.060  0.00  0.00    +0.052 C 
ATOM      6  C   UNL     1      84.641  44.755  42.954  0.00  0.00    -0.042 C 
ATOM      7  N   UNL     1      83.226  46.701  43.389  0.00  0.00    -0.284 NA
ATOM      8  C   UNL     1      82.948  47.875  43.881  0.00  0.00    +0.044 C 
ATOM      9  C   UNL     1      84.062  48.821  44.211  0.00  0.00    +0.041 A 
ATOM     10  C   UNL     1      83.874  50.216  44.374  0.00  0.00    +0.140 A 
ATOM     11  C   UNL     1      84.976  51.026  44.765  0.00  0.00    +0.067 A 
ATOM     12  C   UNL     1      81.511  48.184  44.182  0.00  0.00    -0.022 C 
ENDROOT
BRANCH  11  13
ATOM     13  C   UNL     1      84.811  52.469  45.086  0.00  0.00    +0.000 A 
ATOM     14  C   UNL     1      84.612  52.863  46.427  0.00  0.00    -0.038 A 
ATOM     15  C   UNL     1      84.537  51.854  47.548  0.00  0.00    -0.039 C 
ATOM     16  C   UNL     1      84.432  54.215  46.731  0.00  0.00    -0.016 A 
ATOM     17  C   UNL     1      84.469  55.204  45.736  0.00  0.00    +0.132 A 
ATOM     18  C   UNL     1      84.668  54.829  44.382  0.00  0.00    +0.066 A 
ATOM     19  C   UNL     1      84.827  53.448  44.058  0.00  0.00    -0.003 A 
ATOM     20  C   UNL     1      84.994  53.075  42.707  0.00  0.00    -0.053 A 
ATOM     21  C   UNL     1      85.026  54.032  41.701  0.00  0.00    -0.058 A 
ATOM     22  C   UNL     1      84.889  55.378  42.009  0.00  0.00    -0.019 A 
ATOM     23  C   UNL     1      84.706  55.799  43.340  0.00  0.00    +0.131 A 
BRANCH  23  24
ATOM     24  O   UNL     1      84.564  57.165  43.643  0.00  0.00    -0.494 OA
ATOM     25  C   UNL     1      85.640  58.082  43.816  0.00  0.00    +0.079 C 
ENDBRANCH  23  24
BRANCH  17  26
ATOM     26  O   UNL     1      84.303  56.560  46.070  0.00  0.00    -0.494 OA
ATOM     27  C   UNL     1      83.615  57.045  47.220  0.00  0.00    +0.079 C 
ENDBRANCH  17  26
ENDBRANCH  11  13
BRANCH   1  29
ATOM     28  C   UNL     1      87.952  51.184  46.631  0.00  0.00    +0.079 C 
ATOM     29  O   UNL     1      87.309  51.275  45.365  0.00  0.00    -0.494 OA
ENDBRANCH   1  29
BRANCH  10  30
ATOM     30  O   UNL     1      82.590  50.746  44.148  0.00  0.00    -0.494 OA
ATOM     31  C   UNL     1      82.109  51.266  42.913  0.00  0.00    +0.079 C 
ENDBRANCH  10  30
TORSDOF 5
ENDMDL
