MODEL 1
REMARK VINA RESULT:    -9.552      0.000      0.000
REMARK INTER + INTRA:         -13.594
REMARK INTER:                 -11.964
REMARK INTRA:                  -1.630
REMARK UNBOUND:                -1.250
REMARK  Name = 
REMARK  13 active torsions:
REMARK  status: ('A' for Active; 'I' for Inactive)
REMARK    1  A    between atoms: C_1  and  O_2
REMARK    2  A    between atoms: O_2  and  C_3
REMARK    3  A    between atoms: C_5  and  O_6
REMARK    4  A    between atoms: O_6  and  C_7
REMARK    5  A    between atoms: C_10  and  C_11
REMARK    6  A    between atoms: C_12  and  C_13
REMARK    7  A    between atoms: C_15  and  O_24
REMARK    8  A    between atoms: C_21  and  O_22
REMARK    9  A    between atoms: O_22  and  C_23
REMARK   10  A    between atoms: O_24  and  C_25
REMARK   11  A    between atoms: C_27  and  C_32
REMARK   12  A    between atoms: N_28  and  C_31
REMARK   13  A    between atoms: C_29  and  C_30
REMARK                            x       y       z     vdW  Elec       q    Type
REMARK                         _______ _______ _______ _____ _____    ______ ____
ROOT
ATOM      1  C   UNL     1      87.984  49.523  43.029  0.00  0.00    +0.132 A 
ATOM      2  C   UNL     1      88.117  48.227  42.511  0.00  0.00    +0.023 A 
ATOM      3  C   UNL     1      87.099  47.274  42.680  0.00  0.00    +0.129 A 
ATOM      4  C   UNL     1      85.919  47.625  43.372  0.00  0.00    +0.015 A 
ATOM      5  C   UNL     1      85.754  48.941  43.839  0.00  0.00    -0.027 A 
ATOM      6  C   UNL     1      86.803  49.880  43.699  0.00  0.00    +0.028 A 
ATOM      7  C   UNL     1      84.451  49.314  44.486  0.00  0.00    -0.011 C 
ATOM      8  C   UNL     1      83.308  48.523  43.838  0.00  0.00    +0.012 C 
ATOM      9  N   UNL     1      83.521  47.074  44.077  0.00  0.00    -0.296 N 
ATOM     10  C   UNL     1      84.857  46.556  43.651  0.00  0.00    +0.037 C 
ATOM     11  C   UNL     1      85.374  45.624  44.754  0.00  0.00    -0.045 C 
ATOM     12  C   UNL     1      82.443  46.255  43.483  0.00  0.00    -0.012 C 
ATOM     13  C   UNL     1      81.975  49.009  44.439  0.00  0.00    -0.049 C 
ATOM     14  H   UNL     1      83.496  46.983  45.092  0.00  0.00    +0.000 HD
ENDROOT
BRANCH   6  15
ATOM     15  C   UNL     1      86.681  51.256  44.251  0.00  0.00    -0.003 A 
ATOM     16  C   UNL     1      87.088  51.505  45.576  0.00  0.00    -0.039 A 
ATOM     17  C   UNL     1      87.645  50.400  46.441  0.00  0.00    -0.039 C 
ATOM     18  C   UNL     1      86.963  52.791  46.109  0.00  0.00    -0.016 A 
ATOM     19  C   UNL     1      86.447  53.854  45.349  0.00  0.00    +0.132 A 
ATOM     20  C   UNL     1      86.038  53.624  44.009  0.00  0.00    +0.066 A 
ATOM     21  C   UNL     1      86.159  52.313  43.461  0.00  0.00    -0.003 A 
ATOM     22  C   UNL     1      85.746  52.081  42.132  0.00  0.00    -0.053 A 
ATOM     23  C   UNL     1      85.232  53.111  41.355  0.00  0.00    -0.058 A 
ATOM     24  C   UNL     1      85.115  54.392  41.878  0.00  0.00    -0.019 A 
ATOM     25  C   UNL     1      85.509  54.670  43.201  0.00  0.00    +0.131 A 
BRANCH  25  26
ATOM     26  O   UNL     1      85.382  55.969  43.725  0.00  0.00    -0.494 OA
ATOM     27  C   UNL     1      84.222  56.786  43.619  0.00  0.00    +0.079 C 
ENDBRANCH  25  26
BRANCH  19  28
ATOM     28  O   UNL     1      86.332  55.140  45.904  0.00  0.00    -0.494 OA
ATOM     29  C   UNL     1      86.061  55.423  47.274  0.00  0.00    +0.079 C 
ENDBRANCH  19  28
ENDBRANCH   6  15
BRANCH   1  31
ATOM     30  C   UNL     1      89.406  51.071  41.662  0.00  0.00    +0.079 C 
ATOM     31  O   UNL     1      89.000  50.485  42.895  0.00  0.00    -0.494 OA
ENDBRANCH   1  31
BRANCH   3  32
ATOM     32  O   UNL     1      87.226  45.969  42.171  0.00  0.00    -0.495 OA
ATOM     33  C   UNL     1      88.300  45.082  42.463  0.00  0.00    +0.079 C 
ENDBRANCH   3  32
TORSDOF 5
ENDMDL
MODEL 2
REMARK VINA RESULT:    -8.654      1.390      2.971
REMARK INTER + INTRA:         -12.433
REMARK INTER:                 -11.076
REMARK INTRA:                  -1.357
REMARK UNBOUND:                -1.250
REMARK  Name = 
REMARK  13 active torsions:
REMARK  status: ('A' for Active; 'I' for Inactive)
REMARK    1  A    between atoms: C_1  and  O_2
REMARK    2  A    between atoms: O_2  and  C_3
REMARK    3  A    between atoms: C_5  and  O_6
REMARK    4  A    between atoms: O_6  and  C_7
REMARK    5  A    between atoms: C_10  and  C_11
REMARK    6  A    between atoms: C_12  and  C_13
REMARK    7  A    between atoms: C_15  and  O_24
REMARK    8  A    between atoms: C_21  and  O_22
REMARK    9  A    between atoms: O_22  and  C_23
REMARK   10  A    between atoms: O_24  and  C_25
REMARK   11  A    between atoms: C_27  and  C_32
REMARK   12  A    between atoms: N_28  and  C_31
REMARK   13  A    between atoms: C_29  and  C_30
REMARK                            x       y       z     vdW  Elec       q    Type
REMARK                         _______ _______ _______ _____ _____    ______ ____
ROOT
ATOM      1  C   UNL     1      87.409  50.626  43.140  0.00  0.00    +0.132 A 
ATOM      2  C   UNL     1      87.855  49.403  42.618  0.00  0.00    +0.023 A 
ATOM      3  C   UNL     1      87.062  48.247  42.709  0.00  0.00    +0.129 A 
ATOM      4  C   UNL     1      85.794  48.315  43.325  0.00  0.00    +0.015 A 
ATOM      5  C   UNL     1      85.315  49.552  43.794  0.00  0.00    -0.027 A 
ATOM      6  C   UNL     1      86.140  50.700  43.733  0.00  0.00    +0.028 A 
ATOM      7  C   UNL     1      83.925  49.615  44.357  0.00  0.00    -0.011 C 
ATOM      8  C   UNL     1      83.025  48.611  43.627  0.00  0.00    +0.012 C 
ATOM      9  N   UNL     1      83.535  47.238  43.864  0.00  0.00    -0.296 N 
ATOM     10  C   UNL     1      84.977  47.034  43.522  0.00  0.00    +0.037 C 
ATOM     11  C   UNL     1      85.615  46.210  44.647  0.00  0.00    -0.045 C 
ATOM     12  C   UNL     1      82.702  46.218  43.192  0.00  0.00    -0.012 C 
ATOM     13  C   UNL     1      81.583  48.780  44.143  0.00  0.00    -0.049 C 
ATOM     14  H   UNL     1      83.467  47.118  44.874  0.00  0.00    +0.000 HD
ENDROOT
BRANCH   6  15
ATOM     15  C   UNL     1      85.685  52.002  44.290  0.00  0.00    -0.003 A 
ATOM     16  C   UNL     1      85.138  52.969  43.423  0.00  0.00    -0.039 A 
ATOM     17  C   UNL     1      85.007  52.702  41.943  0.00  0.00    -0.039 C 
ATOM     18  C   UNL     1      84.720  54.201  43.934  0.00  0.00    -0.016 A 
ATOM     19  C   UNL     1      84.825  54.501  45.302  0.00  0.00    +0.132 A 
ATOM     20  C   UNL     1      85.366  53.537  46.193  0.00  0.00    +0.066 A 
ATOM     21  C   UNL     1      85.798  52.280  45.677  0.00  0.00    -0.003 A 
ATOM     22  C   UNL     1      86.343  51.324  46.559  0.00  0.00    -0.053 A 
ATOM     23  C   UNL     1      86.458  51.591  47.918  0.00  0.00    -0.058 A 
ATOM     24  C   UNL     1      86.037  52.811  48.430  0.00  0.00    -0.019 A 
ATOM     25  C   UNL     1      85.491  53.797  47.587  0.00  0.00    +0.131 A 
BRANCH  25  26
ATOM     26  O   UNL     1      85.071  55.032  48.113  0.00  0.00    -0.494 OA
ATOM     27  C   UNL     1      83.899  55.234  48.896  0.00  0.00    +0.079 C 
ENDBRANCH  25  26
BRANCH  19  28
ATOM     28  O   UNL     1      84.397  55.747  45.795  0.00  0.00    -0.494 OA
ATOM     29  C   UNL     1      84.708  57.011  45.216  0.00  0.00    +0.079 C 
ENDBRANCH  19  28
ENDBRANCH   6  15
BRANCH   1  31
ATOM     30  C   UNL     1      88.715  52.361  41.887  0.00  0.00    +0.079 C 
ATOM     31  O   UNL     1      88.196  51.789  43.083  0.00  0.00    -0.494 OA
ENDBRANCH   1  31
BRANCH   3  32
ATOM     32  O   UNL     1      87.504  47.014  42.196  0.00  0.00    -0.495 OA
ATOM     33  C   UNL     1      88.809  46.477  42.377  0.00  0.00    +0.079 C 
ENDBRANCH   3  32
TORSDOF 5
ENDMDL
MODEL 3
REMARK VINA RESULT:    -8.611      2.128      7.346
REMARK INTER + INTRA:         -12.378
REMARK INTER:                 -11.013
REMARK INTRA:                  -1.365
REMARK UNBOUND:                -1.250
REMARK  Name = 
REMARK  13 active torsions:
REMARK  status: ('A' for Active; 'I' for Inactive)
REMARK    1  A    between atoms: C_1  and  O_2
REMARK    2  A    between atoms: O_2  and  C_3
REMARK    3  A    between atoms: C_5  and  O_6
REMARK    4  A    between atoms: O_6  and  C_7
REMARK    5  A    between atoms: C_10  and  C_11
REMARK    6  A    between atoms: C_12  and  C_13
REMARK    7  A    between atoms: C_15  and  O_24
REMARK    8  A    between atoms: C_21  and  O_22
REMARK    9  A    between atoms: O_22  and  C_23
REMARK   10  A    between atoms: O_24  and  C_25
REMARK   11  A    between atoms: C_27  and  C_32
REMARK   12  A    between atoms: N_28  and  C_31
REMARK   13  A    between atoms: C_29  and  C_30
REMARK                            x       y       z     vdW  Elec       q    Type
REMARK                         _______ _______ _______ _____ _____    ______ ____
ROOT
ATOM      1  C   UNL     1      86.178  51.395  46.427  0.00  0.00    +0.132 A 
ATOM      2  C   UNL     1      86.261  52.655  47.038  0.00  0.00    +0.023 A 
ATOM      3  C   UNL     1      86.017  53.830  46.307  0.00  0.00    +0.129 A 
ATOM      4  C   UNL     1      85.672  53.744  44.940  0.00  0.00    +0.015 A 
ATOM      5  C   UNL     1      85.525  52.481  44.339  0.00  0.00    -0.027 A 
ATOM      6  C   UNL     1      85.814  51.308  45.075  0.00  0.00    +0.028 A 
ATOM      7  C   UNL     1      85.063  52.416  42.912  0.00  0.00    -0.011 C 
ATOM      8  C   UNL     1      84.104  53.577  42.626  0.00  0.00    +0.012 C 
ATOM      9  N   UNL     1      84.828  54.861  42.797  0.00  0.00    -0.296 N 
ATOM     10  C   UNL     1      85.512  55.026  44.117  0.00  0.00    +0.037 C 
ATOM     11  C   UNL     1      86.901  55.620  43.855  0.00  0.00    -0.045 C 
ATOM     12  C   UNL     1      83.957  56.024  42.525  0.00  0.00    -0.012 C 
ATOM     13  C   UNL     1      83.557  53.420  41.194  0.00  0.00    -0.049 C 
ATOM     14  H   UNL     1      85.570  54.824  42.100  0.00  0.00    +0.000 HD
ENDROOT
BRANCH   6  15
ATOM     15  C   UNL     1      85.738  49.965  44.440  0.00  0.00    -0.003 A 
ATOM     16  C   UNL     1      84.488  49.323  44.334  0.00  0.00    -0.039 A 
ATOM     17  C   UNL     1      83.231  49.975  44.853  0.00  0.00    -0.039 C 
ATOM     18  C   UNL     1      84.409  48.054  43.751  0.00  0.00    -0.016 A 
ATOM     19  C   UNL     1      85.549  47.401  43.257  0.00  0.00    +0.132 A 
ATOM     20  C   UNL     1      86.816  48.035  43.348  0.00  0.00    +0.066 A 
ATOM     21  C   UNL     1      86.905  49.327  43.945  0.00  0.00    -0.003 A 
ATOM     22  C   UNL     1      88.164  49.956  44.043  0.00  0.00    -0.053 A 
ATOM     23  C   UNL     1      89.310  49.335  43.562  0.00  0.00    -0.058 A 
ATOM     24  C   UNL     1      89.233  48.079  42.975  0.00  0.00    -0.019 A 
ATOM     25  C   UNL     1      87.999  47.411  42.860  0.00  0.00    +0.131 A 
BRANCH  25  26
ATOM     26  O   UNL     1      87.931  46.137  42.269  0.00  0.00    -0.494 OA
ATOM     27  C   UNL     1      88.608  44.976  42.740  0.00  0.00    +0.079 C 
ENDBRANCH  25  26
BRANCH  19  28
ATOM     28  O   UNL     1      85.446  46.126  42.673  0.00  0.00    -0.494 OA
ATOM     29  C   UNL     1      84.652  45.054  43.175  0.00  0.00    +0.079 C 
ENDBRANCH  19  28
ENDBRANCH   6  15
BRANCH   1  31
ATOM     30  C   UNL     1      87.510  50.037  48.061  0.00  0.00    +0.079 C 
ATOM     31  O   UNL     1      86.444  50.209  47.132  0.00  0.00    -0.494 OA
ENDBRANCH   1  31
BRANCH   3  32
ATOM     32  O   UNL     1      86.106  55.098  46.907  0.00  0.00    -0.495 OA
ATOM     33  C   UNL     1      85.046  55.747  47.601  0.00  0.00    +0.079 C 
ENDBRANCH   3  32
TORSDOF 5
ENDMDL
MODEL 4
REMARK VINA RESULT:    -8.368      2.069      7.249
REMARK INTER + INTRA:         -12.064
REMARK INTER:                 -10.627
REMARK INTRA:                  -1.437
REMARK UNBOUND:                -1.250
REMARK  Name = 
REMARK  13 active torsions:
REMARK  status: ('A' for Active; 'I' for Inactive)
REMARK    1  A    between atoms: C_1  and  O_2
REMARK    2  A    between atoms: O_2  and  C_3
REMARK    3  A    between atoms: C_5  and  O_6
REMARK    4  A    between atoms: O_6  and  C_7
REMARK    5  A    between atoms: C_10  and  C_11
REMARK    6  A    between atoms: C_12  and  C_13
REMARK    7  A    between atoms: C_15  and  O_24
REMARK    8  A    between atoms: C_21  and  O_22
REMARK    9  A    between atoms: O_22  and  C_23
REMARK   10  A    between atoms: O_24  and  C_25
REMARK   11  A    between atoms: C_27  and  C_32
REMARK   12  A    between atoms: N_28  and  C_31
REMARK   13  A    between atoms: C_29  and  C_30
REMARK                            x       y       z     vdW  Elec       q    Type
REMARK                         _______ _______ _______ _____ _____    ______ ____
ROOT
ATOM      1  C   UNL     1      86.263  51.278  46.371  0.00  0.00    +0.132 A 
ATOM      2  C   UNL     1      86.104  52.522  46.998  0.00  0.00    +0.023 A 
ATOM      3  C   UNL     1      85.776  53.668  46.256  0.00  0.00    +0.129 A 
ATOM      4  C   UNL     1      85.592  53.569  44.859  0.00  0.00    +0.015 A 
ATOM      5  C   UNL     1      85.689  52.312  44.234  0.00  0.00    -0.027 A 
ATOM      6  C   UNL     1      86.060  51.173  44.986  0.00  0.00    +0.028 A 
ATOM      7  C   UNL     1      85.394  52.218  42.765  0.00  0.00    -0.011 C 
ATOM      8  C   UNL     1      84.317  53.242  42.388  0.00  0.00    +0.012 C 
ATOM      9  N   UNL     1      84.831  54.609  42.648  0.00  0.00    -0.296 N 
ATOM     10  C   UNL     1      85.342  54.836  44.035  0.00  0.00    +0.037 C 
ATOM     11  C   UNL     1      86.654  55.623  43.930  0.00  0.00    -0.045 C 
ATOM     12  C   UNL     1      83.839  55.647  42.294  0.00  0.00    -0.012 C 
ATOM     13  C   UNL     1      83.952  53.044  40.904  0.00  0.00    -0.049 C 
ATOM     14  H   UNL     1      85.641  54.692  42.034  0.00  0.00    +0.000 HD
ENDROOT
BRANCH   6  15
ATOM     15  C   UNL     1      86.241  49.848  44.335  0.00  0.00    -0.003 A 
ATOM     16  C   UNL     1      87.531  49.453  43.925  0.00  0.00    -0.039 A 
ATOM     17  C   UNL     1      88.725  50.349  44.139  0.00  0.00    -0.039 C 
ATOM     18  C   UNL     1      87.709  48.216  43.299  0.00  0.00    -0.016 A 
ATOM     19  C   UNL     1      86.630  47.346  43.071  0.00  0.00    +0.132 A 
ATOM     20  C   UNL     1      85.325  47.724  43.483  0.00  0.00    +0.066 A 
ATOM     21  C   UNL     1      85.135  48.986  44.119  0.00  0.00    -0.003 A 
ATOM     22  C   UNL     1      83.838  49.367  44.522  0.00  0.00    -0.053 A 
ATOM     23  C   UNL     1      82.751  48.527  44.313  0.00  0.00    -0.058 A 
ATOM     24  C   UNL     1      82.927  47.294  43.698  0.00  0.00    -0.019 A 
ATOM     25  C   UNL     1      84.201  46.875  43.274  0.00  0.00    +0.131 A 
BRANCH  25  26
ATOM     26  O   UNL     1      84.369  45.626  42.648  0.00  0.00    -0.494 OA
ATOM     27  C   UNL     1      84.277  44.364  43.299  0.00  0.00    +0.079 C 
ENDBRANCH  25  26
BRANCH  19  28
ATOM     28  O   UNL     1      86.832  46.105  42.441  0.00  0.00    -0.494 OA
ATOM     29  C   UNL     1      87.959  45.257  42.639  0.00  0.00    +0.079 C 
ENDBRANCH  19  28
ENDBRANCH   6  15
BRANCH   1  31
ATOM     30  C   UNL     1      87.670  50.053  48.046  0.00  0.00    +0.079 C 
ATOM     31  O   UNL     1      86.617  50.123  47.090  0.00  0.00    -0.494 OA
ENDBRANCH   1  31
BRANCH   3  32
ATOM     32  O   UNL     1      85.622  54.922  46.874  0.00  0.00    -0.495 OA
ATOM     33  C   UNL     1      84.487  55.322  47.634  0.00  0.00    +0.079 C 
ENDBRANCH   3  32
TORSDOF 5
ENDMDL
MODEL 5
REMARK VINA RESULT:    -8.331      2.442      7.088
REMARK INTER + INTRA:         -12.017
REMARK INTER:                 -10.679
REMARK INTRA:                  -1.338
REMARK UNBOUND:                -1.250
REMARK  Name = 
REMARK  13 active torsions:
REMARK  status: ('A' for Active; 'I' for Inactive)
REMARK    1  A    between atoms: C_1  and  O_2
REMARK    2  A    between atoms: O_2  and  C_3
REMARK    3  A    between atoms: C_5  and  O_6
REMARK    4  A    between atoms: O_6  and  C_7
REMARK    5  A    between atoms: C_10  and  C_11
REMARK    6  A    between atoms: C_12  and  C_13
REMARK    7  A    between atoms: C_15  and  O_24
REMARK    8  A    between atoms: C_21  and  O_22
REMARK    9  A    between atoms: O_22  and  C_23
REMARK   10  A    between atoms: O_24  and  C_25
REMARK   11  A    between atoms: C_27  and  C_32
REMARK   12  A    between atoms: N_28  and  C_31
REMARK   13  A    between atoms: C_29  and  C_30
REMARK                            x       y       z     vdW  Elec       q    Type
REMARK                         _______ _______ _______ _____ _____    ______ ____
ROOT
ATOM      1  C   UNL     1      85.805  52.729  42.871  0.00  0.00    +0.132 A 
ATOM      2  C   UNL     1      86.061  54.108  42.826  0.00  0.00    +0.023 A 
ATOM      3  C   UNL     1      85.934  54.904  43.976  0.00  0.00    +0.129 A 
ATOM      4  C   UNL     1      85.553  54.310  45.199  0.00  0.00    +0.015 A 
ATOM      5  C   UNL     1      85.357  52.919  45.264  0.00  0.00    -0.027 A 
ATOM      6  C   UNL     1      85.448  52.134  44.091  0.00  0.00    +0.028 A 
ATOM      7  C   UNL     1      85.047  52.300  46.597  0.00  0.00    -0.011 C 
ATOM      8  C   UNL     1      85.761  53.081  47.707  0.00  0.00    +0.012 C 
ATOM      9  N   UNL     1      85.244  54.472  47.735  0.00  0.00    -0.296 N 
ATOM     10  C   UNL     1      85.309  55.194  46.427  0.00  0.00    +0.037 C 
ATOM     11  C   UNL     1      83.985  55.944  46.238  0.00  0.00    -0.045 C 
ATOM     12  C   UNL     1      85.888  55.277  48.795  0.00  0.00    -0.012 C 
ATOM     13  C   UNL     1      85.522  52.358  49.047  0.00  0.00    -0.049 C 
ATOM     14  H   UNL     1      84.253  54.364  47.947  0.00  0.00    +0.000 HD
ENDROOT
BRANCH   6  15
ATOM     15  C   UNL     1      85.171  50.673  44.121  0.00  0.00    -0.003 A 
ATOM     16  C   UNL     1      86.220  49.780  44.417  0.00  0.00    -0.039 A 
ATOM     17  C   UNL     1      87.613  50.282  44.704  0.00  0.00    -0.039 C 
ATOM     18  C   UNL     1      85.973  48.404  44.433  0.00  0.00    -0.016 A 
ATOM     19  C   UNL     1      84.696  47.884  44.168  0.00  0.00    +0.132 A 
ATOM     20  C   UNL     1      83.625  48.769  43.875  0.00  0.00    +0.066 A 
ATOM     21  C   UNL     1      83.871  50.173  43.852  0.00  0.00    -0.003 A 
ATOM     22  C   UNL     1      82.810  51.053  43.553  0.00  0.00    -0.053 A 
ATOM     23  C   UNL     1      81.535  50.569  43.288  0.00  0.00    -0.058 A 
ATOM     24  C   UNL     1      81.285  49.203  43.311  0.00  0.00    -0.019 A 
ATOM     25  C   UNL     1      82.314  48.287  43.599  0.00  0.00    +0.131 A 
BRANCH  25  26
ATOM     26  O   UNL     1      82.053  46.905  43.617  0.00  0.00    -0.494 OA
ATOM     27  C   UNL     1      80.969  46.284  44.299  0.00  0.00    +0.079 C 
ENDBRANCH  25  26
BRANCH  19  28
ATOM     28  O   UNL     1      84.470  46.496  44.191  0.00  0.00    -0.494 OA
ATOM     29  C   UNL     1      85.386  45.523  44.685  0.00  0.00    +0.079 C 
ENDBRANCH  19  28
ENDBRANCH   6  15
BRANCH   1  31
ATOM     30  C   UNL     1      87.116  51.599  41.057  0.00  0.00    +0.079 C 
ATOM     31  O   UNL     1      85.901  51.918  41.727  0.00  0.00    -0.494 OA
ENDBRANCH   1  31
BRANCH   3  32
ATOM     32  O   UNL     1      86.180  56.288  43.940  0.00  0.00    -0.495 OA
ATOM     33  C   UNL     1      85.256  57.267  43.478  0.00  0.00    +0.079 C 
ENDBRANCH   3  32
TORSDOF 5
ENDMDL
MODEL 6
REMARK VINA RESULT:    -7.691      1.922      3.656
REMARK INTER + INTRA:         -11.190
REMARK INTER:                  -9.665
REMARK INTRA:                  -1.525
REMARK UNBOUND:                -1.250
REMARK  Name = 
REMARK  13 active torsions:
REMARK  status: ('A' for Active; 'I' for Inactive)
REMARK    1  A    between atoms: C_1  and  O_2
REMARK    2  A    between atoms: O_2  and  C_3
REMARK    3  A    between atoms: C_5  and  O_6
REMARK    4  A    between atoms: O_6  and  C_7
REMARK    5  A    between atoms: C_10  and  C_11
REMARK    6  A    between atoms: C_12  and  C_13
REMARK    7  A    between atoms: C_15  and  O_24
REMARK    8  A    between atoms: C_21  and  O_22
REMARK    9  A    between atoms: O_22  and  C_23
REMARK   10  A    between atoms: O_24  and  C_25
REMARK   11  A    between atoms: C_27  and  C_32
REMARK   12  A    between atoms: N_28  and  C_31
REMARK   13  A    between atoms: C_29  and  C_30
REMARK                            x       y       z     vdW  Elec       q    Type
REMARK                         _______ _______ _______ _____ _____    ______ ____
ROOT
ATOM      1  C   UNL     1      85.093  48.907  44.446  0.00  0.00    +0.132 A 
ATOM      2  C   UNL     1      85.007  47.542  44.132  0.00  0.00    +0.023 A 
ATOM      3  C   UNL     1      86.113  46.851  43.609  0.00  0.00    +0.129 A 
ATOM      4  C   UNL     1      87.332  47.532  43.406  0.00  0.00    +0.015 A 
ATOM      5  C   UNL     1      87.442  48.885  43.777  0.00  0.00    -0.027 A 
ATOM      6  C   UNL     1      86.311  49.580  44.264  0.00  0.00    +0.028 A 
ATOM      7  C   UNL     1      88.777  49.559  43.641  0.00  0.00    -0.011 C 
ATOM      8  C   UNL     1      89.897  48.544  43.896  0.00  0.00    +0.012 C 
ATOM      9  N   UNL     1      89.834  47.478  42.866  0.00  0.00    -0.296 N 
ATOM     10  C   UNL     1      88.504  46.807  42.736  0.00  0.00    +0.037 C 
ATOM     11  C   UNL     1      88.198  46.654  41.241  0.00  0.00    -0.045 C 
ATOM     12  C   UNL     1      90.899  46.469  43.051  0.00  0.00    -0.012 C 
ATOM     13  C   UNL     1      91.247  49.286  43.864  0.00  0.00    -0.049 C 
ATOM     14  H   UNL     1      89.985  47.972  41.987  0.00  0.00    +0.000 HD
ENDROOT
BRANCH   6  15
ATOM     15  C   UNL     1      86.383  51.029  44.593  0.00  0.00    -0.003 A 
ATOM     16  C   UNL     1      86.827  51.423  45.871  0.00  0.00    -0.039 A 
ATOM     17  C   UNL     1      87.229  50.401  46.906  0.00  0.00    -0.039 C 
ATOM     18  C   UNL     1      86.886  52.782  46.195  0.00  0.00    -0.016 A 
ATOM     19  C   UNL     1      86.518  53.774  45.271  0.00  0.00    +0.132 A 
ATOM     20  C   UNL     1      86.075  53.396  43.976  0.00  0.00    +0.066 A 
ATOM     21  C   UNL     1      86.009  52.012  43.640  0.00  0.00    -0.003 A 
ATOM     22  C   UNL     1      85.562  51.634  42.357  0.00  0.00    -0.053 A 
ATOM     23  C   UNL     1      85.193  52.592  41.420  0.00  0.00    -0.058 A 
ATOM     24  C   UNL     1      85.258  53.943  41.737  0.00  0.00    -0.019 A 
ATOM     25  C   UNL     1      85.693  54.366  43.007  0.00  0.00    +0.131 A 
BRANCH  25  26
ATOM     26  O   UNL     1      85.751  55.736  43.320  0.00  0.00    -0.494 OA
ATOM     27  C   UNL     1      84.651  56.638  43.261  0.00  0.00    +0.079 C 
ENDBRANCH  25  26
BRANCH  19  28
ATOM     28  O   UNL     1      86.586  55.134  45.618  0.00  0.00    -0.494 OA
ATOM     29  C   UNL     1      86.145  55.690  46.854  0.00  0.00    +0.079 C 
ENDBRANCH  19  28
ENDBRANCH   6  15
BRANCH   1  31
ATOM     30  C   UNL     1      82.712  49.683  44.325  0.00  0.00    +0.079 C 
ATOM     31  O   UNL     1      83.993  49.625  44.945  0.00  0.00    -0.494 OA
ENDBRANCH   1  31
BRANCH   3  32
ATOM     32  O   UNL     1      86.035  45.485  43.284  0.00  0.00    -0.495 OA
ATOM     33  C   UNL     1      86.024  44.421  44.230  0.00  0.00    +0.079 C 
ENDBRANCH   3  32
TORSDOF 5
ENDMDL
MODEL 7
REMARK VINA RESULT:    -7.639      2.191      6.915
REMARK INTER + INTRA:         -11.121
REMARK INTER:                 -10.074
REMARK INTRA:                  -1.047
REMARK UNBOUND:                -1.250
REMARK  Name = 
REMARK  13 active torsions:
REMARK  status: ('A' for Active; 'I' for Inactive)
REMARK    1  A    between atoms: C_1  and  O_2
REMARK    2  A    between atoms: O_2  and  C_3
REMARK    3  A    between atoms: C_5  and  O_6
REMARK    4  A    between atoms: O_6  and  C_7
REMARK    5  A    between atoms: C_10  and  C_11
REMARK    6  A    between atoms: C_12  and  C_13
REMARK    7  A    between atoms: C_15  and  O_24
REMARK    8  A    between atoms: C_21  and  O_22
REMARK    9  A    between atoms: O_22  and  C_23
REMARK   10  A    between atoms: O_24  and  C_25
REMARK   11  A    between atoms: C_27  and  C_32
REMARK   12  A    between atoms: N_28  and  C_31
REMARK   13  A    between atoms: C_29  and  C_30
REMARK                            x       y       z     vdW  Elec       q    Type
REMARK                         _______ _______ _______ _____ _____    ______ ____
ROOT
ATOM      1  C   UNL     1      86.505  52.771  45.035  0.00  0.00    +0.132 A 
ATOM      2  C   UNL     1      86.153  54.107  45.279  0.00  0.00    +0.023 A 
ATOM      3  C   UNL     1      85.153  54.739  44.521  0.00  0.00    +0.129 A 
ATOM      4  C   UNL     1      84.484  54.020  43.506  0.00  0.00    +0.015 A 
ATOM      5  C   UNL     1      84.790  52.663  43.300  0.00  0.00    -0.027 A 
ATOM      6  C   UNL     1      85.827  52.049  44.041  0.00  0.00    +0.028 A 
ATOM      7  C   UNL     1      83.997  51.897  42.281  0.00  0.00    -0.011 C 
ATOM      8  C   UNL     1      82.560  52.431  42.236  0.00  0.00    +0.012 C 
ATOM      9  N   UNL     1      82.580  53.850  41.803  0.00  0.00    -0.296 N 
ATOM     10  C   UNL     1      83.472  54.740  42.608  0.00  0.00    +0.037 C 
ATOM     11  C   UNL     1      84.235  55.646  41.634  0.00  0.00    -0.045 C 
ATOM     12  C   UNL     1      81.219  54.422  41.730  0.00  0.00    -0.012 C 
ATOM     13  C   UNL     1      81.741  51.553  41.270  0.00  0.00    -0.049 C 
ATOM     14  H   UNL     1      82.986  53.819  40.868  0.00  0.00    +0.000 HD
ENDROOT
BRANCH   6  15
ATOM     15  C   UNL     1      86.218  50.636  43.790  0.00  0.00    -0.003 A 
ATOM     16  C   UNL     1      85.440  49.598  44.340  0.00  0.00    -0.039 A 
ATOM     17  C   UNL     1      84.221  49.897  45.177  0.00  0.00    -0.039 C 
ATOM     18  C   UNL     1      85.808  48.267  44.121  0.00  0.00    -0.016 A 
ATOM     19  C   UNL     1      86.936  47.934  43.354  0.00  0.00    +0.132 A 
ATOM     20  C   UNL     1      87.728  48.966  42.785  0.00  0.00    +0.066 A 
ATOM     21  C   UNL     1      87.361  50.326  43.008  0.00  0.00    -0.003 A 
ATOM     22  C   UNL     1      88.150  51.353  42.451  0.00  0.00    -0.053 A 
ATOM     23  C   UNL     1      89.272  51.056  41.686  0.00  0.00    -0.058 A 
ATOM     24  C   UNL     1      89.635  49.734  41.460  0.00  0.00    -0.019 A 
ATOM     25  C   UNL     1      88.880  48.676  42.001  0.00  0.00    +0.131 A 
BRANCH  25  26
ATOM     26  O   UNL     1      89.258  47.341  41.771  0.00  0.00    -0.494 OA
ATOM     27  C   UNL     1      90.402  46.704  42.330  0.00  0.00    +0.079 C 
ENDBRANCH  25  26
BRANCH  19  28
ATOM     28  O   UNL     1      87.287  46.588  43.145  0.00  0.00    -0.494 OA
ATOM     29  C   UNL     1      86.411  45.476  43.307  0.00  0.00    +0.079 C 
ENDBRANCH  19  28
ENDBRANCH   6  15
BRANCH   1  31
ATOM     30  C   UNL     1      87.309  51.357  46.944  0.00  0.00    +0.079 C 
ATOM     31  O   UNL     1      87.520  52.126  45.763  0.00  0.00    -0.494 OA
ENDBRANCH   1  31
BRANCH   3  32
ATOM     32  O   UNL     1      84.798  56.080  44.751  0.00  0.00    -0.495 OA
ATOM     33  C   UNL     1      84.302  56.591  45.984  0.00  0.00    +0.079 C 
ENDBRANCH   3  32
TORSDOF 5
ENDMDL
MODEL 8
REMARK VINA RESULT:    -7.535      1.982      7.103
REMARK INTER + INTRA:         -10.988
REMARK INTER:                  -9.640
REMARK INTRA:                  -1.347
REMARK UNBOUND:                -1.250
REMARK  Name = 
REMARK  13 active torsions:
REMARK  status: ('A' for Active; 'I' for Inactive)
REMARK    1  A    between atoms: C_1  and  O_2
REMARK    2  A    between atoms: O_2  and  C_3
REMARK    3  A    between atoms: C_5  and  O_6
REMARK    4  A    between atoms: O_6  and  C_7
REMARK    5  A    between atoms: C_10  and  C_11
REMARK    6  A    between atoms: C_12  and  C_13
REMARK    7  A    between atoms: C_15  and  O_24
REMARK    8  A    between atoms: C_21  and  O_22
REMARK    9  A    between atoms: O_22  and  C_23
REMARK   10  A    between atoms: O_24  and  C_25
REMARK   11  A    between atoms: C_27  and  C_32
REMARK   12  A    between atoms: N_28  and  C_31
REMARK   13  A    between atoms: C_29  and  C_30
REMARK                            x       y       z     vdW  Elec       q    Type
REMARK                         _______ _______ _______ _____ _____    ______ ____
ROOT
ATOM      1  C   UNL     1      85.856  52.402  42.806  0.00  0.00    +0.132 A 
ATOM      2  C   UNL     1      85.595  53.762  43.031  0.00  0.00    +0.023 A 
ATOM      3  C   UNL     1      85.398  54.254  44.332  0.00  0.00    +0.129 A 
ATOM      4  C   UNL     1      85.472  53.373  45.432  0.00  0.00    +0.015 A 
ATOM      5  C   UNL     1      85.795  52.020  45.218  0.00  0.00    -0.027 A 
ATOM      6  C   UNL     1      85.951  51.529  43.901  0.00  0.00    +0.028 A 
ATOM      7  C   UNL     1      85.963  51.126  46.412  0.00  0.00    -0.011 C 
ATOM      8  C   UNL     1      86.537  51.931  47.584  0.00  0.00    +0.012 C 
ATOM      9  N   UNL     1      85.575  52.996  47.962  0.00  0.00    -0.296 N 
ATOM     10  C   UNL     1      85.151  53.887  46.839  0.00  0.00    +0.037 C 
ATOM     11  C   UNL     1      83.636  54.097  46.952  0.00  0.00    -0.045 C 
ATOM     12  C   UNL     1      86.068  53.805  49.097  0.00  0.00    -0.012 C 
ATOM     13  C   UNL     1      86.808  50.967  48.755  0.00  0.00    -0.049 C 
ATOM     14  H   UNL     1      84.739  52.487  48.247  0.00  0.00    +0.000 HD
ENDROOT
BRANCH   6  15
ATOM     15  C   UNL     1      86.219  50.088  43.646  0.00  0.00    -0.003 A 
ATOM     16  C   UNL     1      87.539  49.668  43.387  0.00  0.00    -0.039 A 
ATOM     17  C   UNL     1      88.680  50.655  43.366  0.00  0.00    -0.039 C 
ATOM     18  C   UNL     1      87.799  48.319  43.132  0.00  0.00    -0.016 A 
ATOM     19  C   UNL     1      86.772  47.360  43.135  0.00  0.00    +0.132 A 
ATOM     20  C   UNL     1      85.437  47.763  43.400  0.00  0.00    +0.066 A 
ATOM     21  C   UNL     1      85.164  49.139  43.657  0.00  0.00    -0.003 A 
ATOM     22  C   UNL     1      83.837  49.542  43.914  0.00  0.00    -0.053 A 
ATOM     23  C   UNL     1      82.801  48.617  43.925  0.00  0.00    -0.058 A 
ATOM     24  C   UNL     1      83.057  47.274  43.680  0.00  0.00    -0.019 A 
ATOM     25  C   UNL     1      84.365  46.826  43.414  0.00  0.00    +0.131 A 
BRANCH  25  26
ATOM     26  O   UNL     1      84.615  45.465  43.162  0.00  0.00    -0.494 OA
ATOM     27  C   UNL     1      84.404  44.408  44.092  0.00  0.00    +0.079 C 
ENDBRANCH  25  26
BRANCH  19  28
ATOM     28  O   UNL     1      87.057  46.007  42.877  0.00  0.00    -0.494 OA
ATOM     29  C   UNL     1      88.314  45.501  42.438  0.00  0.00    +0.079 C 
ENDBRANCH  19  28
ENDBRANCH   6  15
BRANCH   1  31
ATOM     30  C   UNL     1      87.006  52.336  40.580  0.00  0.00    +0.079 C 
ATOM     31  O   UNL     1      86.030  51.882  41.512  0.00  0.00    -0.494 OA
ENDBRANCH   1  31
BRANCH   3  32
ATOM     32  O   UNL     1      85.129  55.614  44.567  0.00  0.00    -0.495 OA
ATOM     33  C   UNL     1      84.180  56.392  43.845  0.00  0.00    +0.079 C 
ENDBRANCH   3  32
TORSDOF 5
ENDMDL
MODEL 9
REMARK VINA RESULT:    -7.346      2.115      7.267
REMARK INTER + INTRA:         -10.743
REMARK INTER:                  -9.493
REMARK INTRA:                  -1.250
REMARK UNBOUND:                -1.250
REMARK  Name = 
REMARK  13 active torsions:
REMARK  status: ('A' for Active; 'I' for Inactive)
REMARK    1  A    between atoms: C_1  and  O_2
REMARK    2  A    between atoms: O_2  and  C_3
REMARK    3  A    between atoms: C_5  and  O_6
REMARK    4  A    between atoms: O_6  and  C_7
REMARK    5  A    between atoms: C_10  and  C_11
REMARK    6  A    between atoms: C_12  and  C_13
REMARK    7  A    between atoms: C_15  and  O_24
REMARK    8  A    between atoms: C_21  and  O_22
REMARK    9  A    between atoms: O_22  and  C_23
REMARK   10  A    between atoms: O_24  and  C_25
REMARK   11  A    between atoms: C_27  and  C_32
REMARK   12  A    between atoms: N_28  and  C_31
REMARK   13  A    between atoms: C_29  and  C_30
REMARK                            x       y       z     vdW  Elec       q    Type
REMARK                         _______ _______ _______ _____ _____    ______ ____
ROOT
ATOM      1  C   UNL     1      85.779  53.062  42.807  0.00  0.00    +0.132 A 
ATOM      2  C   UNL     1      85.869  54.453  42.960  0.00  0.00    +0.023 A 
ATOM      3  C   UNL     1      85.751  55.049  44.227  0.00  0.00    +0.129 A 
ATOM      4  C   UNL     1      85.549  54.238  45.365  0.00  0.00    +0.015 A 
ATOM      5  C   UNL     1      85.521  52.839  45.225  0.00  0.00    -0.027 A 
ATOM      6  C   UNL     1      85.600  52.253  43.940  0.00  0.00    +0.028 A 
ATOM      7  C   UNL     1      85.402  51.997  46.463  0.00  0.00    -0.011 C 
ATOM      8  C   UNL     1      86.114  52.691  47.630  0.00  0.00    +0.012 C 
ATOM      9  N   UNL     1      85.444  53.985  47.910  0.00  0.00    -0.296 N 
ATOM     10  C   UNL     1      85.312  54.893  46.730  0.00  0.00    +0.037 C 
ATOM     11  C   UNL     1      83.898  55.489  46.751  0.00  0.00    -0.045 C 
ATOM     12  C   UNL     1      86.080  54.701  49.037  0.00  0.00    -0.012 C 
ATOM     13  C   UNL     1      86.077  51.754  48.853  0.00  0.00    -0.049 C 
ATOM     14  H   UNL     1      84.494  53.722  48.170  0.00  0.00    +0.000 HD
ENDROOT
BRANCH   6  15
ATOM     15  C   UNL     1      85.498  50.781  43.759  0.00  0.00    -0.003 A 
ATOM     16  C   UNL     1      84.229  50.169  43.792  0.00  0.00    -0.039 A 
ATOM     17  C   UNL     1      82.977  50.984  44.006  0.00  0.00    -0.039 C 
ATOM     18  C   UNL     1      84.123  48.784  43.638  0.00  0.00    -0.016 A 
ATOM     19  C   UNL     1      85.257  47.979  43.442  0.00  0.00    +0.132 A 
ATOM     20  C   UNL     1      86.544  48.577  43.398  0.00  0.00    +0.066 A 
ATOM     21  C   UNL     1      86.659  49.990  43.559  0.00  0.00    -0.003 A 
ATOM     22  C   UNL     1      87.937  50.586  43.524  0.00  0.00    -0.053 A 
ATOM     23  C   UNL     1      89.077  49.816  43.330  0.00  0.00    -0.058 A 
ATOM     24  C   UNL     1      88.975  48.440  43.168  0.00  0.00    -0.019 A 
ATOM     25  C   UNL     1      87.721  47.802  43.201  0.00  0.00    +0.131 A 
BRANCH  25  26
ATOM     26  O   UNL     1      87.627  46.407  43.041  0.00  0.00    -0.494 OA
ATOM     27  C   UNL     1      88.669  45.565  42.560  0.00  0.00    +0.079 C 
ENDBRANCH  25  26
BRANCH  19  28
ATOM     28  O   UNL     1      85.128  46.587  43.287  0.00  0.00    -0.494 OA
ATOM     29  C   UNL     1      83.920  45.905  42.962  0.00  0.00    +0.079 C 
ENDBRANCH  19  28
ENDBRANCH   6  15
BRANCH   1  31
ATOM     30  C   UNL     1      86.946  52.622  40.631  0.00  0.00    +0.079 C 
ATOM     31  O   UNL     1      85.869  52.446  41.546  0.00  0.00    -0.494 OA
ENDBRANCH   1  31
BRANCH   3  32
ATOM     32  O   UNL     1      85.832  56.443  44.391  0.00  0.00    -0.495 OA
ATOM     33  C   UNL     1      84.944  57.385  43.798  0.00  0.00    +0.079 C 
ENDBRANCH   3  32
TORSDOF 5
ENDMDL
