MODEL 1
REMARK VINA RESULT:    -9.827      0.000      0.000
REMARK INTER + INTRA:         -12.432
REMARK INTER:                 -11.538
REMARK INTRA:                  -0.894
REMARK UNBOUND:                -0.020
REMARK  Name = 
REMARK  11 active torsions:
REMARK  status: ('A' for Active; 'I' for Inactive)
REMARK    1  A    between atoms: C_1  and  O_2
REMARK    2  A    between atoms: O_2  and  C_3
REMARK    3  A    between atoms: C_5  and  C_6
REMARK    4  A    between atoms: C_8  and  C_30
REMARK    5  A    between atoms: C_12  and  O_29
REMARK    6  A    between atoms: C_13  and  C_14
REMARK    7  A    between atoms: C_15  and  C_16
REMARK    8  A    between atoms: C_18  and  O_27
REMARK    9  A    between atoms: C_24  and  O_25
REMARK   10  A    between atoms: O_25  and  C_26
REMARK   11  A    between atoms: O_27  and  C_28
REMARK                            x       y       z     vdW  Elec       q    Type
REMARK                         _______ _______ _______ _____ _____    ______ ____
ROOT
ATOM      1  C   UNL     1      86.090  48.599  43.671  0.00  0.00    +0.136 A 
ATOM      2  C   UNL     1      86.315  47.290  43.179  0.00  0.00    +0.015 A 
ATOM      3  C   UNL     1      85.251  46.199  43.369  0.00  0.00    +0.034 C 
ATOM      4  C   UNL     1      83.983  46.550  42.580  0.00  0.00    -0.045 C 
ATOM      5  N   UNL     1      85.677  44.853  42.926  0.00  0.00    -0.307 N 
ATOM      6  C   UNL     1      87.114  44.606  43.082  0.00  0.00    +0.009 C 
ATOM      7  C   UNL     1      87.876  45.573  42.175  0.00  0.00    -0.012 C 
ATOM      8  C   UNL     1      87.542  46.986  42.555  0.00  0.00    -0.034 A 
ATOM      9  C   UNL     1      88.471  47.996  42.303  0.00  0.00    -0.016 A 
ATOM     10  C   UNL     1      88.243  49.300  42.733  0.00  0.00    +0.128 A 
ATOM     11  C   UNL     1      87.057  49.616  43.431  0.00  0.00    +0.066 A 
ATOM     12  C   UNL     1      87.444  43.158  42.703  0.00  0.00    -0.049 C 
ATOM     13  H   UNL     1      85.439  44.747  41.940  0.00  0.00    +0.000 HD
ATOM     14  H   UNL     1      85.194  44.178  43.518  0.00  0.00    +0.000 HD
ENDROOT
BRANCH  11  15
ATOM     15  C   UNL     1      86.896  50.990  43.973  0.00  0.00    +0.000 A 
ATOM     16  C   UNL     1      87.281  51.259  45.305  0.00  0.00    -0.038 A 
ATOM     17  C   UNL     1      87.829  50.174  46.200  0.00  0.00    -0.039 C 
ATOM     18  C   UNL     1      87.104  52.541  45.830  0.00  0.00    -0.016 A 
ATOM     19  C   UNL     1      86.566  53.584  45.058  0.00  0.00    +0.132 A 
ATOM     20  C   UNL     1      86.172  53.334  43.719  0.00  0.00    +0.066 A 
ATOM     21  C   UNL     1      86.329  52.022  43.180  0.00  0.00    -0.003 A 
ATOM     22  C   UNL     1      85.919  51.769  41.854  0.00  0.00    -0.053 A 
ATOM     23  C   UNL     1      85.377  52.780  41.070  0.00  0.00    -0.058 A 
ATOM     24  C   UNL     1      85.227  54.062  41.584  0.00  0.00    -0.019 A 
ATOM     25  C   UNL     1      85.617  54.360  42.902  0.00  0.00    +0.131 A 
BRANCH  25  26
ATOM     26  O   UNL     1      85.460  55.661  43.414  0.00  0.00    -0.494 OA
ATOM     27  C   UNL     1      84.476  56.597  42.986  0.00  0.00    +0.079 C 
ENDBRANCH  25  26
BRANCH  19  28
ATOM     28  O   UNL     1      86.412  54.870  45.606  0.00  0.00    -0.494 OA
ATOM     29  C   UNL     1      86.023  55.153  46.947  0.00  0.00    +0.079 C 
ENDBRANCH  19  28
ENDBRANCH  11  15
BRANCH   1  31
ATOM     30  C   UNL     1      83.784  49.570  44.035  0.00  0.00    +0.079 C 
ATOM     31  O   UNL     1      84.923  48.813  44.431  0.00  0.00    -0.494 OA
ENDBRANCH   1  31
BRANCH  10  32
ATOM     32  O   UNL     1      89.231  50.255  42.479  0.00  0.00    -0.506 OA
ATOM     33  H   UNL     1      89.706  50.234  41.671  0.00  0.00    +0.000 HD
ENDBRANCH  10  32
TORSDOF 5
ENDMDL
MODEL 2
REMARK VINA RESULT:    -9.744      1.452      3.179
REMARK INTER + INTRA:         -12.327
REMARK INTER:                 -11.494
REMARK INTRA:                  -0.833
REMARK UNBOUND:                -0.020
REMARK  Name = 
REMARK  11 active torsions:
REMARK  status: ('A' for Active; 'I' for Inactive)
REMARK    1  A    between atoms: C_1  and  O_2
REMARK    2  A    between atoms: O_2  and  C_3
REMARK    3  A    between atoms: C_5  and  C_6
REMARK    4  A    between atoms: C_8  and  C_30
REMARK    5  A    between atoms: C_12  and  O_29
REMARK    6  A    between atoms: C_13  and  C_14
REMARK    7  A    between atoms: C_15  and  C_16
REMARK    8  A    between atoms: C_18  and  O_27
REMARK    9  A    between atoms: C_24  and  O_25
REMARK   10  A    between atoms: O_25  and  C_26
REMARK   11  A    between atoms: O_27  and  C_28
REMARK                            x       y       z     vdW  Elec       q    Type
REMARK                         _______ _______ _______ _____ _____    ______ ____
ROOT
ATOM      1  C   UNL     1      85.263  48.600  43.731  0.00  0.00    +0.136 A 
ATOM      2  C   UNL     1      85.693  47.359  43.202  0.00  0.00    +0.015 A 
ATOM      3  C   UNL     1      84.737  46.158  43.171  0.00  0.00    +0.034 C 
ATOM      4  C   UNL     1      83.559  46.440  42.227  0.00  0.00    -0.045 C 
ATOM      5  N   UNL     1      85.362  44.896  42.717  0.00  0.00    -0.307 N 
ATOM      6  C   UNL     1      86.781  44.780  43.066  0.00  0.00    +0.009 C 
ATOM      7  C   UNL     1      87.553  45.881  42.338  0.00  0.00    -0.012 C 
ATOM      8  C   UNL     1      87.020  47.223  42.747  0.00  0.00    -0.034 A 
ATOM      9  C   UNL     1      87.861  48.335  42.692  0.00  0.00    -0.016 A 
ATOM     10  C   UNL     1      87.437  49.575  43.160  0.00  0.00    +0.128 A 
ATOM     11  C   UNL     1      86.139  49.722  43.695  0.00  0.00    +0.066 A 
ATOM     12  C   UNL     1      87.314  43.403  42.656  0.00  0.00    -0.049 C 
ATOM     13  H   UNL     1      85.275  44.840  41.702  0.00  0.00    +0.000 HD
ATOM     14  H   UNL     1      84.876  44.136  43.192  0.00  0.00    +0.000 HD
ENDROOT
BRANCH  11  15
ATOM     15  C   UNL     1      85.757  51.030  44.287  0.00  0.00    +0.000 A 
ATOM     16  C   UNL     1      85.233  52.041  43.453  0.00  0.00    -0.038 A 
ATOM     17  C   UNL     1      85.075  51.832  41.966  0.00  0.00    -0.039 C 
ATOM     18  C   UNL     1      84.901  53.283  43.998  0.00  0.00    -0.016 A 
ATOM     19  C   UNL     1      85.058  53.551  45.368  0.00  0.00    +0.132 A 
ATOM     20  C   UNL     1      85.585  52.550  46.222  0.00  0.00    +0.066 A 
ATOM     21  C   UNL     1      85.947  51.284  45.671  0.00  0.00    -0.003 A 
ATOM     22  C   UNL     1      86.488  50.295  46.517  0.00  0.00    -0.053 A 
ATOM     23  C   UNL     1      86.662  50.535  47.875  0.00  0.00    -0.058 A 
ATOM     24  C   UNL     1      86.305  51.761  48.421  0.00  0.00    -0.019 A 
ATOM     25  C   UNL     1      85.767  52.779  47.616  0.00  0.00    +0.131 A 
BRANCH  25  26
ATOM     26  O   UNL     1      85.410  54.019  48.177  0.00  0.00    -0.494 OA
ATOM     27  C   UNL     1      84.352  54.222  49.108  0.00  0.00    +0.079 C 
ENDBRANCH  25  26
BRANCH  19  28
ATOM     28  O   UNL     1      84.701  54.806  45.894  0.00  0.00    -0.494 OA
ATOM     29  C   UNL     1      84.923  56.060  45.256  0.00  0.00    +0.079 C 
ENDBRANCH  19  28
ENDBRANCH  11  15
BRANCH   1  31
ATOM     30  C   UNL     1      82.848  49.344  43.832  0.00  0.00    +0.079 C 
ATOM     31  O   UNL     1      83.985  48.642  44.325  0.00  0.00    -0.494 OA
ENDBRANCH   1  31
BRANCH  10  32
ATOM     32  O   UNL     1      88.343  50.638  43.109  0.00  0.00    -0.506 OA
ATOM     33  H   UNL     1      88.032  51.511  42.969  0.00  0.00    +0.000 HD
ENDBRANCH  10  32
TORSDOF 5
ENDMDL
MODEL 3
REMARK VINA RESULT:    -9.693      2.919      7.775
REMARK INTER + INTRA:         -12.263
REMARK INTER:                 -11.168
REMARK INTRA:                  -1.095
REMARK UNBOUND:                -0.020
REMARK  Name = 
REMARK  11 active torsions:
REMARK  status: ('A' for Active; 'I' for Inactive)
REMARK    1  A    between atoms: C_1  and  O_2
REMARK    2  A    between atoms: O_2  and  C_3
REMARK    3  A    between atoms: C_5  and  C_6
REMARK    4  A    between atoms: C_8  and  C_30
REMARK    5  A    between atoms: C_12  and  O_29
REMARK    6  A    between atoms: C_13  and  C_14
REMARK    7  A    between atoms: C_15  and  C_16
REMARK    8  A    between atoms: C_18  and  O_27
REMARK    9  A    between atoms: C_24  and  O_25
REMARK   10  A    between atoms: O_25  and  C_26
REMARK   11  A    between atoms: O_27  and  C_28
REMARK                            x       y       z     vdW  Elec       q    Type
REMARK                         _______ _______ _______ _____ _____    ______ ____
ROOT
ATOM      1  C   UNL     1      85.161  52.971  43.313  0.00  0.00    +0.136 A 
ATOM      2  C   UNL     1      84.905  54.299  43.733  0.00  0.00    +0.015 A 
ATOM      3  C   UNL     1      84.544  55.380  42.704  0.00  0.00    +0.034 C 
ATOM      4  C   UNL     1      83.193  55.059  42.047  0.00  0.00    -0.045 C 
ATOM      5  N   UNL     1      84.436  56.744  43.269  0.00  0.00    -0.307 N 
ATOM      6  C   UNL     1      85.332  56.986  44.403  0.00  0.00    +0.009 C 
ATOM      7  C   UNL     1      84.930  56.057  45.549  0.00  0.00    -0.012 C 
ATOM      8  C   UNL     1      85.030  54.630  45.098  0.00  0.00    -0.034 A 
ATOM      9  C   UNL     1      85.270  53.632  46.043  0.00  0.00    -0.016 A 
ATOM     10  C   UNL     1      85.472  52.312  45.653  0.00  0.00    +0.128 A 
ATOM     11  C   UNL     1      85.431  51.966  44.284  0.00  0.00    +0.066 A 
ATOM     12  C   UNL     1      85.232  58.449  44.850  0.00  0.00    -0.049 C 
ATOM     13  H   UNL     1      83.476  56.888  43.582  0.00  0.00    +0.000 HD
ATOM     14  H   UNL     1      84.707  57.393  42.531  0.00  0.00    +0.000 HD
ENDROOT
BRANCH  11  15
ATOM     15  C   UNL     1      85.761  50.571  43.893  0.00  0.00    +0.000 A 
ATOM     16  C   UNL     1      87.107  50.220  43.649  0.00  0.00    -0.038 A 
ATOM     17  C   UNL     1      88.217  51.238  43.749  0.00  0.00    -0.039 C 
ATOM     18  C   UNL     1      87.420  48.919  43.251  0.00  0.00    -0.016 A 
ATOM     19  C   UNL     1      86.428  47.935  43.105  0.00  0.00    +0.132 A 
ATOM     20  C   UNL     1      85.070  48.268  43.345  0.00  0.00    +0.066 A 
ATOM     21  C   UNL     1      84.738  49.601  43.730  0.00  0.00    -0.003 A 
ATOM     22  C   UNL     1      83.386  49.936  43.950  0.00  0.00    -0.053 A 
ATOM     23  C   UNL     1      82.382  48.986  43.805  0.00  0.00    -0.058 A 
ATOM     24  C   UNL     1      82.697  47.684  43.438  0.00  0.00    -0.019 A 
ATOM     25  C   UNL     1      84.031  47.304  43.203  0.00  0.00    +0.131 A 
BRANCH  25  26
ATOM     26  O   UNL     1      84.341  45.984  42.829  0.00  0.00    -0.494 OA
ATOM     27  C   UNL     1      84.069  44.827  43.612  0.00  0.00    +0.079 C 
ENDBRANCH  25  26
BRANCH  19  28
ATOM     28  O   UNL     1      86.772  46.627  42.719  0.00  0.00    -0.494 OA
ATOM     29  C   UNL     1      88.005  46.244  42.118  0.00  0.00    +0.079 C 
ENDBRANCH  19  28
ENDBRANCH  11  15
BRANCH   1  31
ATOM     30  C   UNL     1      86.324  52.813  41.073  0.00  0.00    +0.079 C 
ATOM     31  O   UNL     1      85.186  52.725  41.926  0.00  0.00    -0.494 OA
ENDBRANCH   1  31
BRANCH  10  32
ATOM     32  O   UNL     1      85.744  51.369  46.648  0.00  0.00    -0.506 OA
ATOM     33  H   UNL     1      86.454  50.767  46.541  0.00  0.00    +0.000 HD
ENDBRANCH  10  32
TORSDOF 5
ENDMDL
MODEL 4
REMARK VINA RESULT:    -9.429      3.112      7.661
REMARK INTER + INTRA:         -11.929
REMARK INTER:                 -11.140
REMARK INTRA:                  -0.790
REMARK UNBOUND:                -0.020
REMARK  Name = 
REMARK  11 active torsions:
REMARK  status: ('A' for Active; 'I' for Inactive)
REMARK    1  A    between atoms: C_1  and  O_2
REMARK    2  A    between atoms: O_2  and  C_3
REMARK    3  A    between atoms: C_5  and  C_6
REMARK    4  A    between atoms: C_8  and  C_30
REMARK    5  A    between atoms: C_12  and  O_29
REMARK    6  A    between atoms: C_13  and  C_14
REMARK    7  A    between atoms: C_15  and  C_16
REMARK    8  A    between atoms: C_18  and  O_27
REMARK    9  A    between atoms: C_24  and  O_25
REMARK   10  A    between atoms: O_25  and  C_26
REMARK   11  A    between atoms: O_27  and  C_28
REMARK                            x       y       z     vdW  Elec       q    Type
REMARK                         _______ _______ _______ _____ _____    ______ ____
ROOT
ATOM      1  C   UNL     1      85.234  53.153  45.344  0.00  0.00    +0.136 A 
ATOM      2  C   UNL     1      85.446  54.554  45.341  0.00  0.00    +0.015 A 
ATOM      3  C   UNL     1      85.201  55.375  46.616  0.00  0.00    +0.034 C 
ATOM      4  C   UNL     1      86.201  54.970  47.708  0.00  0.00    -0.045 C 
ATOM      5  N   UNL     1      85.333  56.837  46.430  0.00  0.00    -0.307 N 
ATOM      6  C   UNL     1      84.948  57.300  45.093  0.00  0.00    +0.009 C 
ATOM      7  C   UNL     1      85.908  56.690  44.071  0.00  0.00    -0.012 C 
ATOM      8  C   UNL     1      85.838  55.193  44.148  0.00  0.00    -0.034 A 
ATOM      9  C   UNL     1      86.145  54.438  43.015  0.00  0.00    -0.016 A 
ATOM     10  C   UNL     1      85.993  53.055  43.015  0.00  0.00    +0.128 A 
ATOM     11  C   UNL     1      85.525  52.396  44.174  0.00  0.00    +0.066 A 
ATOM     12  C   UNL     1      85.011  58.830  45.027  0.00  0.00    -0.049 C 
ATOM     13  H   UNL     1      86.307  57.096  46.591  0.00  0.00    +0.000 HD
ATOM     14  H   UNL     1      84.697  57.279  47.093  0.00  0.00    +0.000 HD
ENDROOT
BRANCH  11  15
ATOM     15  C   UNL     1      85.268  50.934  44.105  0.00  0.00    +0.000 A 
ATOM     16  C   UNL     1      86.291  50.033  44.472  0.00  0.00    -0.038 A 
ATOM     17  C   UNL     1      87.652  50.521  44.906  0.00  0.00    -0.039 C 
ATOM     18  C   UNL     1      86.065  48.658  44.380  0.00  0.00    -0.016 A 
ATOM     19  C   UNL     1      84.832  48.141  43.949  0.00  0.00    +0.132 A 
ATOM     20  C   UNL     1      83.792  49.030  43.575  0.00  0.00    +0.066 A 
ATOM     21  C   UNL     1      84.020  50.437  43.644  0.00  0.00    -0.003 A 
ATOM     22  C   UNL     1      82.992  51.321  43.255  0.00  0.00    -0.053 A 
ATOM     23  C   UNL     1      81.765  50.838  42.817  0.00  0.00    -0.058 A 
ATOM     24  C   UNL     1      81.532  49.470  42.753  0.00  0.00    -0.019 A 
ATOM     25  C   UNL     1      82.528  48.551  43.127  0.00  0.00    +0.131 A 
BRANCH  25  26
ATOM     26  O   UNL     1      82.284  47.168  43.057  0.00  0.00    -0.494 OA
ATOM     27  C   UNL     1      81.159  46.505  43.626  0.00  0.00    +0.079 C 
ENDBRANCH  25  26
BRANCH  19  28
ATOM     28  O   UNL     1      84.626  46.752  43.881  0.00  0.00    -0.494 OA
ATOM     29  C   UNL     1      85.539  45.760  44.341  0.00  0.00    +0.079 C 
ENDBRANCH  19  28
ENDBRANCH  11  15
BRANCH   1  31
ATOM     30  C   UNL     1      85.402  51.905  47.536  0.00  0.00    +0.079 C 
ATOM     31  O   UNL     1      84.685  52.584  46.510  0.00  0.00    -0.494 OA
ENDBRANCH   1  31
BRANCH  10  32
ATOM     32  O   UNL     1      86.284  52.364  41.836  0.00  0.00    -0.506 OA
ATOM     33  H   UNL     1      86.986  51.744  41.818  0.00  0.00    +0.000 HD
ENDBRANCH  10  32
TORSDOF 5
ENDMDL
MODEL 5
REMARK VINA RESULT:    -9.339      2.851      7.682
REMARK INTER + INTRA:         -11.816
REMARK INTER:                 -10.771
REMARK INTRA:                  -1.045
REMARK UNBOUND:                -0.020
REMARK  Name = 
REMARK  11 active torsions:
REMARK  status: ('A' for Active; 'I' for Inactive)
REMARK    1  A    between atoms: C_1  and  O_2
REMARK    2  A    between atoms: O_2  and  C_3
REMARK    3  A    between atoms: C_5  and  C_6
REMARK    4  A    between atoms: C_8  and  C_30
REMARK    5  A    between atoms: C_12  and  O_29
REMARK    6  A    between atoms: C_13  and  C_14
REMARK    7  A    between atoms: C_15  and  C_16
REMARK    8  A    between atoms: C_18  and  O_27
REMARK    9  A    between atoms: C_24  and  O_25
REMARK   10  A    between atoms: O_25  and  C_26
REMARK   11  A    between atoms: O_27  and  C_28
REMARK                            x       y       z     vdW  Elec       q    Type
REMARK                         _______ _______ _______ _____ _____    ______ ____
ROOT
ATOM      1  C   UNL     1      85.632  52.967  43.004  0.00  0.00    +0.136 A 
ATOM      2  C   UNL     1      85.458  54.302  43.445  0.00  0.00    +0.015 A 
ATOM      3  C   UNL     1      84.891  55.364  42.491  0.00  0.00    +0.034 C 
ATOM      4  C   UNL     1      83.438  55.028  42.126  0.00  0.00    -0.045 C 
ATOM      5  N   UNL     1      84.891  56.737  43.043  0.00  0.00    -0.307 N 
ATOM      6  C   UNL     1      85.996  57.002  43.970  0.00  0.00    +0.009 C 
ATOM      7  C   UNL     1      85.839  56.092  45.189  0.00  0.00    -0.012 C 
ATOM      8  C   UNL     1      85.854  54.657  44.750  0.00  0.00    -0.034 A 
ATOM      9  C   UNL     1      86.286  53.677  45.645  0.00  0.00    -0.016 A 
ATOM     10  C   UNL     1      86.413  52.351  45.244  0.00  0.00    +0.128 A 
ATOM     11  C   UNL     1      86.099  51.980  43.918  0.00  0.00    +0.066 A 
ATOM     12  C   UNL     1      85.980  58.472  44.402  0.00  0.00    -0.049 C 
ATOM     13  H   UNL     1      84.013  56.885  43.541  0.00  0.00    +0.000 HD
ATOM     14  H   UNL     1      85.005  57.374  42.255  0.00  0.00    +0.000 HD
ENDROOT
BRANCH  11  15
ATOM     15  C   UNL     1      86.352  50.579  43.492  0.00  0.00    +0.000 A 
ATOM     16  C   UNL     1      85.346  49.607  43.678  0.00  0.00    -0.038 A 
ATOM     17  C   UNL     1      84.026  49.952  44.326  0.00  0.00    -0.039 C 
ATOM     18  C   UNL     1      85.588  48.282  43.309  0.00  0.00    -0.016 A 
ATOM     19  C   UNL     1      86.808  47.890  42.734  0.00  0.00    +0.132 A 
ATOM     20  C   UNL     1      87.833  48.852  42.539  0.00  0.00    +0.066 A 
ATOM     21  C   UNL     1      87.602  50.204  42.934  0.00  0.00    -0.003 A 
ATOM     22  C   UNL     1      88.627  51.156  42.758  0.00  0.00    -0.053 A 
ATOM     23  C   UNL     1      89.848  50.795  42.199  0.00  0.00    -0.058 A 
ATOM     24  C   UNL     1      90.078  49.484  41.805  0.00  0.00    -0.019 A 
ATOM     25  C   UNL     1      89.087  48.499  41.966  0.00  0.00    +0.131 A 
BRANCH  25  26
ATOM     26  O   UNL     1      89.329  47.172  41.566  0.00  0.00    -0.494 OA
ATOM     27  C   UNL     1      90.317  46.315  42.127  0.00  0.00    +0.079 C 
ENDBRANCH  25  26
BRANCH  19  28
ATOM     28  O   UNL     1      87.021  46.552  42.356  0.00  0.00    -0.494 OA
ATOM     29  C   UNL     1      86.410  45.418  42.962  0.00  0.00    +0.079 C 
ENDBRANCH  19  28
ENDBRANCH  11  15
BRANCH   1  31
ATOM     30  C   UNL     1      86.301  52.842  40.569  0.00  0.00    +0.079 C 
ATOM     31  O   UNL     1      85.379  52.697  41.645  0.00  0.00    -0.494 OA
ENDBRANCH   1  31
BRANCH  10  32
ATOM     32  O   UNL     1      86.886  51.427  46.180  0.00  0.00    -0.506 OA
ATOM     33  H   UNL     1      86.320  51.118  46.860  0.00  0.00    +0.000 HD
ENDBRANCH  10  32
TORSDOF 5
ENDMDL
MODEL 6
REMARK VINA RESULT:    -8.262      1.641      4.031
REMARK INTER + INTRA:         -10.455
REMARK INTER:                  -9.853
REMARK INTRA:                  -0.602
REMARK UNBOUND:                -0.020
REMARK  Name = 
REMARK  11 active torsions:
REMARK  status: ('A' for Active; 'I' for Inactive)
REMARK    1  A    between atoms: C_1  and  O_2
REMARK    2  A    between atoms: O_2  and  C_3
REMARK    3  A    between atoms: C_5  and  C_6
REMARK    4  A    between atoms: C_8  and  C_30
REMARK    5  A    between atoms: C_12  and  O_29
REMARK    6  A    between atoms: C_13  and  C_14
REMARK    7  A    between atoms: C_15  and  C_16
REMARK    8  A    between atoms: C_18  and  O_27
REMARK    9  A    between atoms: C_24  and  O_25
REMARK   10  A    between atoms: O_25  and  C_26
REMARK   11  A    between atoms: O_27  and  C_28
REMARK                            x       y       z     vdW  Elec       q    Type
REMARK                         _______ _______ _______ _____ _____    ______ ____
ROOT
ATOM      1  C   UNL     1      87.052  50.613  43.347  0.00  0.00    +0.136 A 
ATOM      2  C   UNL     1      87.324  49.229  43.215  0.00  0.00    +0.015 A 
ATOM      3  C   UNL     1      88.739  48.751  42.853  0.00  0.00    +0.034 C 
ATOM      4  C   UNL     1      89.721  49.095  43.982  0.00  0.00    -0.045 C 
ATOM      5  N   UNL     1      88.844  47.294  42.616  0.00  0.00    -0.307 N 
ATOM      6  C   UNL     1      87.629  46.697  42.055  0.00  0.00    +0.009 C 
ATOM      7  C   UNL     1      86.498  46.845  43.073  0.00  0.00    -0.012 C 
ATOM      8  C   UNL     1      86.278  48.299  43.371  0.00  0.00    -0.034 A 
ATOM      9  C   UNL     1      85.015  48.725  43.786  0.00  0.00    -0.016 A 
ATOM     10  C   UNL     1      84.743  50.076  43.972  0.00  0.00    +0.128 A 
ATOM     11  C   UNL     1      85.752  51.038  43.745  0.00  0.00    +0.066 A 
ATOM     12  C   UNL     1      87.867  45.216  41.742  0.00  0.00    -0.049 C 
ATOM     13  H   UNL     1      89.045  46.837  43.506  0.00  0.00    +0.000 HD
ATOM     14  H   UNL     1      89.587  47.158  41.931  0.00  0.00    +0.000 HD
ENDROOT
BRANCH  11  15
ATOM     15  C   UNL     1      85.398  52.478  43.845  0.00  0.00    +0.000 A 
ATOM     16  C   UNL     1      85.008  53.177  42.683  0.00  0.00    -0.038 A 
ATOM     17  C   UNL     1      84.968  52.501  41.333  0.00  0.00    -0.039 C 
ATOM     18  C   UNL     1      84.703  54.537  42.764  0.00  0.00    -0.016 A 
ATOM     19  C   UNL     1      84.756  55.231  43.984  0.00  0.00    +0.132 A 
ATOM     20  C   UNL     1      85.148  54.547  45.163  0.00  0.00    +0.066 A 
ATOM     21  C   UNL     1      85.482  53.162  45.086  0.00  0.00    -0.003 A 
ATOM     22  C   UNL     1      85.889  52.487  46.255  0.00  0.00    -0.053 A 
ATOM     23  C   UNL     1      85.959  53.150  47.475  0.00  0.00    -0.058 A 
ATOM     24  C   UNL     1      85.628  54.496  47.560  0.00  0.00    -0.019 A 
ATOM     25  C   UNL     1      85.222  55.212  46.421  0.00  0.00    +0.131 A 
BRANCH  25  26
ATOM     26  O   UNL     1      84.891  56.576  46.516  0.00  0.00    -0.494 OA
ATOM     27  C   UNL     1      83.636  57.085  46.955  0.00  0.00    +0.079 C 
ENDBRANCH  25  26
BRANCH  19  28
ATOM     28  O   UNL     1      84.430  56.598  44.042  0.00  0.00    -0.494 OA
ATOM     29  C   UNL     1      85.248  57.661  43.564  0.00  0.00    +0.079 C 
ENDBRANCH  19  28
ENDBRANCH  11  15
BRANCH   1  31
ATOM     30  C   UNL     1      88.447  51.943  41.712  0.00  0.00    +0.079 C 
ATOM     31  O   UNL     1      88.087  51.511  43.020  0.00  0.00    -0.494 OA
ENDBRANCH   1  31
BRANCH  10  32
ATOM     32  O   UNL     1      83.448  50.437  44.354  0.00  0.00    -0.506 OA
ATOM     33  H   UNL     1      82.822  50.691  43.704  0.00  0.00    +0.000 HD
ENDBRANCH  10  32
TORSDOF 5
ENDMDL
MODEL 7
REMARK VINA RESULT:    -8.224      2.850      7.855
REMARK INTER + INTRA:         -10.408
REMARK INTER:                  -9.540
REMARK INTRA:                  -0.867
REMARK UNBOUND:                -0.020
REMARK  Name = 
REMARK  11 active torsions:
REMARK  status: ('A' for Active; 'I' for Inactive)
REMARK    1  A    between atoms: C_1  and  O_2
REMARK    2  A    between atoms: O_2  and  C_3
REMARK    3  A    between atoms: C_5  and  C_6
REMARK    4  A    between atoms: C_8  and  C_30
REMARK    5  A    between atoms: C_12  and  O_29
REMARK    6  A    between atoms: C_13  and  C_14
REMARK    7  A    between atoms: C_15  and  C_16
REMARK    8  A    between atoms: C_18  and  O_27
REMARK    9  A    between atoms: C_24  and  O_25
REMARK   10  A    between atoms: O_25  and  C_26
REMARK   11  A    between atoms: O_27  and  C_28
REMARK                            x       y       z     vdW  Elec       q    Type
REMARK                         _______ _______ _______ _____ _____    ______ ____
ROOT
ATOM      1  C   UNL     1      85.352  53.199  44.829  0.00  0.00    +0.136 A 
ATOM      2  C   UNL     1      85.417  54.612  44.916  0.00  0.00    +0.015 A 
ATOM      3  C   UNL     1      85.442  55.301  46.288  0.00  0.00    +0.034 C 
ATOM      4  C   UNL     1      86.732  54.943  47.039  0.00  0.00    -0.045 C 
ATOM      5  N   UNL     1      85.374  56.778  46.226  0.00  0.00    -0.307 N 
ATOM      6  C   UNL     1      84.602  57.287  45.088  0.00  0.00    +0.009 C 
ATOM      7  C   UNL     1      85.309  56.876  43.796  0.00  0.00    -0.012 C 
ATOM      8  C   UNL     1      85.410  55.380  43.734  0.00  0.00    -0.034 A 
ATOM      9  C   UNL     1      85.477  54.753  42.489  0.00  0.00    -0.016 A 
ATOM     10  C   UNL     1      85.467  53.366  42.386  0.00  0.00    +0.128 A 
ATOM     11  C   UNL     1      85.394  52.572  43.551  0.00  0.00    +0.066 A 
ATOM     12  C   UNL     1      84.494  58.814  45.166  0.00  0.00    -0.049 C 
ATOM     13  H   UNL     1      86.325  57.142  46.157  0.00  0.00    +0.000 HD
ATOM     14  H   UNL     1      84.898  57.090  47.072  0.00  0.00    +0.000 HD
ENDROOT
BRANCH  11  15
ATOM     15  C   UNL     1      85.273  51.098  43.401  0.00  0.00    +0.000 A 
ATOM     16  C   UNL     1      83.994  50.501  43.434  0.00  0.00    -0.038 A 
ATOM     17  C   UNL     1      82.746  51.324  43.646  0.00  0.00    -0.039 C 
ATOM     18  C   UNL     1      83.876  49.114  43.325  0.00  0.00    -0.016 A 
ATOM     19  C   UNL     1      85.001  48.290  43.161  0.00  0.00    +0.132 A 
ATOM     20  C   UNL     1      86.295  48.870  43.127  0.00  0.00    +0.066 A 
ATOM     21  C   UNL     1      86.428  50.285  43.260  0.00  0.00    -0.003 A 
ATOM     22  C   UNL     1      87.716  50.860  43.245  0.00  0.00    -0.053 A 
ATOM     23  C   UNL     1      88.848  50.069  43.093  0.00  0.00    -0.058 A 
ATOM     24  C   UNL     1      88.728  48.692  42.956  0.00  0.00    -0.019 A 
ATOM     25  C   UNL     1      87.465  48.073  42.970  0.00  0.00    +0.131 A 
BRANCH  25  26
ATOM     26  O   UNL     1      87.353  46.678  42.832  0.00  0.00    -0.494 OA
ATOM     27  C   UNL     1      88.188  45.867  42.013  0.00  0.00    +0.079 C 
ENDBRANCH  25  26
BRANCH  19  28
ATOM     28  O   UNL     1      84.854  46.897  43.038  0.00  0.00    -0.494 OA
ATOM     29  C   UNL     1      83.751  46.140  43.526  0.00  0.00    +0.079 C 
ENDBRANCH  19  28
ENDBRANCH  11  15
BRANCH   1  31
ATOM     30  C   UNL     1      86.167  51.650  46.653  0.00  0.00    +0.079 C 
ATOM     31  O   UNL     1      85.193  52.483  46.032  0.00  0.00    -0.494 OA
ENDBRANCH   1  31
BRANCH  10  32
ATOM     32  O   UNL     1      85.499  52.804  41.106  0.00  0.00    -0.506 OA
ATOM     33  H   UNL     1      85.561  53.358  40.353  0.00  0.00    +0.000 HD
ENDBRANCH  10  32
TORSDOF 5
ENDMDL
MODEL 8
REMARK VINA RESULT:    -7.828      1.293      2.656
REMARK INTER + INTRA:          -9.908
REMARK INTER:                  -8.998
REMARK INTRA:                  -0.909
REMARK UNBOUND:                -0.020
REMARK  Name = 
REMARK  11 active torsions:
REMARK  status: ('A' for Active; 'I' for Inactive)
REMARK    1  A    between atoms: C_1  and  O_2
REMARK    2  A    between atoms: O_2  and  C_3
REMARK    3  A    between atoms: C_5  and  C_6
REMARK    4  A    between atoms: C_8  and  C_30
REMARK    5  A    between atoms: C_12  and  O_29
REMARK    6  A    between atoms: C_13  and  C_14
REMARK    7  A    between atoms: C_15  and  C_16
REMARK    8  A    between atoms: C_18  and  O_27
REMARK    9  A    between atoms: C_24  and  O_25
REMARK   10  A    between atoms: O_25  and  C_26
REMARK   11  A    between atoms: O_27  and  C_28
REMARK                            x       y       z     vdW  Elec       q    Type
REMARK                         _______ _______ _______ _____ _____    ______ ____
ROOT
ATOM      1  C   UNL     1      87.846  49.710  43.369  0.00  0.00    +0.136 A 
ATOM      2  C   UNL     1      87.866  48.314  43.131  0.00  0.00    +0.015 A 
ATOM      3  C   UNL     1      89.083  47.662  42.457  0.00  0.00    +0.034 C 
ATOM      4  C   UNL     1      90.318  47.781  43.362  0.00  0.00    -0.045 C 
ATOM      5  N   UNL     1      88.909  46.225  42.151  0.00  0.00    -0.307 N 
ATOM      6  C   UNL     1      87.526  45.849  41.841  0.00  0.00    +0.009 C 
ATOM      7  C   UNL     1      86.666  46.090  43.082  0.00  0.00    -0.012 C 
ATOM      8  C   UNL     1      86.742  47.536  43.474  0.00  0.00    -0.034 A 
ATOM      9  C   UNL     1      85.675  48.111  44.165  0.00  0.00    -0.016 A 
ATOM     10  C   UNL     1      85.661  49.472  44.454  0.00  0.00    +0.128 A 
ATOM     11  C   UNL     1      86.739  50.290  44.051  0.00  0.00    +0.066 A 
ATOM     12  C   UNL     1      87.461  44.374  41.431  0.00  0.00    -0.049 C 
ATOM     13  H   UNL     1      89.215  45.683  42.960  0.00  0.00    +0.000 HD
ATOM     14  H   UNL     1      89.465  46.029  41.318  0.00  0.00    +0.000 HD
ENDROOT
BRANCH  11  15
ATOM     15  C   UNL     1      86.642  51.756  44.277  0.00  0.00    +0.000 A 
ATOM     16  C   UNL     1      87.100  52.301  45.496  0.00  0.00    -0.038 A 
ATOM     17  C   UNL     1      87.662  51.424  46.589  0.00  0.00    -0.039 C 
ATOM     18  C   UNL     1      86.984  53.673  45.726  0.00  0.00    -0.016 A 
ATOM     19  C   UNL     1      86.437  54.537  44.763  0.00  0.00    +0.132 A 
ATOM     20  C   UNL     1      85.970  54.009  43.532  0.00  0.00    +0.066 A 
ATOM     21  C   UNL     1      86.064  52.605  43.296  0.00  0.00    -0.003 A 
ATOM     22  C   UNL     1      85.583  52.078  42.080  0.00  0.00    -0.053 A 
ATOM     23  C   UNL     1      85.030  52.908  41.112  0.00  0.00    -0.058 A 
ATOM     24  C   UNL     1      84.940  54.276  41.331  0.00  0.00    -0.019 A 
ATOM     25  C   UNL     1      85.403  54.847  42.530  0.00  0.00    +0.131 A 
BRANCH  25  26
ATOM     26  O   UNL     1      85.306  56.234  42.743  0.00  0.00    -0.494 OA
ATOM     27  C   UNL     1      84.113  56.928  43.091  0.00  0.00    +0.079 C 
ENDBRANCH  25  26
BRANCH  19  28
ATOM     28  O   UNL     1      86.345  55.918  45.014  0.00  0.00    -0.494 OA
ATOM     29  C   UNL     1      85.952  56.506  46.250  0.00  0.00    +0.079 C 
ENDBRANCH  19  28
ENDBRANCH  11  15
BRANCH   1  31
ATOM     30  C   UNL     1      88.996  51.060  41.567  0.00  0.00    +0.079 C 
ATOM     31  O   UNL     1      88.918  50.469  42.861  0.00  0.00    -0.494 OA
ENDBRANCH   1  31
BRANCH  10  32
ATOM     32  O   UNL     1      84.544  49.989  45.116  0.00  0.00    -0.506 OA
ATOM     33  H   UNL     1      83.755  49.486  45.167  0.00  0.00    +0.000 HD
ENDBRANCH  10  32
TORSDOF 5
ENDMDL
MODEL 9
REMARK VINA RESULT:    -7.416      2.207      4.550
REMARK INTER + INTRA:          -9.387
REMARK INTER:                  -9.367
REMARK INTRA:                  -0.020
REMARK UNBOUND:                -0.020
REMARK  Name = 
REMARK  11 active torsions:
REMARK  status: ('A' for Active; 'I' for Inactive)
REMARK    1  A    between atoms: C_1  and  O_2
REMARK    2  A    between atoms: O_2  and  C_3
REMARK    3  A    between atoms: C_5  and  C_6
REMARK    4  A    between atoms: C_8  and  C_30
REMARK    5  A    between atoms: C_12  and  O_29
REMARK    6  A    between atoms: C_13  and  C_14
REMARK    7  A    between atoms: C_15  and  C_16
REMARK    8  A    between atoms: C_18  and  O_27
REMARK    9  A    between atoms: C_24  and  O_25
REMARK   10  A    between atoms: O_25  and  C_26
REMARK   11  A    between atoms: O_27  and  C_28
REMARK                            x       y       z     vdW  Elec       q    Type
REMARK                         _______ _______ _______ _____ _____    ______ ____
ROOT
ATOM      1  C   UNL     1      85.314  51.227  44.085  0.00  0.00    +0.136 A 
ATOM      2  C   UNL     1      85.088  49.829  44.071  0.00  0.00    +0.015 A 
ATOM      3  C   UNL     1      86.155  48.868  44.615  0.00  0.00    +0.034 C 
ATOM      4  C   UNL     1      86.340  49.079  46.125  0.00  0.00    -0.045 C 
ATOM      5  N   UNL     1      85.841  47.436  44.414  0.00  0.00    -0.307 N 
ATOM      6  C   UNL     1      85.065  47.166  43.200  0.00  0.00    +0.009 C 
ATOM      7  C   UNL     1      83.703  47.848  43.330  0.00  0.00    -0.012 C 
ATOM      8  C   UNL     1      83.897  49.325  43.511  0.00  0.00    -0.034 A 
ATOM      9  C   UNL     1      82.890  50.199  43.098  0.00  0.00    -0.016 A 
ATOM     10  C   UNL     1      83.074  51.577  43.153  0.00  0.00    +0.128 A 
ATOM     11  C   UNL     1      84.290  52.109  43.636  0.00  0.00    +0.066 A 
ATOM     12  C   UNL     1      84.883  45.655  43.017  0.00  0.00    -0.049 C 
ATOM     13  H   UNL     1      85.305  47.107  45.217  0.00  0.00    +0.000 HD
ATOM     14  H   UNL     1      86.731  46.948  44.313  0.00  0.00    +0.000 HD
ENDROOT
BRANCH  11  15
ATOM     15  C   UNL     1      84.496  53.579  43.577  0.00  0.00    +0.000 A 
ATOM     16  C   UNL     1      84.791  54.189  42.338  0.00  0.00    -0.038 A 
ATOM     17  C   UNL     1      84.929  53.375  41.074  0.00  0.00    -0.039 C 
ATOM     18  C   UNL     1      85.016  55.565  42.282  0.00  0.00    -0.016 A 
ATOM     19  C   UNL     1      84.938  56.372  43.429  0.00  0.00    +0.132 A 
ATOM     20  C   UNL     1      84.644  55.779  44.684  0.00  0.00    +0.066 A 
ATOM     21  C   UNL     1      84.434  54.370  44.755  0.00  0.00    -0.003 A 
ATOM     22  C   UNL     1      84.160  53.777  46.006  0.00  0.00    -0.053 A 
ATOM     23  C   UNL     1      84.084  54.549  47.159  0.00  0.00    -0.058 A 
ATOM     24  C   UNL     1      84.280  55.923  47.097  0.00  0.00    -0.019 A 
ATOM     25  C   UNL     1      84.560  56.557  45.874  0.00  0.00    +0.131 A 
BRANCH  25  26
ATOM     26  O   UNL     1      84.759  57.948  45.821  0.00  0.00    -0.494 OA
ATOM     27  C   UNL     1      84.121  58.899  46.667  0.00  0.00    +0.079 C 
ENDBRANCH  25  26
BRANCH  19  28
ATOM     28  O   UNL     1      85.153  57.759  43.342  0.00  0.00    -0.494 OA
ATOM     29  C   UNL     1      86.352  58.431  43.717  0.00  0.00    +0.079 C 
ENDBRANCH  19  28
ENDBRANCH  11  15
BRANCH   1  31
ATOM     30  C   UNL     1      87.723  51.871  43.668  0.00  0.00    +0.079 C 
ATOM     31  O   UNL     1      86.584  51.674  44.500  0.00  0.00    -0.494 OA
ENDBRANCH   1  31
BRANCH  10  32
ATOM     32  O   UNL     1      82.039  52.395  42.690  0.00  0.00    -0.506 OA
ATOM     33  H   UNL     1      81.211  52.019  42.463  0.00  0.00    +0.000 HD
ENDBRANCH  10  32
TORSDOF 5
ENDMDL
