MODEL 1
REMARK VINA RESULT:    -9.466      0.000      0.000
REMARK INTER + INTRA:         -13.066
REMARK INTER:                 -11.750
REMARK INTRA:                  -1.316
REMARK UNBOUND:                -1.109
REMARK  Name = 
REMARK  11 active torsions:
REMARK  status: ('A' for Active; 'I' for Inactive)
REMARK    1  A    between atoms: C_1  and  O_2
REMARK    2  A    between atoms: O_2  and  C_3
REMARK    3  A    between atoms: C_5  and  O_6
REMARK    4  A    between atoms: O_6  and  C_7
REMARK    5  A    between atoms: C_10  and  C_11
REMARK    6  A    between atoms: C_12  and  C_13
REMARK    7  A    between atoms: C_17  and  O_18
REMARK    8  A    between atoms: C_19  and  O_20
REMARK    9  A    between atoms: O_20  and  C_21
REMARK   10  A    between atoms: C_26  and  C_30
REMARK   11  A    between atoms: C_28  and  C_29
REMARK                            x       y       z     vdW  Elec       q    Type
REMARK                         _______ _______ _______ _____ _____    ______ ____
ROOT
ATOM      1  C   UNL     1      87.832  49.171  43.352  0.00  0.00    +0.132 A 
ATOM      2  C   UNL     1      87.869  47.849  42.879  0.00  0.00    +0.023 A 
ATOM      3  C   UNL     1      86.741  47.015  42.963  0.00  0.00    +0.133 A 
ATOM      4  C   UNL     1      85.551  47.511  43.547  0.00  0.00    +0.041 A 
ATOM      5  C   UNL     1      85.492  48.860  43.971  0.00  0.00    -0.022 A 
ATOM      6  C   UNL     1      86.642  49.677  43.897  0.00  0.00    +0.032 A 
ATOM      7  C   UNL     1      84.201  49.380  44.574  0.00  0.00    -0.004 C 
ATOM      8  C   UNL     1      82.998  48.693  43.912  0.00  0.00    +0.052 C 
ATOM      9  N   UNL     1      83.175  47.241  43.936  0.00  0.00    -0.284 NA
ATOM     10  C   UNL     1      84.326  46.667  43.732  0.00  0.00    +0.044 C 
ATOM     11  C   UNL     1      84.379  45.168  43.785  0.00  0.00    -0.022 C 
ATOM     12  C   UNL     1      81.692  49.061  44.615  0.00  0.00    -0.042 C 
ENDROOT
BRANCH   6  13
ATOM     13  C   UNL     1      86.622  51.073  44.400  0.00  0.00    +0.031 A 
ATOM     14  C   UNL     1      86.924  51.334  45.753  0.00  0.00    -0.039 A 
ATOM     15  C   UNL     1      87.268  50.216  46.704  0.00  0.00    -0.039 C 
ATOM     16  C   UNL     1      86.903  52.652  46.223  0.00  0.00    -0.050 A 
ATOM     17  C   UNL     1      86.596  53.715  45.367  0.00  0.00    -0.011 A 
ATOM     18  C   UNL     1      86.297  53.473  44.000  0.00  0.00    +0.066 A 
ATOM     19  C   UNL     1      86.309  52.138  43.521  0.00  0.00    +0.136 A 
ATOM     20  C   UNL     1      85.991  54.576  43.156  0.00  0.00    +0.131 A 
ATOM     21  C   UNL     1      85.992  55.879  43.694  0.00  0.00    -0.019 A 
ATOM     22  C   UNL     1      86.288  56.096  45.037  0.00  0.00    -0.058 A 
ATOM     23  C   UNL     1      86.588  55.024  45.870  0.00  0.00    -0.054 A 
BRANCH  19  24
ATOM     24  O   UNL     1      86.011  51.875  42.179  0.00  0.00    -0.505 OA
ATOM     25  H   UNL     1      85.156  51.574  41.940  0.00  0.00    +0.000 HD
ENDBRANCH  19  24
BRANCH  20  26
ATOM     26  O   UNL     1      85.693  54.361  41.799  0.00  0.00    -0.494 OA
ATOM     27  C   UNL     1      84.585  54.926  41.105  0.00  0.00    +0.079 C 
ENDBRANCH  20  26
ENDBRANCH   6  13
BRANCH   1  29
ATOM     28  C   UNL     1      89.573  50.464  42.092  0.00  0.00    +0.079 C 
ATOM     29  O   UNL     1      88.958  50.011  43.293  0.00  0.00    -0.494 OA
ENDBRANCH   1  29
BRANCH   3  30
ATOM     30  O   UNL     1      86.772  45.704  42.457  0.00  0.00    -0.494 OA
ATOM     31  C   UNL     1      87.903  44.840  42.493  0.00  0.00    +0.079 C 
ENDBRANCH   3  30
TORSDOF 5
ENDMDL
MODEL 2
REMARK VINA RESULT:    -9.081      1.666      3.477
REMARK INTER + INTRA:         -12.579
REMARK INTER:                 -11.277
REMARK INTRA:                  -1.302
REMARK UNBOUND:                -1.109
REMARK  Name = 
REMARK  11 active torsions:
REMARK  status: ('A' for Active; 'I' for Inactive)
REMARK    1  A    between atoms: C_1  and  O_2
REMARK    2  A    between atoms: O_2  and  C_3
REMARK    3  A    between atoms: C_5  and  O_6
REMARK    4  A    between atoms: O_6  and  C_7
REMARK    5  A    between atoms: C_10  and  C_11
REMARK    6  A    between atoms: C_12  and  C_13
REMARK    7  A    between atoms: C_17  and  O_18
REMARK    8  A    between atoms: C_19  and  O_20
REMARK    9  A    between atoms: O_20  and  C_21
REMARK   10  A    between atoms: C_26  and  C_30
REMARK   11  A    between atoms: C_28  and  C_29
REMARK                            x       y       z     vdW  Elec       q    Type
REMARK                         _______ _______ _______ _____ _____    ______ ____
ROOT
ATOM      1  C   UNL     1      85.126  48.870  44.385  0.00  0.00    +0.132 A 
ATOM      2  C   UNL     1      85.016  47.522  44.008  0.00  0.00    +0.023 A 
ATOM      3  C   UNL     1      86.104  46.834  43.444  0.00  0.00    +0.133 A 
ATOM      4  C   UNL     1      87.328  47.515  43.239  0.00  0.00    +0.041 A 
ATOM      5  C   UNL     1      87.460  48.856  43.672  0.00  0.00    -0.022 A 
ATOM      6  C   UNL     1      86.349  49.537  44.218  0.00  0.00    +0.032 A 
ATOM      7  C   UNL     1      88.786  49.563  43.464  0.00  0.00    -0.004 C 
ATOM      8  C   UNL     1      89.941  48.560  43.593  0.00  0.00    +0.052 C 
ATOM      9  N   UNL     1      89.695  47.400  42.738  0.00  0.00    -0.284 NA
ATOM     10  C   UNL     1      88.514  46.872  42.587  0.00  0.00    +0.044 C 
ATOM     11  C   UNL     1      88.391  45.684  41.678  0.00  0.00    -0.022 C 
ATOM     12  C   UNL     1      91.276  49.200  43.216  0.00  0.00    -0.042 C 
ENDROOT
BRANCH   6  13
ATOM     13  C   UNL     1      86.446  50.964  44.613  0.00  0.00    +0.031 A 
ATOM     14  C   UNL     1      86.825  51.303  45.929  0.00  0.00    -0.039 A 
ATOM     15  C   UNL     1      87.136  50.236  46.949  0.00  0.00    -0.039 C 
ATOM     16  C   UNL     1      86.913  52.649  46.297  0.00  0.00    -0.050 A 
ATOM     17  C   UNL     1      86.640  53.666  45.375  0.00  0.00    -0.011 A 
ATOM     18  C   UNL     1      86.264  53.345  44.044  0.00  0.00    +0.066 A 
ATOM     19  C   UNL     1      86.166  51.981  43.669  0.00  0.00    +0.136 A 
ATOM     20  C   UNL     1      85.996  54.402  43.131  0.00  0.00    +0.131 A 
ATOM     21  C   UNL     1      86.108  55.738  43.567  0.00  0.00    -0.019 A 
ATOM     22  C   UNL     1      86.478  56.031  44.877  0.00  0.00    -0.058 A 
ATOM     23  C   UNL     1      86.742  55.005  45.777  0.00  0.00    -0.054 A 
BRANCH  19  24
ATOM     24  O   UNL     1      85.790  51.641  42.364  0.00  0.00    -0.505 OA
ATOM     25  H   UNL     1      84.893  51.710  42.102  0.00  0.00    +0.000 HD
ENDBRANCH  19  24
BRANCH  20  26
ATOM     26  O   UNL     1      85.623  54.109  41.807  0.00  0.00    -0.494 OA
ATOM     27  C   UNL     1      84.559  54.737  41.099  0.00  0.00    +0.079 C 
ENDBRANCH  20  26
ENDBRANCH   6  13
BRANCH   1  29
ATOM     28  C   UNL     1      82.759  49.697  44.325  0.00  0.00    +0.079 C 
ATOM     29  O   UNL     1      84.041  49.578  44.932  0.00  0.00    -0.494 OA
ENDBRANCH   1  29
BRANCH   3  30
ATOM     30  O   UNL     1      86.001  45.475  43.100  0.00  0.00    -0.494 OA
ATOM     31  C   UNL     1      85.638  44.429  43.997  0.00  0.00    +0.079 C 
ENDBRANCH   3  30
TORSDOF 5
ENDMDL
MODEL 3
REMARK VINA RESULT:    -8.960      2.904      7.360
REMARK INTER + INTRA:         -12.427
REMARK INTER:                 -11.242
REMARK INTRA:                  -1.185
REMARK UNBOUND:                -1.109
REMARK  Name = 
REMARK  11 active torsions:
REMARK  status: ('A' for Active; 'I' for Inactive)
REMARK    1  A    between atoms: C_1  and  O_2
REMARK    2  A    between atoms: O_2  and  C_3
REMARK    3  A    between atoms: C_5  and  O_6
REMARK    4  A    between atoms: O_6  and  C_7
REMARK    5  A    between atoms: C_10  and  C_11
REMARK    6  A    between atoms: C_12  and  C_13
REMARK    7  A    between atoms: C_17  and  O_18
REMARK    8  A    between atoms: C_19  and  O_20
REMARK    9  A    between atoms: O_20  and  C_21
REMARK   10  A    between atoms: C_26  and  C_30
REMARK   11  A    between atoms: C_28  and  C_29
REMARK                            x       y       z     vdW  Elec       q    Type
REMARK                         _______ _______ _______ _____ _____    ______ ____
ROOT
ATOM      1  C   UNL     1      84.951  53.879  43.006  0.00  0.00    +0.132 A 
ATOM      2  C   UNL     1      84.971  55.283  43.059  0.00  0.00    +0.023 A 
ATOM      3  C   UNL     1      84.792  55.966  44.274  0.00  0.00    +0.133 A 
ATOM      4  C   UNL     1      84.573  55.229  45.462  0.00  0.00    +0.041 A 
ATOM      5  C   UNL     1      84.611  53.815  45.422  0.00  0.00    -0.022 A 
ATOM      6  C   UNL     1      84.772  53.146  44.188  0.00  0.00    +0.032 A 
ATOM      7  C   UNL     1      84.396  53.042  46.709  0.00  0.00    -0.004 C 
ATOM      8  C   UNL     1      84.974  53.827  47.895  0.00  0.00    +0.052 C 
ATOM      9  N   UNL     1      84.468  55.199  47.882  0.00  0.00    -0.284 NA
ATOM     10  C   UNL     1      84.311  55.883  46.785  0.00  0.00    +0.044 C 
ATOM     11  C   UNL     1      83.780  57.281  46.904  0.00  0.00    -0.022 C 
ATOM     12  C   UNL     1      84.621  53.163  49.225  0.00  0.00    -0.042 C 
ENDROOT
BRANCH   6  13
ATOM     13  C   UNL     1      84.744  51.664  44.113  0.00  0.00    +0.031 A 
ATOM     14  C   UNL     1      85.922  50.928  44.357  0.00  0.00    -0.039 A 
ATOM     15  C   UNL     1      87.218  51.621  44.695  0.00  0.00    -0.039 C 
ATOM     16  C   UNL     1      85.891  49.531  44.284  0.00  0.00    -0.050 A 
ATOM     17  C   UNL     1      84.705  48.853  43.982  0.00  0.00    -0.011 A 
ATOM     18  C   UNL     1      83.507  49.576  43.740  0.00  0.00    +0.066 A 
ATOM     19  C   UNL     1      83.536  50.993  43.805  0.00  0.00    +0.136 A 
ATOM     20  C   UNL     1      82.318  48.857  43.437  0.00  0.00    +0.131 A 
ATOM     21  C   UNL     1      82.356  47.449  43.384  0.00  0.00    -0.019 A 
ATOM     22  C   UNL     1      83.541  46.758  43.623  0.00  0.00    -0.058 A 
ATOM     23  C   UNL     1      84.709  47.453  43.920  0.00  0.00    -0.054 A 
BRANCH  19  24
ATOM     24  O   UNL     1      82.368  51.727  43.564  0.00  0.00    -0.505 OA
ATOM     25  H   UNL     1      81.537  51.384  43.829  0.00  0.00    +0.000 HD
ENDBRANCH  19  24
BRANCH  20  26
ATOM     26  O   UNL     1      81.119  49.551  43.196  0.00  0.00    -0.494 OA
ATOM     27  C   UNL     1      79.849  49.200  43.734  0.00  0.00    +0.079 C 
ENDBRANCH  20  26
ENDBRANCH   6  13
BRANCH   1  29
ATOM     28  C   UNL     1      84.549  53.579  40.549  0.00  0.00    +0.079 C 
ATOM     29  O   UNL     1      85.108  53.181  41.796  0.00  0.00    -0.494 OA
ENDBRANCH   1  29
BRANCH   3  30
ATOM     30  O   UNL     1      84.848  57.370  44.329  0.00  0.00    -0.494 OA
ATOM     31  C   UNL     1      86.042  58.144  44.275  0.00  0.00    +0.079 C 
ENDBRANCH   3  30
TORSDOF 5
ENDMDL
MODEL 4
REMARK VINA RESULT:    -8.820      2.518      7.117
REMARK INTER + INTRA:         -12.250
REMARK INTER:                 -11.010
REMARK INTRA:                  -1.240
REMARK UNBOUND:                -1.109
REMARK  Name = 
REMARK  11 active torsions:
REMARK  status: ('A' for Active; 'I' for Inactive)
REMARK    1  A    between atoms: C_1  and  O_2
REMARK    2  A    between atoms: O_2  and  C_3
REMARK    3  A    between atoms: C_5  and  O_6
REMARK    4  A    between atoms: O_6  and  C_7
REMARK    5  A    between atoms: C_10  and  C_11
REMARK    6  A    between atoms: C_12  and  C_13
REMARK    7  A    between atoms: C_17  and  O_18
REMARK    8  A    between atoms: C_19  and  O_20
REMARK    9  A    between atoms: O_20  and  C_21
REMARK   10  A    between atoms: C_26  and  C_30
REMARK   11  A    between atoms: C_28  and  C_29
REMARK                            x       y       z     vdW  Elec       q    Type
REMARK                         _______ _______ _______ _____ _____    ______ ____
ROOT
ATOM      1  C   UNL     1      86.498  51.494  46.377  0.00  0.00    +0.132 A 
ATOM      2  C   UNL     1      86.621  52.781  46.926  0.00  0.00    +0.023 A 
ATOM      3  C   UNL     1      86.526  53.927  46.118  0.00  0.00    +0.133 A 
ATOM      4  C   UNL     1      86.317  53.782  44.726  0.00  0.00    +0.041 A 
ATOM      5  C   UNL     1      86.134  52.489  44.179  0.00  0.00    -0.022 A 
ATOM      6  C   UNL     1      86.253  51.348  45.004  0.00  0.00    +0.032 A 
ATOM      7  C   UNL     1      85.889  52.354  42.688  0.00  0.00    -0.004 C 
ATOM      8  C   UNL     1      85.092  53.563  42.176  0.00  0.00    +0.052 C 
ATOM      9  N   UNL     1      85.732  54.804  42.609  0.00  0.00    -0.284 NA
ATOM     10  C   UNL     1      86.267  54.949  43.787  0.00  0.00    +0.044 C 
ATOM     11  C   UNL     1      86.897  56.273  44.111  0.00  0.00    -0.022 C 
ATOM     12  C   UNL     1      84.979  53.548  40.653  0.00  0.00    -0.042 C 
ENDROOT
BRANCH   6  13
ATOM     13  C   UNL     1      86.135  49.981  44.439  0.00  0.00    +0.031 A 
ATOM     14  C   UNL     1      87.279  49.332  43.930  0.00  0.00    -0.039 A 
ATOM     15  C   UNL     1      88.629  50.004  43.949  0.00  0.00    -0.039 C 
ATOM     16  C   UNL     1      87.163  48.043  43.398  0.00  0.00    -0.050 A 
ATOM     17  C   UNL     1      85.928  47.385  43.372  0.00  0.00    -0.011 A 
ATOM     18  C   UNL     1      84.766  48.020  43.886  0.00  0.00    +0.066 A 
ATOM     19  C   UNL     1      84.878  49.329  44.419  0.00  0.00    +0.136 A 
ATOM     20  C   UNL     1      83.527  47.323  43.846  0.00  0.00    +0.131 A 
ATOM     21  C   UNL     1      83.481  46.024  43.299  0.00  0.00    -0.019 A 
ATOM     22  C   UNL     1      84.632  45.420  42.800  0.00  0.00    -0.058 A 
ATOM     23  C   UNL     1      85.848  46.093  42.834  0.00  0.00    -0.054 A 
BRANCH  19  24
ATOM     24  O   UNL     1      83.745  49.976  44.925  0.00  0.00    -0.505 OA
ATOM     25  H   UNL     1      83.165  50.427  44.343  0.00  0.00    +0.000 HD
ENDBRANCH  19  24
BRANCH  20  26
ATOM     26  O   UNL     1      82.363  47.930  44.350  0.00  0.00    -0.494 OA
ATOM     27  C   UNL     1      81.058  47.363  44.299  0.00  0.00    +0.079 C 
ENDBRANCH  20  26
ENDBRANCH   6  13
BRANCH   1  29
ATOM     28  C   UNL     1      87.680  50.069  48.070  0.00  0.00    +0.079 C 
ATOM     29  O   UNL     1      86.611  50.337  47.169  0.00  0.00    -0.494 OA
ENDBRANCH   1  29
BRANCH   3  30
ATOM     30  O   UNL     1      86.615  55.214  46.676  0.00  0.00    -0.494 OA
ATOM     31  C   UNL     1      85.596  55.844  47.446  0.00  0.00    +0.079 C 
ENDBRANCH   3  30
TORSDOF 5
ENDMDL
MODEL 5
REMARK VINA RESULT:    -8.667      2.252      3.312
REMARK INTER + INTRA:         -12.057
REMARK INTER:                 -10.750
REMARK INTRA:                  -1.306
REMARK UNBOUND:                -1.109
REMARK  Name = 
REMARK  11 active torsions:
REMARK  status: ('A' for Active; 'I' for Inactive)
REMARK    1  A    between atoms: C_1  and  O_2
REMARK    2  A    between atoms: O_2  and  C_3
REMARK    3  A    between atoms: C_5  and  O_6
REMARK    4  A    between atoms: O_6  and  C_7
REMARK    5  A    between atoms: C_10  and  C_11
REMARK    6  A    between atoms: C_12  and  C_13
REMARK    7  A    between atoms: C_17  and  O_18
REMARK    8  A    between atoms: C_19  and  O_20
REMARK    9  A    between atoms: O_20  and  C_21
REMARK   10  A    between atoms: C_26  and  C_30
REMARK   11  A    between atoms: C_28  and  C_29
REMARK                            x       y       z     vdW  Elec       q    Type
REMARK                         _______ _______ _______ _____ _____    ______ ____
ROOT
ATOM      1  C   UNL     1      86.215  49.692  44.675  0.00  0.00    +0.132 A 
ATOM      2  C   UNL     1      85.968  48.310  44.672  0.00  0.00    +0.023 A 
ATOM      3  C   UNL     1      84.700  47.800  44.343  0.00  0.00    +0.133 A 
ATOM      4  C   UNL     1      83.651  48.694  44.022  0.00  0.00    +0.041 A 
ATOM      5  C   UNL     1      83.913  50.084  43.966  0.00  0.00    -0.022 A 
ATOM      6  C   UNL     1      85.188  50.579  44.320  0.00  0.00    +0.032 A 
ATOM      7  C   UNL     1      82.783  51.026  43.598  0.00  0.00    -0.004 C 
ATOM      8  C   UNL     1      81.838  50.346  42.596  0.00  0.00    +0.052 C 
ATOM      9  N   UNL     1      81.438  49.033  43.099  0.00  0.00    -0.284 NA
ATOM     10  C   UNL     1      82.257  48.235  43.721  0.00  0.00    +0.044 C 
ATOM     11  C   UNL     1      81.723  46.913  44.192  0.00  0.00    -0.022 C 
ATOM     12  C   UNL     1      80.596  51.198  42.340  0.00  0.00    -0.042 C 
ENDROOT
BRANCH   6  13
ATOM     13  C   UNL     1      85.465  52.037  44.336  0.00  0.00    +0.031 A 
ATOM     14  C   UNL     1      85.976  52.666  43.182  0.00  0.00    -0.039 A 
ATOM     15  C   UNL     1      86.248  51.882  41.923  0.00  0.00    -0.039 C 
ATOM     16  C   UNL     1      86.236  54.041  43.202  0.00  0.00    -0.050 A 
ATOM     17  C   UNL     1      85.987  54.802  44.349  0.00  0.00    -0.011 A 
ATOM     18  C   UNL     1      85.467  54.188  45.520  0.00  0.00    +0.066 A 
ATOM     19  C   UNL     1      85.209  52.794  45.505  0.00  0.00    +0.136 A 
ATOM     20  C   UNL     1      85.223  54.991  46.668  0.00  0.00    +0.131 A 
ATOM     21  C   UNL     1      85.504  56.371  46.619  0.00  0.00    -0.019 A 
ATOM     22  C   UNL     1      86.015  56.954  45.462  0.00  0.00    -0.058 A 
ATOM     23  C   UNL     1      86.256  56.178  44.334  0.00  0.00    -0.054 A 
BRANCH  19  24
ATOM     24  O   UNL     1      84.702  52.166  46.649  0.00  0.00    -0.505 OA
ATOM     25  H   UNL     1      84.904  51.267  46.818  0.00  0.00    +0.000 HD
ENDBRANCH  19  24
BRANCH  20  26
ATOM     26  O   UNL     1      84.706  54.406  47.837  0.00  0.00    -0.494 OA
ATOM     27  C   UNL     1      83.686  54.973  48.653  0.00  0.00    +0.079 C 
ENDBRANCH  20  26
ENDBRANCH   6  13
BRANCH   1  29
ATOM     28  C   UNL     1      88.003  50.253  46.342  0.00  0.00    +0.079 C 
ATOM     29  O   UNL     1      87.472  50.219  45.022  0.00  0.00    -0.494 OA
ENDBRANCH   1  29
BRANCH   3  30
ATOM     30  O   UNL     1      84.465  46.414  44.308  0.00  0.00    -0.494 OA
ATOM     31  C   UNL     1      85.392  45.416  44.724  0.00  0.00    +0.079 C 
ENDBRANCH   3  30
TORSDOF 5
ENDMDL
MODEL 6
REMARK VINA RESULT:    -8.622      2.386      7.141
REMARK INTER + INTRA:         -12.000
REMARK INTER:                 -10.745
REMARK INTRA:                  -1.255
REMARK UNBOUND:                -1.109
REMARK  Name = 
REMARK  11 active torsions:
REMARK  status: ('A' for Active; 'I' for Inactive)
REMARK    1  A    between atoms: C_1  and  O_2
REMARK    2  A    between atoms: O_2  and  C_3
REMARK    3  A    between atoms: C_5  and  O_6
REMARK    4  A    between atoms: O_6  and  C_7
REMARK    5  A    between atoms: C_10  and  C_11
REMARK    6  A    between atoms: C_12  and  C_13
REMARK    7  A    between atoms: C_17  and  O_18
REMARK    8  A    between atoms: C_19  and  O_20
REMARK    9  A    between atoms: O_20  and  C_21
REMARK   10  A    between atoms: C_26  and  C_30
REMARK   11  A    between atoms: C_28  and  C_29
REMARK                            x       y       z     vdW  Elec       q    Type
REMARK                         _______ _______ _______ _____ _____    ______ ____
ROOT
ATOM      1  C   UNL     1      86.302  51.884  46.283  0.00  0.00    +0.132 A 
ATOM      2  C   UNL     1      86.196  53.168  46.840  0.00  0.00    +0.023 A 
ATOM      3  C   UNL     1      85.999  54.298  46.028  0.00  0.00    +0.133 A 
ATOM      4  C   UNL     1      85.921  54.141  44.624  0.00  0.00    +0.041 A 
ATOM      5  C   UNL     1      85.968  52.842  44.064  0.00  0.00    -0.022 A 
ATOM      6  C   UNL     1      86.187  51.720  44.895  0.00  0.00    +0.032 A 
ATOM      7  C   UNL     1      85.860  52.690  42.559  0.00  0.00    -0.004 C 
ATOM      8  C   UNL     1      84.939  53.778  41.987  0.00  0.00    +0.052 C 
ATOM      9  N   UNL     1      85.359  55.093  42.468  0.00  0.00    -0.284 NA
ATOM     10  C   UNL     1      85.776  55.300  43.685  0.00  0.00    +0.044 C 
ATOM     11  C   UNL     1      86.182  56.696  44.056  0.00  0.00    -0.022 C 
ATOM     12  C   UNL     1      84.947  53.765  40.459  0.00  0.00    -0.042 C 
ENDROOT
BRANCH   6  13
ATOM     13  C   UNL     1      86.310  50.357  44.322  0.00  0.00    +0.031 A 
ATOM     14  C   UNL     1      85.168  49.536  44.215  0.00  0.00    -0.039 A 
ATOM     15  C   UNL     1      83.815  50.020  44.673  0.00  0.00    -0.039 C 
ATOM     16  C   UNL     1      85.289  48.251  43.675  0.00  0.00    -0.050 A 
ATOM     17  C   UNL     1      86.527  47.772  43.232  0.00  0.00    -0.011 A 
ATOM     18  C   UNL     1      87.687  48.586  43.325  0.00  0.00    +0.066 A 
ATOM     19  C   UNL     1      87.570  49.886  43.878  0.00  0.00    +0.136 A 
ATOM     20  C   UNL     1      88.929  48.069  42.863  0.00  0.00    +0.131 A 
ATOM     21  C   UNL     1      88.980  46.767  42.326  0.00  0.00    -0.019 A 
ATOM     22  C   UNL     1      87.831  45.985  42.244  0.00  0.00    -0.058 A 
ATOM     23  C   UNL     1      86.612  46.480  42.693  0.00  0.00    -0.054 A 
BRANCH  19  24
ATOM     24  O   UNL     1      88.701  50.703  43.987  0.00  0.00    -0.505 OA
ATOM     25  H   UNL     1      89.503  50.449  43.574  0.00  0.00    +0.000 HD
ENDBRANCH  19  24
BRANCH  20  26
ATOM     26  O   UNL     1      90.091  48.857  42.944  0.00  0.00    -0.494 OA
ATOM     27  C   UNL     1      91.262  48.515  43.678  0.00  0.00    +0.079 C 
ENDBRANCH  20  26
ENDBRANCH   6  13
BRANCH   1  29
ATOM     28  C   UNL     1      87.738  50.443  47.751  0.00  0.00    +0.079 C 
ATOM     29  O   UNL     1      86.520  50.746  47.081  0.00  0.00    -0.494 OA
ENDBRANCH   1  29
BRANCH   3  30
ATOM     30  O   UNL     1      85.859  55.578  46.592  0.00  0.00    -0.494 OA
ATOM     31  C   UNL     1      84.726  56.029  47.327  0.00  0.00    +0.079 C 
ENDBRANCH   3  30
TORSDOF 5
ENDMDL
MODEL 7
REMARK VINA RESULT:    -8.437      2.216      4.322
REMARK INTER + INTRA:         -11.767
REMARK INTER:                 -11.051
REMARK INTRA:                  -0.716
REMARK UNBOUND:                -1.109
REMARK  Name = 
REMARK  11 active torsions:
REMARK  status: ('A' for Active; 'I' for Inactive)
REMARK    1  A    between atoms: C_1  and  O_2
REMARK    2  A    between atoms: O_2  and  C_3
REMARK    3  A    between atoms: C_5  and  O_6
REMARK    4  A    between atoms: O_6  and  C_7
REMARK    5  A    between atoms: C_10  and  C_11
REMARK    6  A    between atoms: C_12  and  C_13
REMARK    7  A    between atoms: C_17  and  O_18
REMARK    8  A    between atoms: C_19  and  O_20
REMARK    9  A    between atoms: O_20  and  C_21
REMARK   10  A    between atoms: C_26  and  C_30
REMARK   11  A    between atoms: C_28  and  C_29
REMARK                            x       y       z     vdW  Elec       q    Type
REMARK                         _______ _______ _______ _____ _____    ______ ____
ROOT
ATOM      1  C   UNL     1      84.979  49.178  43.942  0.00  0.00    +0.132 A 
ATOM      2  C   UNL     1      84.851  47.787  43.804  0.00  0.00    +0.023 A 
ATOM      3  C   UNL     1      85.948  46.990  43.432  0.00  0.00    +0.133 A 
ATOM      4  C   UNL     1      87.199  47.603  43.179  0.00  0.00    +0.041 A 
ATOM      5  C   UNL     1      87.345  48.997  43.375  0.00  0.00    -0.022 A 
ATOM      6  C   UNL     1      86.226  49.783  43.729  0.00  0.00    +0.032 A 
ATOM      7  C   UNL     1      88.699  49.632  43.121  0.00  0.00    -0.004 C 
ATOM      8  C   UNL     1      89.818  48.648  43.490  0.00  0.00    +0.052 C 
ATOM      9  N   UNL     1      89.585  47.359  42.840  0.00  0.00    -0.284 NA
ATOM     10  C   UNL     1      88.400  46.833  42.718  0.00  0.00    +0.044 C 
ATOM     11  C   UNL     1      88.292  45.505  42.028  0.00  0.00    -0.022 C 
ATOM     12  C   UNL     1      91.188  49.187  43.081  0.00  0.00    -0.042 C 
ENDROOT
BRANCH   6  13
ATOM     13  C   UNL     1      86.341  51.256  43.871  0.00  0.00    +0.031 A 
ATOM     14  C   UNL     1      86.468  52.063  42.721  0.00  0.00    -0.039 A 
ATOM     15  C   UNL     1      86.489  51.455  41.341  0.00  0.00    -0.039 C 
ATOM     16  C   UNL     1      86.577  53.451  42.860  0.00  0.00    -0.050 A 
ATOM     17  C   UNL     1      86.552  54.051  44.123  0.00  0.00    -0.011 A 
ATOM     18  C   UNL     1      86.418  53.256  45.293  0.00  0.00    +0.066 A 
ATOM     19  C   UNL     1      86.315  51.848  45.157  0.00  0.00    +0.136 A 
ATOM     20  C   UNL     1      86.395  53.897  46.562  0.00  0.00    +0.131 A 
ATOM     21  C   UNL     1      86.504  55.301  46.630  0.00  0.00    -0.019 A 
ATOM     22  C   UNL     1      86.636  56.062  45.472  0.00  0.00    -0.058 A 
ATOM     23  C   UNL     1      86.660  55.445  44.226  0.00  0.00    -0.054 A 
BRANCH  19  24
ATOM     24  O   UNL     1      86.189  51.044  46.296  0.00  0.00    -0.505 OA
ATOM     25  H   UNL     1      85.458  51.158  46.871  0.00  0.00    +0.000 HD
ENDBRANCH  19  24
BRANCH  20  26
ATOM     26  O   UNL     1      86.261  53.131  47.734  0.00  0.00    -0.494 OA
ATOM     27  C   UNL     1      85.388  53.439  48.816  0.00  0.00    +0.079 C 
ENDBRANCH  20  26
ENDBRANCH   6  13
BRANCH   1  29
ATOM     28  C   UNL     1      82.530  49.559  44.331  0.00  0.00    +0.079 C 
ATOM     29  O   UNL     1      83.886  49.991  44.294  0.00  0.00    -0.494 OA
ENDBRANCH   1  29
BRANCH   3  30
ATOM     30  O   UNL     1      85.826  45.594  43.329  0.00  0.00    -0.494 OA
ATOM     31  C   UNL     1      85.577  44.711  44.418  0.00  0.00    +0.079 C 
ENDBRANCH   3  30
TORSDOF 5
ENDMDL
MODEL 8
REMARK VINA RESULT:    -8.414      2.313      7.027
REMARK INTER + INTRA:         -11.737
REMARK INTER:                 -10.495
REMARK INTRA:                  -1.242
REMARK UNBOUND:                -1.109
REMARK  Name = 
REMARK  11 active torsions:
REMARK  status: ('A' for Active; 'I' for Inactive)
REMARK    1  A    between atoms: C_1  and  O_2
REMARK    2  A    between atoms: O_2  and  C_3
REMARK    3  A    between atoms: C_5  and  O_6
REMARK    4  A    between atoms: O_6  and  C_7
REMARK    5  A    between atoms: C_10  and  C_11
REMARK    6  A    between atoms: C_12  and  C_13
REMARK    7  A    between atoms: C_17  and  O_18
REMARK    8  A    between atoms: C_19  and  O_20
REMARK    9  A    between atoms: O_20  and  C_21
REMARK   10  A    between atoms: C_26  and  C_30
REMARK   11  A    between atoms: C_28  and  C_29
REMARK                            x       y       z     vdW  Elec       q    Type
REMARK                         _______ _______ _______ _____ _____    ______ ____
ROOT
ATOM      1  C   UNL     1      84.973  53.263  43.122  0.00  0.00    +0.132 A 
ATOM      2  C   UNL     1      84.714  54.619  43.384  0.00  0.00    +0.023 A 
ATOM      3  C   UNL     1      84.650  55.105  44.701  0.00  0.00    +0.133 A 
ATOM      4  C   UNL     1      84.837  54.212  45.783  0.00  0.00    +0.041 A 
ATOM      5  C   UNL     1      85.158  52.858  45.522  0.00  0.00    -0.022 A 
ATOM      6  C   UNL     1      85.197  52.384  44.192  0.00  0.00    +0.032 A 
ATOM      7  C   UNL     1      85.378  51.921  46.694  0.00  0.00    -0.004 C 
ATOM      8  C   UNL     1      86.012  52.685  47.865  0.00  0.00    +0.052 C 
ATOM      9  N   UNL     1      85.241  53.894  48.150  0.00  0.00    -0.284 NA
ATOM     10  C   UNL     1      84.724  54.639  47.215  0.00  0.00    +0.044 C 
ATOM     11  C   UNL     1      83.950  55.854  47.636  0.00  0.00    -0.022 C 
ATOM     12  C   UNL     1      86.084  51.816  49.120  0.00  0.00    -0.042 C 
ENDROOT
BRANCH   6  13
ATOM     13  C   UNL     1      85.462  50.953  43.898  0.00  0.00    +0.031 A 
ATOM     14  C   UNL     1      84.401  50.024  43.926  0.00  0.00    -0.039 A 
ATOM     15  C   UNL     1      82.993  50.459  44.250  0.00  0.00    -0.039 C 
ATOM     16  C   UNL     1      84.655  48.677  43.649  0.00  0.00    -0.050 A 
ATOM     17  C   UNL     1      85.946  48.239  43.336  0.00  0.00    -0.011 A 
ATOM     18  C   UNL     1      87.027  49.160  43.297  0.00  0.00    +0.066 A 
ATOM     19  C   UNL     1      86.774  50.526  43.584  0.00  0.00    +0.136 A 
ATOM     20  C   UNL     1      88.326  48.683  42.973  0.00  0.00    +0.131 A 
ATOM     21  C   UNL     1      88.512  47.312  42.701  0.00  0.00    -0.019 A 
ATOM     22  C   UNL     1      87.440  46.425  42.745  0.00  0.00    -0.058 A 
ATOM     23  C   UNL     1      86.165  46.882  43.061  0.00  0.00    -0.054 A 
BRANCH  19  24
ATOM     24  O   UNL     1      87.825  51.450  43.557  0.00  0.00    -0.505 OA
ATOM     25  H   UNL     1      87.942  52.046  44.271  0.00  0.00    +0.000 HD
ENDBRANCH  19  24
BRANCH  20  26
ATOM     26  O   UNL     1      89.412  49.576  42.926  0.00  0.00    -0.494 OA
ATOM     27  C   UNL     1      90.689  49.283  42.369  0.00  0.00    +0.079 C 
ENDBRANCH  20  26
ENDBRANCH   6  13
BRANCH   1  29
ATOM     28  C   UNL     1      86.026  53.071  40.854  0.00  0.00    +0.079 C 
ATOM     29  O   UNL     1      85.020  52.757  41.811  0.00  0.00    -0.494 OA
ENDBRANCH   1  29
BRANCH   3  30
ATOM     30  O   UNL     1      84.424  56.469  44.958  0.00  0.00    -0.494 OA
ATOM     31  C   UNL     1      85.175  57.542  44.399  0.00  0.00    +0.079 C 
ENDBRANCH   3  30
TORSDOF 5
ENDMDL
MODEL 9
REMARK VINA RESULT:    -8.358      1.753      2.213
REMARK INTER + INTRA:         -11.667
REMARK INTER:                 -10.557
REMARK INTRA:                  -1.109
REMARK UNBOUND:                -1.109
REMARK  Name = 
REMARK  11 active torsions:
REMARK  status: ('A' for Active; 'I' for Inactive)
REMARK    1  A    between atoms: C_1  and  O_2
REMARK    2  A    between atoms: O_2  and  C_3
REMARK    3  A    between atoms: C_5  and  O_6
REMARK    4  A    between atoms: O_6  and  C_7
REMARK    5  A    between atoms: C_10  and  C_11
REMARK    6  A    between atoms: C_12  and  C_13
REMARK    7  A    between atoms: C_17  and  O_18
REMARK    8  A    between atoms: C_19  and  O_20
REMARK    9  A    between atoms: O_20  and  C_21
REMARK   10  A    between atoms: C_26  and  C_30
REMARK   11  A    between atoms: C_28  and  C_29
REMARK                            x       y       z     vdW  Elec       q    Type
REMARK                         _______ _______ _______ _____ _____    ______ ____
ROOT
ATOM      1  C   UNL     1      85.929  49.579  43.890  0.00  0.00    +0.132 A 
ATOM      2  C   UNL     1      85.935  48.181  43.765  0.00  0.00    +0.023 A 
ATOM      3  C   UNL     1      84.737  47.447  43.753  0.00  0.00    +0.133 A 
ATOM      4  C   UNL     1      83.503  48.127  43.883  0.00  0.00    +0.041 A 
ATOM      5  C   UNL     1      83.490  49.541  43.950  0.00  0.00    -0.022 A 
ATOM      6  C   UNL     1      84.706  50.260  43.981  0.00  0.00    +0.032 A 
ATOM      7  C   UNL     1      82.157  50.255  44.066  0.00  0.00    -0.004 C 
ATOM      8  C   UNL     1      81.077  49.477  43.300  0.00  0.00    +0.052 C 
ATOM      9  N   UNL     1      81.087  48.073  43.707  0.00  0.00    -0.284 NA
ATOM     10  C   UNL     1      82.186  47.415  43.943  0.00  0.00    +0.044 C 
ATOM     11  C   UNL     1      82.064  45.978  44.358  0.00  0.00    -0.022 C 
ATOM     12  C   UNL     1      79.689  50.071  43.542  0.00  0.00    -0.042 C 
ENDROOT
BRANCH   6  13
ATOM     13  C   UNL     1      84.718  51.737  44.121  0.00  0.00    +0.031 A 
ATOM     14  C   UNL     1      84.980  52.320  45.378  0.00  0.00    -0.039 A 
ATOM     15  C   UNL     1      85.251  51.465  46.591  0.00  0.00    -0.039 C 
ATOM     16  C   UNL     1      84.989  53.713  45.506  0.00  0.00    -0.050 A 
ATOM     17  C   UNL     1      84.751  54.537  44.401  0.00  0.00    -0.011 A 
ATOM     18  C   UNL     1      84.492  53.969  43.124  0.00  0.00    +0.066 A 
ATOM     19  C   UNL     1      84.474  52.557  42.993  0.00  0.00    +0.136 A 
ATOM     20  C   UNL     1      84.255  54.835  42.022  0.00  0.00    +0.131 A 
ATOM     21  C   UNL     1      84.283  56.231  42.219  0.00  0.00    -0.019 A 
ATOM     22  C   UNL     1      84.539  56.767  43.478  0.00  0.00    -0.058 A 
ATOM     23  C   UNL     1      84.771  55.929  44.563  0.00  0.00    -0.054 A 
BRANCH  19  24
ATOM     24  O   UNL     1      84.214  51.976  41.746  0.00  0.00    -0.505 OA
ATOM     25  H   UNL     1      83.719  51.182  41.694  0.00  0.00    +0.000 HD
ENDBRANCH  19  24
BRANCH  20  26
ATOM     26  O   UNL     1      83.998  54.297  40.748  0.00  0.00    -0.494 OA
ATOM     27  C   UNL     1      84.567  54.768  39.531  0.00  0.00    +0.079 C 
ENDBRANCH  20  26
ENDBRANCH   6  13
BRANCH   1  29
ATOM     28  C   UNL     1      88.278  49.976  44.676  0.00  0.00    +0.079 C 
ATOM     29  O   UNL     1      87.121  50.325  43.924  0.00  0.00    -0.494 OA
ENDBRANCH   1  29
BRANCH   3  30
ATOM     30  O   UNL     1      84.745  46.050  43.594  0.00  0.00    -0.494 OA
ATOM     31  C   UNL     1      85.756  45.310  42.916  0.00  0.00    +0.079 C 
ENDBRANCH   3  30
TORSDOF 5
ENDMDL
