=
 OpenBabel08112514243D

 33 36  0  0  1  0  0  0  0  0999 V2000
   87.2510   50.8070   45.2750 C   0  0  0  0  0  0  0  0  0  0  0  0
   87.0930   52.1530   45.6310 C   0  0  0  0  0  3  0  0  0  0  0  0
   86.7790   53.1210   44.6690 C   0  0  0  0  0  0  0  0  0  0  0  0
   86.6590   54.5530   45.1310 C   0  0  0  0  0  2  0  0  0  0  0  0
   86.5770   55.5270   43.9470 C   0  0  2  0  0  3  0  0  0  0  0  0
   86.2700   56.9620   44.4020 C   0  0  0  0  0  1  0  0  0  0  0  0
   85.6210   55.0440   42.9240 N   0  0  0  0  0  4  0  0  0  0  0  0
   86.1620   53.8140   42.2820 C   0  0  1  0  0  3  0  0  0  0  0  0
   86.5460   52.7390   43.3200 C   0  0  0  0  0  0  0  0  0  0  0  0
   86.8180   51.3980   42.9490 C   0  0  0  0  0  0  0  0  0  0  0  0
   87.1370   50.4360   43.9280 C   0  0  0  0  0  0  0  0  0  0  0  0
   85.2080   53.3240   41.1700 C   0  0  0  0  0  1  0  0  0  0  0  0
   84.2430   54.8580   43.4460 C   0  0  0  0  0  1  0  0  0  0  0  0
   85.5260   55.7700   42.2130 H   0  0  0  0  0  0  0  0  0  0  0  0
   87.3530   49.0210   43.5350 C   0  0  0  0  0  0  0  0  0  0  0  0
   88.6480   48.5760   43.1820 C   0  0  0  0  0  0  0  0  0  0  0  0
   89.8410   49.4990   43.2180 C   0  0  0  0  0  1  0  0  0  0  0  0
   88.8440   47.2380   42.8250 C   0  0  0  0  0  3  0  0  0  0  0  0
   87.7720   46.3410   42.7760 C   0  0  0  0  0  0  0  0  0  0  0  0
   86.4610   46.7710   43.1100 C   0  0  0  0  0  0  0  0  0  0  0  0
   86.2610   48.1200   43.5040 C   0  0  0  0  0  0  0  0  0  0  0  0
   85.3930   45.8350   43.0460 C   0  0  0  0  0  0  0  0  0  0  0  0
   85.6590   44.5070   42.6580 C   0  0  0  0  0  3  0  0  0  0  0  0
   86.9530   44.1040   42.3360 C   0  0  0  0  0  3  0  0  0  0  0  0
   88.0040   45.0130   42.3940 C   0  0  0  0  0  3  0  0  0  0  0  0
   84.9820   48.5510   43.8760 O   0  0  0  0  0  0  0  0  0  0  0  0
   84.7520   48.6090   44.7820 H   0  0  0  0  0  0  0  0  0  0  0  0
   84.0850   46.2390   43.3670 O   0  0  0  0  0  0  0  0  0  0  0  0
   83.2010   45.5320   44.2330 C   0  0  0  0  0  1  0  0  0  0  0  0
   87.5660   50.0300   47.6370 C   0  0  0  0  0  1  0  0  0  0  0  0
   87.5290   49.8140   46.2300 O   0  0  0  0  0  0  0  0  0  0  0  0
   86.7760   51.0060   41.6090 O   0  0  0  0  0  0  0  0  0  0  0  0
   87.8930   51.1780   40.7460 C   0  0  0  0  0  1  0  0  0  0  0  0
  1  2  1  0  0  0  0
  1 31  1  0  0  0  0
  3  4  1  0  0  0  0
  3  2  2  0  0  0  0
  5  6  1  1  0  0  0
  5  4  1  0  0  0  0
  7 13  1  0  0  0  0
  7  5  1  0  0  0  0
  8 12  1  6  0  0  0
  8  7  1  0  0  0  0
  8  9  1  0  0  0  0
  9  3  1  0  0  0  0
 10  9  2  0  0  0  0
 10 11  1  0  0  0  0
 11  1  2  0  0  0  0
 14  7  1  0  0  0  0
 15 11  1  0  0  0  0
 16 17  1  0  0  0  0
 16 15  2  0  0  0  0
 18 16  1  0  0  0  0
 19 18  2  0  0  0  0
 19 20  1  0  0  0  0
 20 21  2  0  0  0  0
 21 15  1  0  0  0  0
 21 26  1  0  0  0  0
 22 20  1  0  0  0  0
 22 28  1  0  0  0  0
 23 22  2  0  0  0  0
 24 25  2  0  0  0  0
 24 23  1  0  0  0  0
 25 19  1  0  0  0  0
 26 27  1  0  0  0  0
 28 29  1  0  0  0  0
 31 30  1  0  0  0  0
 32 10  1  0  0  0  0
 33 32  1  0  0  0  0
M  END
>  <MODEL>
1

>  <REMARK>
 VINA RESULT:   -10.013      0.000      0.000
 INTER + INTRA:         -12.564
 INTER:                 -11.647
 INTRA:                  -0.917
 UNBOUND:                 0.083
  Name = 
  12 active torsions:
  status: ('A' for Active; 'I' for Inactive)
    1  A    between atoms: C_1  and  O_2
    2  A    between atoms: O_2  and  C_3
    3  A    between atoms: C_7  and  C_8
    4  A    between atoms: N_9  and  C_31
    5  A    between atoms: C_10  and  C_30
    6  A    between atoms: C_12  and  O_28
    7  A    between atoms: C_13  and  C_14
    8  A    between atoms: C_15  and  C_16
    9  A    between atoms: C_20  and  O_21
   10  A    between atoms: C_22  and  O_23
   11  A    between atoms: O_23  and  C_24
   12  A    between atoms: O_28  and  C_29
                            x       y       z     vdW  Elec       q    Type
                         _______ _______ _______ _____ _____    ______ ____

>  <TORSDO>
F 5

$$$$
=
 OpenBabel08112514243D

 33 36  0  0  1  0  0  0  0  0999 V2000
   86.2460   51.8760   45.8260 C   0  0  0  0  0  0  0  0  0  0  0  0
   86.3280   53.2470   46.1000 C   0  0  0  0  0  3  0  0  0  0  0  0
   86.1200   54.1970   45.0920 C   0  0  0  0  0  0  0  0  0  0  0  0
   86.2600   55.6540   45.4650 C   0  0  0  0  0  2  0  0  0  0  0  0
   86.2690   56.5590   44.2250 C   0  0  2  0  0  3  0  0  0  0  0  0
   86.2250   58.0490   44.5980 C   0  0  0  0  0  1  0  0  0  0  0  0
   85.1910   56.1830   43.2810 N   0  0  0  0  0  4  0  0  0  0  0  0
   85.4890   54.8450   42.6960 C   0  0  1  0  0  3  0  0  0  0  0  0
   85.7530   53.7830   43.7840 C   0  0  0  0  0  0  0  0  0  0  0  0
   85.7830   52.3970   43.4890 C   0  0  0  0  0  0  0  0  0  0  0  0
   85.9970   51.4520   44.5130 C   0  0  0  0  0  0  0  0  0  0  0  0
   84.4070   54.4560   41.6650 C   0  0  0  0  0  1  0  0  0  0  0  0
   83.8340   56.2560   43.8780 C   0  0  0  0  0  1  0  0  0  0  0  0
   85.1750   56.8720   42.5290 H   0  0  0  0  0  0  0  0  0  0  0  0
   85.9600   50.0010   44.2040 C   0  0  0  0  0  0  0  0  0  0  0  0
   87.1480   49.3240   43.8450 C   0  0  0  0  0  0  0  0  0  0  0  0
   88.4790   50.0330   43.7900 C   0  0  0  0  0  1  0  0  0  0  0  0
   87.1040   47.9540   43.5670 C   0  0  0  0  0  3  0  0  0  0  0  0
   85.8970   47.2500   43.6030 C   0  0  0  0  0  0  0  0  0  0  0  0
   84.6890   47.9140   43.9450 C   0  0  0  0  0  0  0  0  0  0  0  0
   84.7320   49.2970   44.2600 C   0  0  0  0  0  0  0  0  0  0  0  0
   83.4780   47.1690   43.9690 C   0  0  0  0  0  0  0  0  0  0  0  0
   83.5040   45.7950   43.6590 C   0  0  0  0  0  3  0  0  0  0  0  0
   84.7000   45.1620   43.3280 C   0  0  0  0  0  3  0  0  0  0  0  0
   85.8890   45.8820   43.3000 C   0  0  0  0  0  3  0  0  0  0  0  0
   83.5580   49.9590   44.6380 O   0  0  0  0  0  0  0  0  0  0  0  0
   83.2770   50.7190   44.1690 H   0  0  0  0  0  0  0  0  0  0  0  0
   82.2690   47.8060   44.3010 O   0  0  0  0  0  0  0  0  0  0  0  0
   80.9970   47.1670   44.3540 C   0  0  0  0  0  1  0  0  0  0  0  0
   87.6580   50.5810   47.4420 C   0  0  0  0  0  1  0  0  0  0  0  0
   86.4140   50.9070   46.8310 O   0  0  0  0  0  0  0  0  0  0  0  0
   85.6020   51.9410   42.1810 O   0  0  0  0  0  0  0  0  0  0  0  0
   86.6850   51.8580   41.2630 C   0  0  0  0  0  1  0  0  0  0  0  0
  1  2  1  0  0  0  0
  1 31  1  0  0  0  0
  3  4  1  0  0  0  0
  3  2  2  0  0  0  0
  5  6  1  1  0  0  0
  5  4  1  0  0  0  0
  7 13  1  0  0  0  0
  7  5  1  0  0  0  0
  8 12  1  1  0  0  0
  8  7  1  0  0  0  0
  8  9  1  0  0  0  0
  9  3  1  0  0  0  0
 10  9  2  0  0  0  0
 10 11  1  0  0  0  0
 11  1  2  0  0  0  0
 14  7  1  0  0  0  0
 15 21  1  0  0  0  0
 15 11  1  0  0  0  0
 16 15  2  0  0  0  0
 17 16  1  0  0  0  0
 18 19  2  0  0  0  0
 18 16  1  0  0  0  0
 19 20  1  0  0  0  0
 20 22  1  0  0  0  0
 20 21  2  0  0  0  0
 21 26  1  0  0  0  0
 22 28  1  0  0  0  0
 23 22  2  0  0  0  0
 24 23  1  0  0  0  0
 25 24  2  0  0  0  0
 25 19  1  0  0  0  0
 27 26  1  0  0  0  0
 28 29  1  0  0  0  0
 31 30  1  0  0  0  0
 32 10  1  0  0  0  0
 33 32  1  0  0  0  0
M  END
>  <MODEL>
2

>  <REMARK>
 VINA RESULT:    -9.698      1.463      1.850
 INTER + INTRA:         -12.166
 INTER:                 -11.179
 INTRA:                  -0.987
 UNBOUND:                 0.083
  Name = 
  12 active torsions:
  status: ('A' for Active; 'I' for Inactive)
    1  A    between atoms: C_1  and  O_2
    2  A    between atoms: O_2  and  C_3
    3  A    between atoms: C_7  and  C_8
    4  A    between atoms: N_9  and  C_31
    5  A    between atoms: C_10  and  C_30
    6  A    between atoms: C_12  and  O_28
    7  A    between atoms: C_13  and  C_14
    8  A    between atoms: C_15  and  C_16
    9  A    between atoms: C_20  and  O_21
   10  A    between atoms: C_22  and  O_23
   11  A    between atoms: O_23  and  C_24
   12  A    between atoms: O_28  and  C_29
                            x       y       z     vdW  Elec       q    Type
                         _______ _______ _______ _____ _____    ______ ____

>  <TORSDO>
F 5

$$$$
=
 OpenBabel08112514243D

 33 36  0  0  1  0  0  0  0  0999 V2000
   86.4110   51.7060   45.6180 C   0  0  0  0  0  0  0  0  0  0  0  0
   86.4210   53.0690   45.9420 C   0  0  0  0  0  3  0  0  0  0  0  0
   86.1900   54.0440   44.9630 C   0  0  0  0  0  0  0  0  0  0  0  0
   86.2520   55.4910   45.3900 C   0  0  0  0  0  2  0  0  0  0  0  0
   86.2460   56.4390   44.1820 C   0  0  2  0  0  3  0  0  0  0  0  0
   86.1210   57.9110   44.6060 C   0  0  0  0  0  1  0  0  0  0  0  0
   85.2090   56.0470   43.2000 N   0  0  0  0  0  4  0  0  0  0  0  0
   85.5840   54.7470   42.5770 C   0  0  1  0  0  3  0  0  0  0  0  0
   85.8730   53.6600   43.6320 C   0  0  0  0  0  0  0  0  0  0  0  0
   85.9760   52.2880   43.2900 C   0  0  0  0  0  0  0  0  0  0  0  0
   86.2120   51.3190   44.2860 C   0  0  0  0  0  0  0  0  0  0  0  0
   84.5450   54.3450   41.5060 C   0  0  0  0  0  1  0  0  0  0  0  0
   83.8360   56.0340   43.7660 C   0  0  0  0  0  1  0  0  0  0  0  0
   85.1760   56.7610   42.4730 H   0  0  0  0  0  0  0  0  0  0  0  0
   86.2520   49.8790   43.9250 C   0  0  0  0  0  0  0  0  0  0  0  0
   85.0720   49.1020   43.9890 C   0  0  0  0  0  0  0  0  0  0  0  0
   83.7480   49.7040   44.3910 C   0  0  0  0  0  1  0  0  0  0  0  0
   85.1170   47.7500   43.6370 C   0  0  0  0  0  3  0  0  0  0  0  0
   86.3190   47.1440   43.2570 C   0  0  0  0  0  0  0  0  0  0  0  0
   87.5190   47.9010   43.2020 C   0  0  0  0  0  0  0  0  0  0  0  0
   87.4730   49.2820   43.5280 C   0  0  0  0  0  0  0  0  0  0  0  0
   88.7240   47.2540   42.8160 C   0  0  0  0  0  0  0  0  0  0  0  0
   88.7000   45.8820   42.4940 C   0  0  0  0  0  3  0  0  0  0  0  0
   87.5120   45.1580   42.5510 C   0  0  0  0  0  3  0  0  0  0  0  0
   86.3280   45.7810   42.9300 C   0  0  0  0  0  3  0  0  0  0  0  0
   88.6380   50.0530   43.4410 O   0  0  0  0  0  0  0  0  0  0  0  0
   88.5830   50.9600   43.2120 H   0  0  0  0  0  0  0  0  0  0  0  0
   89.9250   47.9830   42.7590 O   0  0  0  0  0  0  0  0  0  0  0  0
   91.0710   47.7320   43.5680 C   0  0  0  0  0  1  0  0  0  0  0  0
   87.8340   50.4550   47.2590 C   0  0  0  0  0  1  0  0  0  0  0  0
   86.6030   50.7100   46.5920 O   0  0  0  0  0  0  0  0  0  0  0  0
   85.8470   51.8720   41.9630 O   0  0  0  0  0  0  0  0  0  0  0  0
   86.9510   51.8820   41.0670 C   0  0  0  0  0  1  0  0  0  0  0  0
  1  2  1  0  0  0  0
  1 31  1  0  0  0  0
  3  4  1  0  0  0  0
  3  2  2  0  0  0  0
  5  6  1  1  0  0  0
  5  4  1  0  0  0  0
  7 13  1  0  0  0  0
  7  5  1  0  0  0  0
  8 12  1  6  0  0  0
  8  7  1  0  0  0  0
  8  9  1  0  0  0  0
  9  3  1  0  0  0  0
 10  9  2  0  0  0  0
 10 11  1  0  0  0  0
 11  1  2  0  0  0  0
 14  7  1  0  0  0  0
 15 16  1  0  0  0  0
 15 11  1  0  0  0  0
 16 17  1  0  0  0  0
 18 16  2  0  0  0  0
 19 18  1  0  0  0  0
 20 19  1  0  0  0  0
 20 21  1  0  0  0  0
 21 15  2  0  0  0  0
 22 20  2  0  0  0  0
 23 24  2  0  0  0  0
 23 22  1  0  0  0  0
 24 25  1  0  0  0  0
 25 19  2  0  0  0  0
 26 21  1  0  0  0  0
 27 26  1  0  0  0  0
 28 22  1  0  0  0  0
 28 29  1  0  0  0  0
 31 30  1  0  0  0  0
 32 10  1  0  0  0  0
 33 32  1  0  0  0  0
M  END
>  <MODEL>
3

>  <REMARK>
 VINA RESULT:    -9.636      1.727      2.844
 INTER + INTRA:         -12.088
 INTER:                 -11.157
 INTRA:                  -0.931
 UNBOUND:                 0.083
  Name = 
  12 active torsions:
  status: ('A' for Active; 'I' for Inactive)
    1  A    between atoms: C_1  and  O_2
    2  A    between atoms: O_2  and  C_3
    3  A    between atoms: C_7  and  C_8
    4  A    between atoms: N_9  and  C_31
    5  A    between atoms: C_10  and  C_30
    6  A    between atoms: C_12  and  O_28
    7  A    between atoms: C_13  and  C_14
    8  A    between atoms: C_15  and  C_16
    9  A    between atoms: C_20  and  O_21
   10  A    between atoms: C_22  and  O_23
   11  A    between atoms: O_23  and  C_24
   12  A    between atoms: O_28  and  C_29
                            x       y       z     vdW  Elec       q    Type
                         _______ _______ _______ _____ _____    ______ ____

>  <TORSDO>
F 5

$$$$
=
 OpenBabel08112514243D

 33 36  0  0  1  0  0  0  0  0999 V2000
   88.3970   48.7990   43.0160 C   0  0  0  0  0  0  0  0  0  0  0  0
   88.6690   47.4480   42.7580 C   0  0  0  0  0  3  0  0  0  0  0  0
   87.7990   46.4420   43.1960 C   0  0  0  0  0  0  0  0  0  0  0  0
   88.1840   45.0110   42.9050 C   0  0  0  0  0  2  0  0  0  0  0  0
   87.2910   44.0180   43.6640 C   0  0  2  0  0  3  0  0  0  0  0  0
   87.5500   42.5660   43.2340 C   0  0  0  0  0  1  0  0  0  0  0  0
   85.8620   44.3910   43.5510 N   0  0  0  0  0  4  0  0  0  0  0  0
   85.6220   45.6600   44.2930 C   0  0  1  0  0  3  0  0  0  0  0  0
   86.5860   46.7810   43.8530 C   0  0  0  0  0  0  0  0  0  0  0  0
   86.3750   48.1370   44.2080 C   0  0  0  0  0  0  0  0  0  0  0  0
   87.2610   49.1390   43.7630 C   0  0  0  0  0  0  0  0  0  0  0  0
   84.1250   46.0400   44.2380 C   0  0  0  0  0  1  0  0  0  0  0  0
   85.3770   44.4490   42.1490 C   0  0  0  0  0  1  0  0  0  0  0  0
   85.3070   43.6510   43.9810 H   0  0  0  0  0  0  0  0  0  0  0  0
   86.9940   50.5630   44.0850 C   0  0  0  0  0  0  0  0  0  0  0  0
   87.2580   51.0560   45.3840 C   0  0  0  0  0  0  0  0  0  0  0  0
   87.8390   50.1750   46.4630 C   0  0  0  0  0  1  0  0  0  0  0  0
   87.0140   52.4020   45.6730 C   0  0  0  0  0  3  0  0  0  0  0  0
   86.4760   53.2600   44.7090 C   0  0  0  0  0  0  0  0  0  0  0  0
   86.1870   52.7820   43.4040 C   0  0  0  0  0  0  0  0  0  0  0  0
   86.4630   51.4250   43.0940 C   0  0  0  0  0  0  0  0  0  0  0  0
   85.6380   53.6810   42.4480 C   0  0  0  0  0  0  0  0  0  0  0  0
   85.3980   55.0190   42.8150 C   0  0  0  0  0  3  0  0  0  0  0  0
   85.6910   55.4700   44.1000 C   0  0  0  0  0  3  0  0  0  0  0  0
   86.2270   54.5980   45.0420 C   0  0  0  0  0  3  0  0  0  0  0  0
   86.2220   50.9460   41.8010 O   0  0  0  0  0  0  0  0  0  0  0  0
   85.4950   50.3790   41.6390 H   0  0  0  0  0  0  0  0  0  0  0  0
   85.3390   53.2280   41.1500 O   0  0  0  0  0  0  0  0  0  0  0  0
   84.6180   53.9720   40.1720 C   0  0  0  0  0  1  0  0  0  0  0  0
   89.4770   50.1210   41.1810 C   0  0  0  0  0  1  0  0  0  0  0  0
   89.2370   49.8260   42.5530 O   0  0  0  0  0  0  0  0  0  0  0  0
   85.2890   48.5060   45.0040 O   0  0  0  0  0  0  0  0  0  0  0  0
   84.1460   49.1520   44.4560 C   0  0  0  0  0  1  0  0  0  0  0  0
  1 11  1  0  0  0  0
  2  1  2  0  0  0  0
  2  3  1  0  0  0  0
  3  9  2  0  0  0  0
  4  3  1  0  0  0  0
  4  5  1  0  0  0  0
  5  6  1  6  0  0  0
  7  5  1  0  0  0  0
  7 14  1  0  0  0  0
  7  8  1  0  0  0  0
  8 12  1  6  0  0  0
  9 10  1  0  0  0  0
  9  8  1  0  0  0  0
 10 32  1  0  0  0  0
 11 15  1  0  0  0  0
 11 10  2  0  0  0  0
 13  7  1  0  0  0  0
 15 16  1  0  0  0  0
 16 18  2  0  0  0  0
 16 17  1  0  0  0  0
 19 25  1  0  0  0  0
 19 18  1  0  0  0  0
 20 19  2  0  0  0  0
 21 20  1  0  0  0  0
 21 15  2  0  0  0  0
 22 23  2  0  0  0  0
 22 20  1  0  0  0  0
 23 24  1  0  0  0  0
 24 25  2  0  0  0  0
 26 21  1  0  0  0  0
 27 26  1  0  0  0  0
 28 22  1  0  0  0  0
 29 28  1  0  0  0  0
 30 31  1  0  0  0  0
 31  1  1  0  0  0  0
 33 32  1  0  0  0  0
M  END
>  <MODEL>
4

>  <REMARK>
 VINA RESULT:    -8.991      2.263      7.601
 INTER + INTRA:         -11.273
 INTER:                 -11.104
 INTRA:                  -0.169
 UNBOUND:                 0.083
  Name = 
  12 active torsions:
  status: ('A' for Active; 'I' for Inactive)
    1  A    between atoms: C_1  and  O_2
    2  A    between atoms: O_2  and  C_3
    3  A    between atoms: C_7  and  C_8
    4  A    between atoms: N_9  and  C_31
    5  A    between atoms: C_10  and  C_30
    6  A    between atoms: C_12  and  O_28
    7  A    between atoms: C_13  and  C_14
    8  A    between atoms: C_15  and  C_16
    9  A    between atoms: C_20  and  O_21
   10  A    between atoms: C_22  and  O_23
   11  A    between atoms: O_23  and  C_24
   12  A    between atoms: O_28  and  C_29
                            x       y       z     vdW  Elec       q    Type
                         _______ _______ _______ _____ _____    ______ ____

>  <TORSDO>
F 5

$$$$
=
 OpenBabel08112514243D

 33 36  0  0  1  0  0  0  0  0999 V2000
   85.2140   48.5080   44.2680 C   0  0  0  0  0  0  0  0  0  0  0  0
   85.1670   47.1330   44.0000 C   0  0  0  0  0  3  0  0  0  0  0  0
   86.2420   46.4820   43.3820 C   0  0  0  0  0  0  0  0  0  0  0  0
   86.0960   45.0060   43.1000 C   0  0  0  0  0  2  0  0  0  0  0  0
   87.2220   44.4880   42.1930 C   0  0  2  0  0  3  0  0  0  0  0  0
   87.1890   42.9580   42.0510 C   0  0  0  0  0  1  0  0  0  0  0  0
   88.5430   44.9830   42.6450 N   0  0  0  0  0  4  0  0  0  0  0  0
   88.6190   46.4550   42.4310 C   0  0  1  0  0  3  0  0  0  0  0  0
   87.4310   47.1970   43.0760 C   0  0  0  0  0  0  0  0  0  0  0  0
   87.4260   48.6050   43.2460 C   0  0  0  0  0  0  0  0  0  0  0  0
   86.3360   49.2460   43.8670 C   0  0  0  0  0  0  0  0  0  0  0  0
   90.0100   46.9860   42.8420 C   0  0  0  0  0  1  0  0  0  0  0  0
   88.8740   44.5900   44.0380 C   0  0  0  0  0  1  0  0  0  0  0  0
   89.2600   44.5320   42.0770 H   0  0  0  0  0  0  0  0  0  0  0  0
   86.3710   50.7120   44.1000 C   0  0  0  0  0  0  0  0  0  0  0  0
   86.9590   51.2260   45.2780 C   0  0  0  0  0  0  0  0  0  0  0  0
   87.5860   50.3220   46.3110 C   0  0  0  0  0  1  0  0  0  0  0  0
   86.9980   52.6090   45.4830 C   0  0  0  0  0  3  0  0  0  0  0  0
   86.4310   53.4900   44.5570 C   0  0  0  0  0  0  0  0  0  0  0  0
   85.8200   52.9950   43.3750 C   0  0  0  0  0  0  0  0  0  0  0  0
   85.8060   51.5940   43.1470 C   0  0  0  0  0  0  0  0  0  0  0  0
   85.2500   53.9180   42.4560 C   0  0  0  0  0  0  0  0  0  0  0  0
   85.3070   55.2970   42.7360 C   0  0  0  0  0  3  0  0  0  0  0  0
   85.9130   55.7640   43.9000 C   0  0  0  0  0  3  0  0  0  0  0  0
   86.4720   54.8690   44.8060 C   0  0  0  0  0  3  0  0  0  0  0  0
   85.2440   51.0900   41.9670 O   0  0  0  0  0  0  0  0  0  0  0  0
   85.3160   50.1770   41.7680 H   0  0  0  0  0  0  0  0  0  0  0  0
   84.6350   53.4500   41.2810 O   0  0  0  0  0  0  0  0  0  0  0  0
   84.5460   54.1780   40.0600 C   0  0  0  0  0  1  0  0  0  0  0  0
   82.9060   49.4830   44.3270 C   0  0  0  0  0  1  0  0  0  0  0  0
   84.1620   49.1730   44.9210 O   0  0  0  0  0  0  0  0  0  0  0  0
   88.4990   49.3810   42.8020 O   0  0  0  0  0  0  0  0  0  0  0  0
   88.5550   49.8860   41.4730 C   0  0  0  0  0  1  0  0  0  0  0  0
  1 31  1  0  0  0  0
  2  1  1  0  0  0  0
  3  2  2  0  0  0  0
  4  3  1  0  0  0  0
  5  6  1  1  0  0  0
  5  7  1  0  0  0  0
  5  4  1  0  0  0  0
  7 13  1  0  0  0  0
  8  7  1  0  0  0  0
  8 12  1  1  0  0  0
  8  9  1  0  0  0  0
  9 10  2  0  0  0  0
  9  3  1  0  0  0  0
 10 11  1  0  0  0  0
 11 15  1  0  0  0  0
 11  1  2  0  0  0  0
 14  7  1  0  0  0  0
 15 16  1  0  0  0  0
 16 18  2  0  0  0  0
 16 17  1  0  0  0  0
 19 25  1  0  0  0  0
 19 18  1  0  0  0  0
 20 19  2  0  0  0  0
 21 20  1  0  0  0  0
 21 15  2  0  0  0  0
 22 23  2  0  0  0  0
 22 20  1  0  0  0  0
 23 24  1  0  0  0  0
 24 25  2  0  0  0  0
 26 21  1  0  0  0  0
 27 26  1  0  0  0  0
 28 22  1  0  0  0  0
 29 28  1  0  0  0  0
 30 31  1  0  0  0  0
 32 10  1  0  0  0  0
 33 32  1  0  0  0  0
M  END
>  <MODEL>
5

>  <REMARK>
 VINA RESULT:    -8.833      2.370      7.495
 INTER + INTRA:         -11.074
 INTER:                 -10.045
 INTRA:                  -1.030
 UNBOUND:                 0.083
  Name = 
  12 active torsions:
  status: ('A' for Active; 'I' for Inactive)
    1  A    between atoms: C_1  and  O_2
    2  A    between atoms: O_2  and  C_3
    3  A    between atoms: C_7  and  C_8
    4  A    between atoms: N_9  and  C_31
    5  A    between atoms: C_10  and  C_30
    6  A    between atoms: C_12  and  O_28
    7  A    between atoms: C_13  and  C_14
    8  A    between atoms: C_15  and  C_16
    9  A    between atoms: C_20  and  O_21
   10  A    between atoms: C_22  and  O_23
   11  A    between atoms: O_23  and  C_24
   12  A    between atoms: O_28  and  C_29
                            x       y       z     vdW  Elec       q    Type
                         _______ _______ _______ _____ _____    ______ ____

>  <TORSDO>
F 5

$$$$
=
 OpenBabel08112514243D

 33 36  0  0  1  0  0  0  0  0999 V2000
   86.6950   50.7980   43.8190 C   0  0  0  0  0  0  0  0  0  0  0  0
   86.8690   49.4120   43.9310 C   0  0  0  0  0  3  0  0  0  0  0  0
   85.7700   48.5570   44.0800 C   0  0  0  0  0  0  0  0  0  0  0  0
   86.0470   47.0800   44.2270 C   0  0  0  0  0  2  0  0  0  0  0  0
   84.7900   46.3050   44.6450 C   0  0  2  0  0  3  0  0  0  0  0  0
   85.0140   44.7850   44.6170 C   0  0  0  0  0  1  0  0  0  0  0  0
   83.6160   46.7160   43.8390 N   0  0  0  0  0  4  0  0  0  0  0  0
   83.2490   48.1190   44.1790 C   0  0  1  0  0  3  0  0  0  0  0  0
   84.4490   49.0800   44.0520 C   0  0  0  0  0  0  0  0  0  0  0  0
   84.2870   50.4880   44.0530 C   0  0  0  0  0  0  0  0  0  0  0  0
   85.4040   51.3360   43.9050 C   0  0  0  0  0  0  0  0  0  0  0  0
   81.9920   48.5510   43.3930 C   0  0  0  0  0  1  0  0  0  0  0  0
   83.8040   46.5120   42.3800 C   0  0  0  0  0  1  0  0  0  0  0  0
   82.8370   46.1050   44.0820 H   0  0  0  0  0  0  0  0  0  0  0  0
   85.2150   52.8070   43.8400 C   0  0  0  0  0  0  0  0  0  0  0  0
   85.1810   53.4600   42.5860 C   0  0  0  0  0  0  0  0  0  0  0  0
   85.3040   52.6960   41.2910 C   0  0  0  0  0  1  0  0  0  0  0  0
   84.9920   54.8440   42.5350 C   0  0  0  0  0  3  0  0  0  0  0  0
   84.8720   55.5990   43.7070 C   0  0  0  0  0  0  0  0  0  0  0  0
   84.9210   54.9660   44.9760 C   0  0  0  0  0  0  0  0  0  0  0  0
   85.0800   53.5570   45.0340 C   0  0  0  0  0  0  0  0  0  0  0  0
   84.7990   55.7630   46.1480 C   0  0  0  0  0  0  0  0  0  0  0  0
   84.6310   57.1560   46.0220 C   0  0  0  0  0  3  0  0  0  0  0  0
   84.5830   57.7580   44.7670 C   0  0  0  0  0  3  0  0  0  0  0  0
   84.7030   56.9870   43.6150 C   0  0  0  0  0  3  0  0  0  0  0  0
   85.0900   52.9110   46.2760 O   0  0  0  0  0  0  0  0  0  0  0  0
   85.8830   52.5340   46.6010 H   0  0  0  0  0  0  0  0  0  0  0  0
   84.8490   55.1580   47.4160 O   0  0  0  0  0  0  0  0  0  0  0  0
   83.8410   55.2740   48.4170 C   0  0  0  0  0  1  0  0  0  0  0  0
   88.6060   51.6980   42.4710 C   0  0  0  0  0  1  0  0  0  0  0  0
   87.7820   51.6690   43.6310 O   0  0  0  0  0  0  0  0  0  0  0  0
   83.0220   51.0620   44.2000 O   0  0  0  0  0  0  0  0  0  0  0  0
   82.3010   51.5740   43.0870 C   0  0  0  0  0  1  0  0  0  0  0  0
  1 11  2  0  0  0  0
  1  2  1  0  0  0  0
  2  3  2  0  0  0  0
  3  4  1  0  0  0  0
  4  5  1  0  0  0  0
  5  6  1  6  0  0  0
  7 14  1  0  0  0  0
  7  8  1  0  0  0  0
  7  5  1  0  0  0  0
  8 12  1  6  0  0  0
  9 10  2  0  0  0  0
  9  3  1  0  0  0  0
  9  8  1  0  0  0  0
 10 32  1  0  0  0  0
 11 10  1  0  0  0  0
 13  7  1  0  0  0  0
 15 11  1  0  0  0  0
 15 21  1  0  0  0  0
 16 15  2  0  0  0  0
 17 16  1  0  0  0  0
 18 16  1  0  0  0  0
 18 19  2  0  0  0  0
 19 20  1  0  0  0  0
 20 21  2  0  0  0  0
 20 22  1  0  0  0  0
 21 26  1  0  0  0  0
 22 28  1  0  0  0  0
 23 22  2  0  0  0  0
 24 23  1  0  0  0  0
 25 19  1  0  0  0  0
 25 24  2  0  0  0  0
 26 27  1  0  0  0  0
 28 29  1  0  0  0  0
 30 31  1  0  0  0  0
 31  1  1  0  0  0  0
 33 32  1  0  0  0  0
M  END
>  <MODEL>
6

>  <REMARK>
 VINA RESULT:    -8.677      2.880      7.870
 INTER + INTRA:         -10.877
 INTER:                 -10.606
 INTRA:                  -0.271
 UNBOUND:                 0.083
  Name = 
  12 active torsions:
  status: ('A' for Active; 'I' for Inactive)
    1  A    between atoms: C_1  and  O_2
    2  A    between atoms: O_2  and  C_3
    3  A    between atoms: C_7  and  C_8
    4  A    between atoms: N_9  and  C_31
    5  A    between atoms: C_10  and  C_30
    6  A    between atoms: C_12  and  O_28
    7  A    between atoms: C_13  and  C_14
    8  A    between atoms: C_15  and  C_16
    9  A    between atoms: C_20  and  O_21
   10  A    between atoms: C_22  and  O_23
   11  A    between atoms: O_23  and  C_24
   12  A    between atoms: O_28  and  C_29
                            x       y       z     vdW  Elec       q    Type
                         _______ _______ _______ _____ _____    ______ ____

>  <TORSDO>
F 5

$$$$
=
 OpenBabel08112514243D

 33 36  0  0  1  0  0  0  0  0999 V2000
   85.5910   52.1940   43.1460 C   0  0  0  0  0  0  0  0  0  0  0  0
   85.1990   53.4930   43.4940 C   0  0  0  0  0  3  0  0  0  0  0  0
   85.0070   53.8540   44.8330 C   0  0  0  0  0  0  0  0  0  0  0  0
   84.5520   55.2650   45.1180 C   0  0  0  0  0  2  0  0  0  0  0  0
   84.1300   55.4400   46.5840 C   0  0  2  0  0  3  0  0  0  0  0  0
   83.8430   56.9090   46.9300 C   0  0  0  0  0  1  0  0  0  0  0  0
   85.1190   54.8280   47.5020 N   0  0  0  0  0  4  0  0  0  0  0  0
   85.0930   53.3480   47.3420 C   0  0  1  0  0  3  0  0  0  0  0  0
   85.2740   52.9210   45.8700 C   0  0  0  0  0  0  0  0  0  0  0  0
   85.5590   51.5800   45.5060 C   0  0  0  0  0  0  0  0  0  0  0  0
   85.7460   51.2310   44.1530 C   0  0  0  0  0  0  0  0  0  0  0  0
   86.0770   52.6830   48.3300 C   0  0  0  0  0  1  0  0  0  0  0  0
   86.4840   55.3950   47.3590 C   0  0  0  0  0  1  0  0  0  0  0  0
   84.8470   55.0590   48.4580 H   0  0  0  0  0  0  0  0  0  0  0  0
   86.1110   49.8390   43.7890 C   0  0  0  0  0  0  0  0  0  0  0  0
   85.1210   48.8300   43.7770 C   0  0  0  0  0  0  0  0  0  0  0  0
   83.6780   49.1310   44.1000 C   0  0  0  0  0  1  0  0  0  0  0  0
   85.4720   47.5240   43.4210 C   0  0  0  0  0  3  0  0  0  0  0  0
   86.7950   47.1920   43.1130 C   0  0  0  0  0  0  0  0  0  0  0  0
   87.8080   48.1870   43.1360 C   0  0  0  0  0  0  0  0  0  0  0  0
   87.4520   49.5210   43.4650 C   0  0  0  0  0  0  0  0  0  0  0  0
   89.1440   47.8150   42.8210 C   0  0  0  0  0  0  0  0  0  0  0  0
   89.4300   46.4760   42.4920 C   0  0  0  0  0  3  0  0  0  0  0  0
   88.4220   45.5150   42.4720 C   0  0  0  0  0  3  0  0  0  0  0  0
   87.1120   45.8690   42.7800 C   0  0  0  0  0  3  0  0  0  0  0  0
   88.4300   50.5220   43.4530 O   0  0  0  0  0  0  0  0  0  0  0  0
   88.8260   50.8000   44.2560 H   0  0  0  0  0  0  0  0  0  0  0  0
   90.1650   48.7820   42.8420 O   0  0  0  0  0  0  0  0  0  0  0  0
   91.3830   48.6690   43.5730 C   0  0  0  0  0  1  0  0  0  0  0  0
   86.8200   52.4000   40.9710 C   0  0  0  0  0  1  0  0  0  0  0  0
   85.8260   51.8210   41.8110 O   0  0  0  0  0  0  0  0  0  0  0  0
   85.6580   50.5820   46.4780 O   0  0  0  0  0  0  0  0  0  0  0  0
   86.9180   50.0660   46.8910 C   0  0  0  0  0  1  0  0  0  0  0  0
  1  2  2  0  0  0  0
  1 11  1  0  0  0  0
  2  3  1  0  0  0  0
  3  4  1  0  0  0  0
  3  9  2  0  0  0  0
  4  5  1  0  0  0  0
  5  6  1  1  0  0  0
  5  7  1  0  0  0  0
  7 14  1  0  0  0  0
  8  7  1  0  0  0  0
  8 12  1  1  0  0  0
  9  8  1  0  0  0  0
 10  9  1  0  0  0  0
 10 32  1  0  0  0  0
 11 10  2  0  0  0  0
 13  7  1  0  0  0  0
 15 11  1  0  0  0  0
 16 15  1  0  0  0  0
 16 17  1  0  0  0  0
 18 16  2  0  0  0  0
 19 20  1  0  0  0  0
 19 18  1  0  0  0  0
 20 21  1  0  0  0  0
 21 15  2  0  0  0  0
 22 28  1  0  0  0  0
 22 20  2  0  0  0  0
 23 22  1  0  0  0  0
 24 23  2  0  0  0  0
 24 25  1  0  0  0  0
 25 19  2  0  0  0  0
 26 21  1  0  0  0  0
 26 27  1  0  0  0  0
 28 29  1  0  0  0  0
 30 31  1  0  0  0  0
 31  1  1  0  0  0  0
 32 33  1  0  0  0  0
M  END
>  <MODEL>
7

>  <REMARK>
 VINA RESULT:    -8.616      2.114      4.359
 INTER + INTRA:         -10.801
 INTER:                 -10.562
 INTRA:                  -0.239
 UNBOUND:                 0.083
  Name = 
  12 active torsions:
  status: ('A' for Active; 'I' for Inactive)
    1  A    between atoms: C_1  and  O_2
    2  A    between atoms: O_2  and  C_3
    3  A    between atoms: C_7  and  C_8
    4  A    between atoms: N_9  and  C_31
    5  A    between atoms: C_10  and  C_30
    6  A    between atoms: C_12  and  O_28
    7  A    between atoms: C_13  and  C_14
    8  A    between atoms: C_15  and  C_16
    9  A    between atoms: C_20  and  O_21
   10  A    between atoms: C_22  and  O_23
   11  A    between atoms: O_23  and  C_24
   12  A    between atoms: O_28  and  C_29
                            x       y       z     vdW  Elec       q    Type
                         _______ _______ _______ _____ _____    ______ ____

>  <TORSDO>
F 5

$$$$
=
 OpenBabel08112514243D

 33 36  0  0  1  0  0  0  0  0999 V2000
   87.0430   51.4850   41.8530 C   0  0  0  0  0  0  0  0  0  0  0  0
   86.5110   52.7800   41.9110 C   0  0  0  0  0  3  0  0  0  0  0  0
   86.0110   53.3000   43.1110 C   0  0  0  0  0  0  0  0  0  0  0  0
   85.4250   54.6920   43.0790 C   0  0  0  0  0  2  0  0  0  0  0  0
   84.6840   55.0260   44.3810 C   0  0  2  0  0  3  0  0  0  0  0  0
   84.2460   56.4970   44.4340 C   0  0  0  0  0  1  0  0  0  0  0  0
   85.4820   54.6340   45.5660 N   0  0  0  0  0  4  0  0  0  0  0  0
   85.5760   53.1480   45.6300 C   0  0  1  0  0  3  0  0  0  0  0  0
   86.0970   52.5430   44.3100 C   0  0  0  0  0  0  0  0  0  0  0  0
   86.5310   51.1960   44.2200 C   0  0  0  0  0  0  0  0  0  0  0  0
   87.0290   50.6850   43.0040 C   0  0  0  0  0  0  0  0  0  0  0  0
   86.3560   52.7130   46.8900 C   0  0  0  0  0  1  0  0  0  0  0  0
   86.8110   55.2940   45.6260 C   0  0  0  0  0  1  0  0  0  0  0  0
   84.9960   54.9670   46.3980 H   0  0  0  0  0  0  0  0  0  0  0  0
   87.5430   49.2940   42.9390 C   0  0  0  0  0  0  0  0  0  0  0  0
   88.9300   49.0590   42.7930 C   0  0  0  0  0  0  0  0  0  0  0  0
   89.9230   50.1930   42.7270 C   0  0  0  0  0  1  0  0  0  0  0  0
   89.4040   47.7450   42.7430 C   0  0  0  0  0  3  0  0  0  0  0  0
   88.5260   46.6590   42.8000 C   0  0  0  0  0  0  0  0  0  0  0  0
   87.1280   46.8720   42.9300 C   0  0  0  0  0  0  0  0  0  0  0  0
   86.6430   48.2030   43.0120 C   0  0  0  0  0  0  0  0  0  0  0  0
   86.2620   45.7460   42.9810 C   0  0  0  0  0  0  0  0  0  0  0  0
   86.8080   44.4490   42.9060 C   0  0  0  0  0  3  0  0  0  0  0  0
   88.1820   44.2610   42.7810 C   0  0  0  0  0  3  0  0  0  0  0  0
   89.0380   45.3560   42.7280 C   0  0  0  0  0  3  0  0  0  0  0  0
   85.2720   48.4320   43.1810 O   0  0  0  0  0  0  0  0  0  0  0  0
   84.9490   48.7560   43.9990 H   0  0  0  0  0  0  0  0  0  0  0  0
   84.8740   45.9330   43.1050 O   0  0  0  0  0  0  0  0  0  0  0  0
   84.0170   45.1650   43.9450 C   0  0  0  0  0  1  0  0  0  0  0  0
   88.4710   51.6560   39.8010 C   0  0  0  0  0  1  0  0  0  0  0  0
   87.5850   50.9570   40.6680 O   0  0  0  0  0  0  0  0  0  0  0  0
   86.4730   50.3520   45.3310 O   0  0  0  0  0  0  0  0  0  0  0  0
   87.6350   50.0270   46.0830 C   0  0  0  0  0  1  0  0  0  0  0  0
  1  2  2  0  0  0  0
  1 11  1  0  0  0  0
  2  3  1  0  0  0  0
  3  9  2  0  0  0  0
  4  3  1  0  0  0  0
  4  5  1  0  0  0  0
  5  6  1  1  0  0  0
  5  7  1  0  0  0  0
  7 13  1  0  0  0  0
  7  8  1  0  0  0  0
  7 14  1  0  0  0  0
  8 12  1  1  0  0  0
  9  8  1  0  0  0  0
 10  9  1  0  0  0  0
 10 32  1  0  0  0  0
 11 10  2  0  0  0  0
 15 11  1  0  0  0  0
 15 21  1  0  0  0  0
 16 15  2  0  0  0  0
 17 16  1  0  0  0  0
 18 16  1  0  0  0  0
 18 19  2  0  0  0  0
 19 20  1  0  0  0  0
 20 22  1  0  0  0  0
 20 21  2  0  0  0  0
 21 26  1  0  0  0  0
 22 28  1  0  0  0  0
 23 22  2  0  0  0  0
 24 23  1  0  0  0  0
 25 24  2  0  0  0  0
 25 19  1  0  0  0  0
 26 27  1  0  0  0  0
 28 29  1  0  0  0  0
 30 31  1  0  0  0  0
 31  1  1  0  0  0  0
 32 33  1  0  0  0  0
M  END
>  <MODEL>
8

>  <REMARK>
 VINA RESULT:    -8.547      1.185      2.927
 INTER + INTRA:         -10.712
 INTER:                 -10.795
 INTRA:                   0.083
 UNBOUND:                 0.083
  Name = 
  12 active torsions:
  status: ('A' for Active; 'I' for Inactive)
    1  A    between atoms: C_1  and  O_2
    2  A    between atoms: O_2  and  C_3
    3  A    between atoms: C_7  and  C_8
    4  A    between atoms: N_9  and  C_31
    5  A    between atoms: C_10  and  C_30
    6  A    between atoms: C_12  and  O_28
    7  A    between atoms: C_13  and  C_14
    8  A    between atoms: C_15  and  C_16
    9  A    between atoms: C_20  and  O_21
   10  A    between atoms: C_22  and  O_23
   11  A    between atoms: O_23  and  C_24
   12  A    between atoms: O_28  and  C_29
                            x       y       z     vdW  Elec       q    Type
                         _______ _______ _______ _____ _____    ______ ____

>  <TORSDO>
F 5

$$$$
=
 OpenBabel08112514243D

 33 36  0  0  1  0  0  0  0  0999 V2000
   85.0780   52.8640   43.2910 C   0  0  0  0  0  0  0  0  0  0  0  0
   84.7970   54.2180   43.5190 C   0  0  0  0  0  3  0  0  0  0  0  0
   84.7050   54.7250   44.8210 C   0  0  0  0  0  0  0  0  0  0  0  0
   84.3660   56.1880   44.9790 C   0  0  0  0  0  2  0  0  0  0  0  0
   84.0390   56.5410   46.4370 C   0  0  2  0  0  3  0  0  0  0  0  0
   83.8750   58.0550   46.6400 C   0  0  0  0  0  1  0  0  0  0  0  0
   85.0320   55.9530   47.3650 N   0  0  0  0  0  4  0  0  0  0  0  0
   84.8950   54.4700   47.3620 C   0  0  1  0  0  3  0  0  0  0  0  0
   84.9630   53.8840   45.9370 C   0  0  0  0  0  0  0  0  0  0  0  0
   85.1340   52.4960   45.7020 C   0  0  0  0  0  0  0  0  0  0  0  0
   85.2220   52.0000   44.3850 C   0  0  0  0  0  0  0  0  0  0  0  0
   85.8830   53.8360   48.3670 C   0  0  0  0  0  1  0  0  0  0  0  0
   86.4240   56.3990   47.0980 C   0  0  0  0  0  1  0  0  0  0  0  0
   84.8310   56.2980   48.3030 H   0  0  0  0  0  0  0  0  0  0  0  0
   85.4680   50.5540   44.1520 C   0  0  0  0  0  0  0  0  0  0  0  0
   86.7750   50.0960   43.8700 C   0  0  0  0  0  0  0  0  0  0  0  0
   87.9520   51.0400   43.8240 C   0  0  0  0  0  1  0  0  0  0  0  0
   86.9980   48.7320   43.6630 C   0  0  0  0  0  3  0  0  0  0  0  0
   85.9420   47.8160   43.6940 C   0  0  0  0  0  0  0  0  0  0  0  0
   84.6180   48.2560   43.9590 C   0  0  0  0  0  0  0  0  0  0  0  0
   84.3910   49.6360   44.2020 C   0  0  0  0  0  0  0  0  0  0  0  0
   83.5670   47.3000   43.9810 C   0  0  0  0  0  0  0  0  0  0  0  0
   83.8610   45.9420   43.7440 C   0  0  0  0  0  3  0  0  0  0  0  0
   85.1660   45.5300   43.4880 C   0  0  0  0  0  3  0  0  0  0  0  0
   86.2020   46.4590   43.4630 C   0  0  0  0  0  3  0  0  0  0  0  0
   83.0990   50.0820   44.5050 O   0  0  0  0  0  0  0  0  0  0  0  0
   82.8830   50.9900   44.4140 H   0  0  0  0  0  0  0  0  0  0  0  0
   82.2470   47.7130   44.2360 O   0  0  0  0  0  0  0  0  0  0  0  0
   81.1410   46.8380   44.4380 C   0  0  0  0  0  1  0  0  0  0  0  0
   86.2220   52.7260   41.0650 C   0  0  0  0  0  1  0  0  0  0  0  0
   85.2120   52.3420   41.9920 O   0  0  0  0  0  0  0  0  0  0  0  0
   85.2180   51.5970   46.7670 O   0  0  0  0  0  0  0  0  0  0  0  0
   86.4700   51.1220   47.2470 C   0  0  0  0  0  1  0  0  0  0  0  0
  1  2  2  0  0  0  0
  1 11  1  0  0  0  0
  2  3  1  0  0  0  0
  3  4  1  0  0  0  0
  3  9  2  0  0  0  0
  4  5  1  0  0  0  0
  5  6  1  6  0  0  0
  5  7  1  0  0  0  0
  7 14  1  0  0  0  0
  8  7  1  0  0  0  0
  8 12  1  1  0  0  0
  9  8  1  0  0  0  0
 10  9  1  0  0  0  0
 10 32  1  0  0  0  0
 11 10  2  0  0  0  0
 13  7  1  0  0  0  0
 15 21  1  0  0  0  0
 15 11  1  0  0  0  0
 16 15  2  0  0  0  0
 17 16  1  0  0  0  0
 18 19  2  0  0  0  0
 18 16  1  0  0  0  0
 19 20  1  0  0  0  0
 20 22  1  0  0  0  0
 20 21  2  0  0  0  0
 21 26  1  0  0  0  0
 22 28  1  0  0  0  0
 23 22  2  0  0  0  0
 24 23  1  0  0  0  0
 25 24  2  0  0  0  0
 25 19  1  0  0  0  0
 27 26  1  0  0  0  0
 28 29  1  0  0  0  0
 30 31  1  0  0  0  0
 31  1  1  0  0  0  0
 32 33  1  0  0  0  0
M  END
>  <MODEL>
9

>  <REMARK>
 VINA RESULT:    -8.543      2.155      3.860
 INTER + INTRA:         -10.708
 INTER:                 -10.456
 INTRA:                  -0.252
 UNBOUND:                 0.083
  Name = 
  12 active torsions:
  status: ('A' for Active; 'I' for Inactive)
    1  A    between atoms: C_1  and  O_2
    2  A    between atoms: O_2  and  C_3
    3  A    between atoms: C_7  and  C_8
    4  A    between atoms: N_9  and  C_31
    5  A    between atoms: C_10  and  C_30
    6  A    between atoms: C_12  and  O_28
    7  A    between atoms: C_13  and  C_14
    8  A    between atoms: C_15  and  C_16
    9  A    between atoms: C_20  and  O_21
   10  A    between atoms: C_22  and  O_23
   11  A    between atoms: O_23  and  C_24
   12  A    between atoms: O_28  and  C_29
                            x       y       z     vdW  Elec       q    Type
                         _______ _______ _______ _____ _____    ______ ____

>  <TORSDO>
F 5

$$$$
