MODEL 1
REMARK VINA RESULT:    -8.746      0.000      0.000
REMARK INTER + INTRA:         -12.752
REMARK INTER:                 -11.395
REMARK INTRA:                  -1.356
REMARK UNBOUND:                -1.449
REMARK  Name = 
REMARK  12 active torsions:
REMARK  status: ('A' for Active; 'I' for Inactive)
REMARK    1  A    between atoms: C_1  and  O_2
REMARK    2  A    between atoms: O_2  and  C_3
REMARK    3  A    between atoms: C_5  and  O_6
REMARK    4  A    between atoms: O_6  and  C_7
REMARK    5  A    between atoms: C_10  and  C_11
REMARK    6  A    between atoms: C_14  and  O_24
REMARK    7  A    between atoms: C_18  and  C_19
REMARK    8  A    between atoms: C_21  and  O_22
REMARK    9  A    between atoms: O_22  and  C_23
REMARK   10  A    between atoms: O_24  and  C_25
REMARK   11  A    between atoms: C_27  and  C_31
REMARK   12  A    between atoms: C_29  and  C_30
REMARK                            x       y       z     vdW  Elec       q    Type
REMARK                         _______ _______ _______ _____ _____    ______ ____
ROOT
ATOM      1  C   UNL     1      86.549  51.069  45.864  0.00  0.00    +0.132 A 
ATOM      2  C   UNL     1      86.739  52.403  46.254  0.00  0.00    +0.023 A 
ATOM      3  C   UNL     1      86.501  53.459  45.358  0.00  0.00    +0.129 A 
ATOM      4  C   UNL     1      86.013  53.183  44.060  0.00  0.00    +0.015 A 
ATOM      5  C   UNL     1      85.930  51.837  43.629  0.00  0.00    -0.027 A 
ATOM      6  C   UNL     1      86.154  50.787  44.549  0.00  0.00    +0.028 A 
ATOM      7  C   UNL     1      85.613  51.524  42.187  0.00  0.00    -0.011 C 
ATOM      8  C   UNL     1      85.961  52.698  41.267  0.00  0.00    +0.009 C 
ATOM      9  N   UNL     1      85.297  53.918  41.740  0.00  0.00    -0.307 N 
ATOM     10  C   UNL     1      85.683  54.342  43.107  0.00  0.00    +0.034 C 
ATOM     11  C   UNL     1      84.562  55.230  43.682  0.00  0.00    -0.045 C 
ATOM     12  C   UNL     1      87.476  52.900  41.102  0.00  0.00    -0.049 C 
ATOM     13  H   UNL     1      84.290  53.757  41.729  0.00  0.00    +0.000 HD
ATOM     14  H   UNL     1      85.588  54.668  41.112  0.00  0.00    +0.000 HD
ENDROOT
BRANCH   6  15
ATOM     15  C   UNL     1      86.007  49.369  44.139  0.00  0.00    -0.006 A 
ATOM     16  C   UNL     1      84.760  48.766  44.308  0.00  0.00    -0.050 A 
ATOM     17  C   UNL     1      84.559  47.439  43.948  0.00  0.00    -0.019 A 
ATOM     18  C   UNL     1      85.606  46.671  43.407  0.00  0.00    +0.131 A 
ATOM     19  C   UNL     1      86.886  47.262  43.223  0.00  0.00    +0.066 A 
ATOM     20  C   UNL     1      87.081  48.626  43.593  0.00  0.00    -0.003 A 
ATOM     21  C   UNL     1      88.342  49.223  43.401  0.00  0.00    -0.050 A 
ATOM     22  C   UNL     1      89.401  48.505  42.844  0.00  0.00    -0.046 A 
ATOM     23  C   UNL     1      90.744  49.153  42.678  0.00  0.00    -0.040 C 
ATOM     24  C   UNL     1      89.221  47.163  42.505  0.00  0.00    -0.016 A 
ATOM     25  C   UNL     1      87.977  46.529  42.680  0.00  0.00    +0.132 A 
BRANCH  25  26
ATOM     26  O   UNL     1      87.806  45.178  42.324  0.00  0.00    -0.494 OA
ATOM     27  C   UNL     1      88.396  44.072  42.999  0.00  0.00    +0.079 C 
ENDBRANCH  25  26
BRANCH  18  28
ATOM     28  O   UNL     1      85.394  45.328  43.046  0.00  0.00    -0.494 OA
ATOM     29  C   UNL     1      84.620  44.393  43.791  0.00  0.00    +0.079 C 
ENDBRANCH  18  28
ENDBRANCH   6  15
BRANCH   1  31
ATOM     30  C   UNL     1      87.503  50.086  47.965  0.00  0.00    +0.079 C 
ATOM     31  O   UNL     1      86.764  49.999  46.751  0.00  0.00    -0.494 OA
ENDBRANCH   1  31
BRANCH   3  32
ATOM     32  O   UNL     1      86.763  54.792  45.721  0.00  0.00    -0.495 OA
ATOM     33  C   UNL     1      86.300  55.420  46.912  0.00  0.00    +0.079 C 
ENDBRANCH   3  32
TORSDOF 5
ENDMDL
MODEL 2
REMARK VINA RESULT:    -8.518      2.062      7.192
REMARK INTER + INTRA:         -12.457
REMARK INTER:                 -11.204
REMARK INTRA:                  -1.253
REMARK UNBOUND:                -1.449
REMARK  Name = 
REMARK  12 active torsions:
REMARK  status: ('A' for Active; 'I' for Inactive)
REMARK    1  A    between atoms: C_1  and  O_2
REMARK    2  A    between atoms: O_2  and  C_3
REMARK    3  A    between atoms: C_5  and  O_6
REMARK    4  A    between atoms: O_6  and  C_7
REMARK    5  A    between atoms: C_10  and  C_11
REMARK    6  A    between atoms: C_14  and  O_24
REMARK    7  A    between atoms: C_18  and  C_19
REMARK    8  A    between atoms: C_21  and  O_22
REMARK    9  A    between atoms: O_22  and  C_23
REMARK   10  A    between atoms: O_24  and  C_25
REMARK   11  A    between atoms: C_27  and  C_31
REMARK   12  A    between atoms: C_29  and  C_30
REMARK                            x       y       z     vdW  Elec       q    Type
REMARK                         _______ _______ _______ _____ _____    ______ ____
ROOT
ATOM      1  C   UNL     1      85.544  49.387  43.598  0.00  0.00    +0.132 A 
ATOM      2  C   UNL     1      86.038  48.127  43.231  0.00  0.00    +0.023 A 
ATOM      3  C   UNL     1      87.350  47.978  42.750  0.00  0.00    +0.129 A 
ATOM      4  C   UNL     1      88.206  49.101  42.681  0.00  0.00    +0.015 A 
ATOM      5  C   UNL     1      87.675  50.387  42.942  0.00  0.00    -0.027 A 
ATOM      6  C   UNL     1      86.359  50.518  43.444  0.00  0.00    +0.028 A 
ATOM      7  C   UNL     1      88.508  51.617  42.674  0.00  0.00    -0.011 C 
ATOM      8  C   UNL     1      89.609  51.337  41.648  0.00  0.00    +0.009 C 
ATOM      9  N   UNL     1      90.417  50.191  42.080  0.00  0.00    -0.307 N 
ATOM     10  C   UNL     1      89.662  48.923  42.225  0.00  0.00    +0.034 C 
ATOM     11  C   UNL     1      90.434  47.998  43.185  0.00  0.00    -0.045 C 
ATOM     12  C   UNL     1      89.065  51.148  40.223  0.00  0.00    -0.049 C 
ATOM     13  H   UNL     1      90.835  50.418  42.982  0.00  0.00    +0.000 HD
ATOM     14  H   UNL     1      91.109  50.032  41.348  0.00  0.00    +0.000 HD
ENDROOT
BRANCH   6  15
ATOM     15  C   UNL     1      85.803  51.849  43.790  0.00  0.00    -0.006 A 
ATOM     16  C   UNL     1      85.296  52.634  42.755  0.00  0.00    -0.050 A 
ATOM     17  C   UNL     1      84.767  53.893  43.014  0.00  0.00    -0.019 A 
ATOM     18  C   UNL     1      84.731  54.406  44.324  0.00  0.00    +0.131 A 
ATOM     19  C   UNL     1      85.239  53.625  45.396  0.00  0.00    +0.066 A 
ATOM     20  C   UNL     1      85.778  52.332  45.120  0.00  0.00    -0.003 A 
ATOM     21  C   UNL     1      86.271  51.546  46.180  0.00  0.00    -0.050 A 
ATOM     22  C   UNL     1      86.231  52.006  47.496  0.00  0.00    -0.046 A 
ATOM     23  C   UNL     1      86.791  51.163  48.605  0.00  0.00    -0.040 C 
ATOM     24  C   UNL     1      85.729  53.280  47.767  0.00  0.00    -0.016 A 
ATOM     25  C   UNL     1      85.226  54.097  46.737  0.00  0.00    +0.132 A 
BRANCH  25  26
ATOM     26  O   UNL     1      84.712  55.375  47.025  0.00  0.00    -0.494 OA
ATOM     27  C   UNL     1      83.802  55.675  48.079  0.00  0.00    +0.079 C 
ENDBRANCH  25  26
BRANCH  18  28
ATOM     28  O   UNL     1      84.193  55.681  44.576  0.00  0.00    -0.494 OA
ATOM     29  C   UNL     1      84.202  56.769  43.657  0.00  0.00    +0.079 C 
ENDBRANCH  18  28
ENDBRANCH   6  15
BRANCH   1  31
ATOM     30  C   UNL     1      83.188  48.609  43.960  0.00  0.00    +0.079 C 
ATOM     31  O   UNL     1      84.241  49.556  44.100  0.00  0.00    -0.494 OA
ENDBRANCH   1  31
BRANCH   3  32
ATOM     32  O   UNL     1      87.823  46.729  42.310  0.00  0.00    -0.495 OA
ATOM     33  C   UNL     1      87.417  45.470  42.837  0.00  0.00    +0.079 C 
ENDBRANCH   3  32
TORSDOF 5
ENDMDL
MODEL 3
REMARK VINA RESULT:    -8.509      2.078      7.326
REMARK INTER + INTRA:         -12.445
REMARK INTER:                 -11.472
REMARK INTRA:                  -0.973
REMARK UNBOUND:                -1.449
REMARK  Name = 
REMARK  12 active torsions:
REMARK  status: ('A' for Active; 'I' for Inactive)
REMARK    1  A    between atoms: C_1  and  O_2
REMARK    2  A    between atoms: O_2  and  C_3
REMARK    3  A    between atoms: C_5  and  O_6
REMARK    4  A    between atoms: O_6  and  C_7
REMARK    5  A    between atoms: C_10  and  C_11
REMARK    6  A    between atoms: C_14  and  O_24
REMARK    7  A    between atoms: C_18  and  C_19
REMARK    8  A    between atoms: C_21  and  O_22
REMARK    9  A    between atoms: O_22  and  C_23
REMARK   10  A    between atoms: O_24  and  C_25
REMARK   11  A    between atoms: C_27  and  C_31
REMARK   12  A    between atoms: C_29  and  C_30
REMARK                            x       y       z     vdW  Elec       q    Type
REMARK                         _______ _______ _______ _____ _____    ______ ____
ROOT
ATOM      1  C   UNL     1      85.885  49.827  43.936  0.00  0.00    +0.132 A 
ATOM      2  C   UNL     1      86.229  48.656  43.244  0.00  0.00    +0.023 A 
ATOM      3  C   UNL     1      87.357  48.616  42.407  0.00  0.00    +0.129 A 
ATOM      4  C   UNL     1      88.191  49.752  42.296  0.00  0.00    +0.015 A 
ATOM      5  C   UNL     1      87.784  50.966  42.901  0.00  0.00    -0.027 A 
ATOM      6  C   UNL     1      86.657  50.984  43.756  0.00  0.00    +0.028 A 
ATOM      7  C   UNL     1      88.545  52.239  42.625  0.00  0.00    -0.011 C 
ATOM      8  C   UNL     1      89.319  52.157  41.307  0.00  0.00    +0.009 C 
ATOM      9  N   UNL     1      90.184  50.972  41.307  0.00  0.00    -0.307 N 
ATOM     10  C   UNL     1      89.464  49.683  41.439  0.00  0.00    +0.034 C 
ATOM     11  C   UNL     1      90.443  48.626  41.987  0.00  0.00    -0.045 C 
ATOM     12  C   UNL     1      88.405  52.197  40.073  0.00  0.00    -0.049 C 
ATOM     13  H   UNL     1      90.836  51.054  42.087  0.00  0.00    +0.000 HD
ATOM     14  H   UNL     1      90.648  50.952  40.399  0.00  0.00    +0.000 HD
ENDROOT
BRANCH   6  15
ATOM     15  C   UNL     1      86.251  52.227  44.455  0.00  0.00    -0.006 A 
ATOM     16  C   UNL     1      86.549  52.341  45.813  0.00  0.00    -0.050 A 
ATOM     17  C   UNL     1      86.190  53.478  46.525  0.00  0.00    -0.019 A 
ATOM     18  C   UNL     1      85.516  54.542  45.897  0.00  0.00    +0.131 A 
ATOM     19  C   UNL     1      85.202  54.452  44.514  0.00  0.00    +0.066 A 
ATOM     20  C   UNL     1      85.578  53.280  43.791  0.00  0.00    -0.003 A 
ATOM     21  C   UNL     1      85.283  53.189  42.416  0.00  0.00    -0.050 A 
ATOM     22  C   UNL     1      84.639  54.232  41.749  0.00  0.00    -0.046 A 
ATOM     23  C   UNL     1      84.306  54.099  40.291  0.00  0.00    -0.040 C 
ATOM     24  C   UNL     1      84.246  55.367  42.458  0.00  0.00    -0.016 A 
ATOM     25  C   UNL     1      84.523  55.498  43.832  0.00  0.00    +0.132 A 
BRANCH  25  26
ATOM     26  O   UNL     1      84.132  56.653  44.533  0.00  0.00    -0.494 OA
ATOM     27  C   UNL     1      84.774  57.921  44.448  0.00  0.00    +0.079 C 
ENDBRANCH  25  26
BRANCH  18  28
ATOM     28  O   UNL     1      85.156  55.689  46.626  0.00  0.00    -0.494 OA
ATOM     29  C   UNL     1      84.321  55.697  47.779  0.00  0.00    +0.079 C 
ENDBRANCH  18  28
ENDBRANCH   6  15
BRANCH   1  31
ATOM     30  C   UNL     1      83.415  49.874  44.363  0.00  0.00    +0.079 C 
ATOM     31  O   UNL     1      84.772  49.884  44.793  0.00  0.00    -0.494 OA
ENDBRANCH   1  31
BRANCH   3  32
ATOM     32  O   UNL     1      87.661  47.468  41.655  0.00  0.00    -0.495 OA
ATOM     33  C   UNL     1      87.843  46.162  42.194  0.00  0.00    +0.079 C 
ENDBRANCH   3  32
TORSDOF 5
ENDMDL
MODEL 4
REMARK VINA RESULT:    -8.380      2.229      4.831
REMARK INTER + INTRA:         -12.278
REMARK INTER:                 -11.007
REMARK INTRA:                  -1.271
REMARK UNBOUND:                -1.449
REMARK  Name = 
REMARK  12 active torsions:
REMARK  status: ('A' for Active; 'I' for Inactive)
REMARK    1  A    between atoms: C_1  and  O_2
REMARK    2  A    between atoms: O_2  and  C_3
REMARK    3  A    between atoms: C_5  and  O_6
REMARK    4  A    between atoms: O_6  and  C_7
REMARK    5  A    between atoms: C_10  and  C_11
REMARK    6  A    between atoms: C_14  and  O_24
REMARK    7  A    between atoms: C_18  and  C_19
REMARK    8  A    between atoms: C_21  and  O_22
REMARK    9  A    between atoms: O_22  and  C_23
REMARK   10  A    between atoms: O_24  and  C_25
REMARK   11  A    between atoms: C_27  and  C_31
REMARK   12  A    between atoms: C_29  and  C_30
REMARK                            x       y       z     vdW  Elec       q    Type
REMARK                         _______ _______ _______ _____ _____    ______ ____
ROOT
ATOM      1  C   UNL     1      85.083  53.300  43.358  0.00  0.00    +0.132 A 
ATOM      2  C   UNL     1      84.680  54.626  43.570  0.00  0.00    +0.023 A 
ATOM      3  C   UNL     1      84.718  55.197  44.854  0.00  0.00    +0.129 A 
ATOM      4  C   UNL     1      85.217  54.445  45.943  0.00  0.00    +0.015 A 
ATOM      5  C   UNL     1      85.516  53.074  45.752  0.00  0.00    -0.027 A 
ATOM      6  C   UNL     1      85.491  52.522  44.450  0.00  0.00    +0.028 A 
ATOM      7  C   UNL     1      85.849  52.202  46.938  0.00  0.00    -0.011 C 
ATOM      8  C   UNL     1      85.288  52.784  48.239  0.00  0.00    +0.009 C 
ATOM      9  N   UNL     1      85.748  54.167  48.408  0.00  0.00    -0.307 N 
ATOM     10  C   UNL     1      85.326  55.094  47.331  0.00  0.00    +0.034 C 
ATOM     11  C   UNL     1      86.294  56.293  47.306  0.00  0.00    -0.045 C 
ATOM     12  C   UNL     1      83.758  52.675  48.331  0.00  0.00    -0.049 C 
ATOM     13  H   UNL     1      86.767  54.162  48.442  0.00  0.00    +0.000 HD
ATOM     14  H   UNL     1      85.321  54.511  49.268  0.00  0.00    +0.000 HD
ENDROOT
BRANCH   6  15
ATOM     15  C   UNL     1      85.867  51.106  44.215  0.00  0.00    -0.006 A 
ATOM     16  C   UNL     1      87.223  50.799  44.105  0.00  0.00    -0.050 A 
ATOM     17  C   UNL     1      87.638  49.492  43.880  0.00  0.00    -0.019 A 
ATOM     18  C   UNL     1      86.703  48.448  43.756  0.00  0.00    +0.131 A 
ATOM     19  C   UNL     1      85.315  48.734  43.867  0.00  0.00    +0.066 A 
ATOM     20  C   UNL     1      84.899  50.079  44.101  0.00  0.00    -0.003 A 
ATOM     21  C   UNL     1      83.526  50.368  44.226  0.00  0.00    -0.050 A 
ATOM     22  C   UNL     1      82.567  49.359  44.135  0.00  0.00    -0.046 A 
ATOM     23  C   UNL     1      81.108  49.696  44.240  0.00  0.00    -0.040 C 
ATOM     24  C   UNL     1      82.969  48.047  43.880  0.00  0.00    -0.016 A 
ATOM     25  C   UNL     1      84.330  47.715  43.750  0.00  0.00    +0.132 A 
BRANCH  25  26
ATOM     26  O   UNL     1      84.723  46.387  43.504  0.00  0.00    -0.494 OA
ATOM     27  C   UNL     1      84.171  45.238  44.140  0.00  0.00    +0.079 C 
ENDBRANCH  25  26
BRANCH  18  28
ATOM     28  O   UNL     1      87.133  47.129  43.528  0.00  0.00    -0.494 OA
ATOM     29  C   UNL     1      87.982  46.717  42.462  0.00  0.00    +0.079 C 
ENDBRANCH  18  28
ENDBRANCH   6  15
BRANCH   1  31
ATOM     30  C   UNL     1      85.013  53.442  40.855  0.00  0.00    +0.079 C 
ATOM     31  O   UNL     1      85.071  52.716  42.078  0.00  0.00    -0.494 OA
ENDBRANCH   1  31
BRANCH   3  32
ATOM     32  O   UNL     1      84.243  56.500  45.083  0.00  0.00    -0.495 OA
ATOM     33  C   UNL     1      84.660  57.658  44.367  0.00  0.00    +0.079 C 
ENDBRANCH   3  32
TORSDOF 5
ENDMDL
MODEL 5
REMARK VINA RESULT:    -8.292      2.524      4.245
REMARK INTER + INTRA:         -12.164
REMARK INTER:                 -10.813
REMARK INTRA:                  -1.351
REMARK UNBOUND:                -1.449
REMARK  Name = 
REMARK  12 active torsions:
REMARK  status: ('A' for Active; 'I' for Inactive)
REMARK    1  A    between atoms: C_1  and  O_2
REMARK    2  A    between atoms: O_2  and  C_3
REMARK    3  A    between atoms: C_5  and  O_6
REMARK    4  A    between atoms: O_6  and  C_7
REMARK    5  A    between atoms: C_10  and  C_11
REMARK    6  A    between atoms: C_14  and  O_24
REMARK    7  A    between atoms: C_18  and  C_19
REMARK    8  A    between atoms: C_21  and  O_22
REMARK    9  A    between atoms: O_22  and  C_23
REMARK   10  A    between atoms: O_24  and  C_25
REMARK   11  A    between atoms: C_27  and  C_31
REMARK   12  A    between atoms: C_29  and  C_30
REMARK                            x       y       z     vdW  Elec       q    Type
REMARK                         _______ _______ _______ _____ _____    ______ ____
ROOT
ATOM      1  C   UNL     1      83.987  53.379  43.279  0.00  0.00    +0.132 A 
ATOM      2  C   UNL     1      84.226  54.757  43.394  0.00  0.00    +0.023 A 
ATOM      3  C   UNL     1      84.666  55.315  44.606  0.00  0.00    +0.129 A 
ATOM      4  C   UNL     1      84.924  54.476  45.715  0.00  0.00    +0.015 A 
ATOM      5  C   UNL     1      84.575  53.106  45.635  0.00  0.00    -0.027 A 
ATOM      6  C   UNL     1      84.153  52.557  44.402  0.00  0.00    +0.028 A 
ATOM      7  C   UNL     1      84.645  52.237  46.867  0.00  0.00    -0.011 C 
ATOM      8  C   UNL     1      84.558  53.070  48.149  0.00  0.00    +0.009 C 
ATOM      9  N   UNL     1      85.586  54.116  48.137  0.00  0.00    -0.307 N 
ATOM     10  C   UNL     1      85.475  55.079  47.015  0.00  0.00    +0.034 C 
ATOM     11  C   UNL     1      86.854  55.728  46.784  0.00  0.00    -0.045 C 
ATOM     12  C   UNL     1      83.156  53.650  48.390  0.00  0.00    -0.049 C 
ATOM     13  H   UNL     1      86.499  53.665  48.079  0.00  0.00    +0.000 HD
ATOM     14  H   UNL     1      85.461  54.655  48.994  0.00  0.00    +0.000 HD
ENDROOT
BRANCH   6  15
ATOM     15  C   UNL     1      83.848  51.110  44.276  0.00  0.00    -0.006 A 
ATOM     16  C   UNL     1      82.514  50.713  44.371  0.00  0.00    -0.050 A 
ATOM     17  C   UNL     1      82.165  49.372  44.267  0.00  0.00    -0.019 A 
ATOM     18  C   UNL     1      83.146  48.383  44.065  0.00  0.00    +0.131 A 
ATOM     19  C   UNL     1      84.512  48.762  43.963  0.00  0.00    +0.066 A 
ATOM     20  C   UNL     1      84.859  50.142  44.069  0.00  0.00    -0.003 A 
ATOM     21  C   UNL     1      86.210  50.528  43.955  0.00  0.00    -0.050 A 
ATOM     22  C   UNL     1      87.211  49.582  43.729  0.00  0.00    -0.046 A 
ATOM     23  C   UNL     1      88.646  50.013  43.643  0.00  0.00    -0.040 C 
ATOM     24  C   UNL     1      86.878  48.229  43.652  0.00  0.00    -0.016 A 
ATOM     25  C   UNL     1      85.541  47.802  43.760  0.00  0.00    +0.132 A 
BRANCH  25  26
ATOM     26  O   UNL     1      85.216  46.436  43.669  0.00  0.00    -0.494 OA
ATOM     27  C   UNL     1      85.771  45.406  44.481  0.00  0.00    +0.079 C 
ENDBRANCH  25  26
BRANCH  18  28
ATOM     28  O   UNL     1      82.782  47.028  43.961  0.00  0.00    -0.494 OA
ATOM     29  C   UNL     1      81.568  46.467  44.450  0.00  0.00    +0.079 C 
ENDBRANCH  18  28
ENDBRANCH   6  15
BRANCH   1  31
ATOM     30  C   UNL     1      82.421  53.206  41.328  0.00  0.00    +0.079 C 
ATOM     31  O   UNL     1      83.565  52.797  42.070  0.00  0.00    -0.494 OA
ENDBRANCH   1  31
BRANCH   3  32
ATOM     32  O   UNL     1      84.833  56.704  44.746  0.00  0.00    -0.495 OA
ATOM     33  C   UNL     1      85.579  57.531  43.858  0.00  0.00    +0.079 C 
ENDBRANCH   3  32
TORSDOF 5
ENDMDL
MODEL 6
REMARK VINA RESULT:    -8.174      2.259      4.010
REMARK INTER + INTRA:         -12.012
REMARK INTER:                 -10.854
REMARK INTRA:                  -1.158
REMARK UNBOUND:                -1.449
REMARK  Name = 
REMARK  12 active torsions:
REMARK  status: ('A' for Active; 'I' for Inactive)
REMARK    1  A    between atoms: C_1  and  O_2
REMARK    2  A    between atoms: O_2  and  C_3
REMARK    3  A    between atoms: C_5  and  O_6
REMARK    4  A    between atoms: O_6  and  C_7
REMARK    5  A    between atoms: C_10  and  C_11
REMARK    6  A    between atoms: C_14  and  O_24
REMARK    7  A    between atoms: C_18  and  C_19
REMARK    8  A    between atoms: C_21  and  O_22
REMARK    9  A    between atoms: O_22  and  C_23
REMARK   10  A    between atoms: O_24  and  C_25
REMARK   11  A    between atoms: C_27  and  C_31
REMARK   12  A    between atoms: C_29  and  C_30
REMARK                            x       y       z     vdW  Elec       q    Type
REMARK                         _______ _______ _______ _____ _____    ______ ____
ROOT
ATOM      1  C   UNL     1      84.413  53.576  43.378  0.00  0.00    +0.132 A 
ATOM      2  C   UNL     1      84.243  54.945  43.632  0.00  0.00    +0.023 A 
ATOM      3  C   UNL     1      84.515  55.484  44.901  0.00  0.00    +0.129 A 
ATOM      4  C   UNL     1      85.016  54.649  45.927  0.00  0.00    +0.015 A 
ATOM      5  C   UNL     1      85.079  53.252  45.706  0.00  0.00    -0.027 A 
ATOM      6  C   UNL     1      84.821  52.729  44.418  0.00  0.00    +0.028 A 
ATOM      7  C   UNL     1      85.409  52.322  46.848  0.00  0.00    -0.011 C 
ATOM      8  C   UNL     1      85.098  52.963  48.204  0.00  0.00    +0.009 C 
ATOM      9  N   UNL     1      85.778  54.258  48.314  0.00  0.00    -0.307 N 
ATOM     10  C   UNL     1      85.382  55.254  47.291  0.00  0.00    +0.034 C 
ATOM     11  C   UNL     1      86.511  56.293  47.151  0.00  0.00    -0.045 C 
ATOM     12  C   UNL     1      83.590  53.086  48.474  0.00  0.00    -0.049 C 
ATOM     13  H   UNL     1      86.782  54.098  48.230  0.00  0.00    +0.000 HD
ATOM     14  H   UNL     1      85.511  54.650  49.217  0.00  0.00    +0.000 HD
ENDROOT
BRANCH   6  15
ATOM     15  C   UNL     1      84.947  51.277  44.145  0.00  0.00    -0.006 A 
ATOM     16  C   UNL     1      83.909  50.441  44.559  0.00  0.00    -0.050 A 
ATOM     17  C   UNL     1      83.971  49.071  44.338  0.00  0.00    -0.019 A 
ATOM     18  C   UNL     1      85.079  48.492  43.693  0.00  0.00    +0.131 A 
ATOM     19  C   UNL     1      86.149  49.321  43.259  0.00  0.00    +0.066 A 
ATOM     20  C   UNL     1      86.074  50.728  43.489  0.00  0.00    -0.003 A 
ATOM     21  C   UNL     1      87.124  51.559  43.049  0.00  0.00    -0.050 A 
ATOM     22  C   UNL     1      88.230  51.029  42.383  0.00  0.00    -0.046 A 
ATOM     23  C   UNL     1      89.350  51.930  41.952  0.00  0.00    -0.040 C 
ATOM     24  C   UNL     1      88.318  49.651  42.180  0.00  0.00    -0.016 A 
ATOM     25  C   UNL     1      87.291  48.786  42.603  0.00  0.00    +0.132 A 
BRANCH  25  26
ATOM     26  O   UNL     1      87.387  47.400  42.382  0.00  0.00    -0.494 OA
ATOM     27  C   UNL     1      88.595  46.647  42.413  0.00  0.00    +0.079 C 
ENDBRANCH  25  26
BRANCH  18  28
ATOM     28  O   UNL     1      85.133  47.104  43.474  0.00  0.00    -0.494 OA
ATOM     29  C   UNL     1      84.012  46.279  43.171  0.00  0.00    +0.079 C 
ENDBRANCH  18  28
ENDBRANCH   6  15
BRANCH   1  31
ATOM     30  C   UNL     1      84.754  53.472  40.896  0.00  0.00    +0.079 C 
ATOM     31  O   UNL     1      84.165  53.020  42.110  0.00  0.00    -0.494 OA
ENDBRANCH   1  31
BRANCH   3  32
ATOM     32  O   UNL     1      84.274  56.841  45.179  0.00  0.00    -0.495 OA
ATOM     33  C   UNL     1      84.855  57.934  44.477  0.00  0.00    +0.079 C 
ENDBRANCH   3  32
TORSDOF 5
ENDMDL
MODEL 7
REMARK VINA RESULT:    -7.836      2.665      7.507
REMARK INTER + INTRA:         -11.576
REMARK INTER:                 -10.257
REMARK INTRA:                  -1.318
REMARK UNBOUND:                -1.449
REMARK  Name = 
REMARK  12 active torsions:
REMARK  status: ('A' for Active; 'I' for Inactive)
REMARK    1  A    between atoms: C_1  and  O_2
REMARK    2  A    between atoms: O_2  and  C_3
REMARK    3  A    between atoms: C_5  and  O_6
REMARK    4  A    between atoms: O_6  and  C_7
REMARK    5  A    between atoms: C_10  and  C_11
REMARK    6  A    between atoms: C_14  and  O_24
REMARK    7  A    between atoms: C_18  and  C_19
REMARK    8  A    between atoms: C_21  and  O_22
REMARK    9  A    between atoms: O_22  and  C_23
REMARK   10  A    between atoms: O_24  and  C_25
REMARK   11  A    between atoms: C_27  and  C_31
REMARK   12  A    between atoms: C_29  and  C_30
REMARK                            x       y       z     vdW  Elec       q    Type
REMARK                         _______ _______ _______ _____ _____    ______ ____
ROOT
ATOM      1  C   UNL     1      89.082  51.556  41.791  0.00  0.00    +0.132 A 
ATOM      2  C   UNL     1      90.028  50.546  42.017  0.00  0.00    +0.023 A 
ATOM      3  C   UNL     1      89.635  49.278  42.480  0.00  0.00    +0.129 A 
ATOM      4  C   UNL     1      88.264  48.994  42.674  0.00  0.00    +0.015 A 
ATOM      5  C   UNL     1      87.321  50.045  42.557  0.00  0.00    -0.027 A 
ATOM      6  C   UNL     1      87.731  51.308  42.071  0.00  0.00    +0.028 A 
ATOM      7  C   UNL     1      85.885  49.818  42.960  0.00  0.00    -0.011 C 
ATOM      8  C   UNL     1      85.755  48.657  43.950  0.00  0.00    +0.009 C 
ATOM      9  N   UNL     1      86.382  47.453  43.395  0.00  0.00    -0.307 N 
ATOM     10  C   UNL     1      87.831  47.586  43.109  0.00  0.00    +0.034 C 
ATOM     11  C   UNL     1      88.223  46.535  42.053  0.00  0.00    -0.045 C 
ATOM     12  C   UNL     1      86.305  48.997  45.344  0.00  0.00    -0.049 C 
ATOM     13  H   UNL     1      85.906  47.219  42.524  0.00  0.00    +0.000 HD
ATOM     14  H   UNL     1      86.294  46.726  44.106  0.00  0.00    +0.000 HD
ENDROOT
BRANCH   6  15
ATOM     15  C   UNL     1      86.750  52.404  41.874  0.00  0.00    -0.006 A 
ATOM     16  C   UNL     1      86.277  52.633  40.582  0.00  0.00    -0.050 A 
ATOM     17  C   UNL     1      85.362  53.648  40.332  0.00  0.00    -0.019 A 
ATOM     18  C   UNL     1      84.890  54.469  41.373  0.00  0.00    +0.131 A 
ATOM     19  C   UNL     1      85.355  54.254  42.699  0.00  0.00    +0.066 A 
ATOM     20  C   UNL     1      86.293  53.207  42.946  0.00  0.00    -0.003 A 
ATOM     21  C   UNL     1      86.748  52.979  44.260  0.00  0.00    -0.050 A 
ATOM     22  C   UNL     1      86.286  53.753  45.325  0.00  0.00    -0.046 A 
ATOM     23  C   UNL     1      86.809  53.512  46.711  0.00  0.00    -0.040 C 
ATOM     24  C   UNL     1      85.389  54.794  45.084  0.00  0.00    -0.016 A 
ATOM     25  C   UNL     1      84.909  55.055  43.786  0.00  0.00    +0.132 A 
BRANCH  25  26
ATOM     26  O   UNL     1      83.996  56.101  43.558  0.00  0.00    -0.494 OA
ATOM     27  C   UNL     1      84.209  57.465  43.906  0.00  0.00    +0.079 C 
ENDBRANCH  25  26
BRANCH  18  28
ATOM     28  O   UNL     1      83.963  55.494  41.110  0.00  0.00    -0.494 OA
ATOM     29  C   UNL     1      83.030  55.497  40.035  0.00  0.00    +0.079 C 
ENDBRANCH  18  28
ENDBRANCH   6  15
BRANCH   1  31
ATOM     30  C   UNL     1      90.331  53.053  40.215  0.00  0.00    +0.079 C 
ATOM     31  O   UNL     1      89.451  52.825  41.310  0.00  0.00    -0.494 OA
ENDBRANCH   1  31
BRANCH   3  32
ATOM     32  O   UNL     1      90.588  48.288  42.780  0.00  0.00    -0.495 OA
ATOM     33  C   UNL     1      91.397  48.261  43.951  0.00  0.00    +0.079 C 
ENDBRANCH   3  32
TORSDOF 5
ENDMDL
MODEL 8
REMARK VINA RESULT:    -7.585      2.346      7.387
REMARK INTER + INTRA:         -11.251
REMARK INTER:                 -10.020
REMARK INTRA:                  -1.231
REMARK UNBOUND:                -1.449
REMARK  Name = 
REMARK  12 active torsions:
REMARK  status: ('A' for Active; 'I' for Inactive)
REMARK    1  A    between atoms: C_1  and  O_2
REMARK    2  A    between atoms: O_2  and  C_3
REMARK    3  A    between atoms: C_5  and  O_6
REMARK    4  A    between atoms: O_6  and  C_7
REMARK    5  A    between atoms: C_10  and  C_11
REMARK    6  A    between atoms: C_14  and  O_24
REMARK    7  A    between atoms: C_18  and  C_19
REMARK    8  A    between atoms: C_21  and  O_22
REMARK    9  A    between atoms: O_22  and  C_23
REMARK   10  A    between atoms: O_24  and  C_25
REMARK   11  A    between atoms: C_27  and  C_31
REMARK   12  A    between atoms: C_29  and  C_30
REMARK                            x       y       z     vdW  Elec       q    Type
REMARK                         _______ _______ _______ _____ _____    ______ ____
ROOT
ATOM      1  C   UNL     1      89.367  47.566  42.741  0.00  0.00    +0.132 A 
ATOM      2  C   UNL     1      89.700  46.212  42.896  0.00  0.00    +0.023 A 
ATOM      3  C   UNL     1      88.700  45.227  42.978  0.00  0.00    +0.129 A 
ATOM      4  C   UNL     1      87.340  45.593  42.851  0.00  0.00    +0.015 A 
ATOM      5  C   UNL     1      87.000  46.967  42.809  0.00  0.00    -0.027 A 
ATOM      6  C   UNL     1      88.018  47.943  42.707  0.00  0.00    +0.028 A 
ATOM      7  C   UNL     1      85.552  47.388  42.884  0.00  0.00    -0.011 C 
ATOM      8  C   UNL     1      84.686  46.310  43.541  0.00  0.00    +0.009 C 
ATOM      9  N   UNL     1      84.867  45.030  42.847  0.00  0.00    -0.307 N 
ATOM     10  C   UNL     1      86.254  44.508  42.866  0.00  0.00    +0.034 C 
ATOM     11  C   UNL     1      86.429  43.532  41.686  0.00  0.00    -0.045 C 
ATOM     12  C   UNL     1      84.937  46.181  45.052  0.00  0.00    -0.049 C 
ATOM     13  H   UNL     1      84.586  45.153  41.874  0.00  0.00    +0.000 HD
ATOM     14  H   UNL     1      84.294  44.348  43.345  0.00  0.00    +0.000 HD
ENDROOT
BRANCH   6  15
ATOM     15  C   UNL     1      87.684  49.384  42.593  0.00  0.00    -0.006 A 
ATOM     16  C   UNL     1      87.528  49.920  41.315  0.00  0.00    -0.050 A 
ATOM     17  C   UNL     1      87.221  51.264  41.142  0.00  0.00    -0.019 A 
ATOM     18  C   UNL     1      87.060  52.117  42.249  0.00  0.00    +0.131 A 
ATOM     19  C   UNL     1      87.211  51.595  43.562  0.00  0.00    +0.066 A 
ATOM     20  C   UNL     1      87.524  50.213  43.729  0.00  0.00    -0.003 A 
ATOM     21  C   UNL     1      87.662  49.685  45.029  0.00  0.00    -0.050 A 
ATOM     22  C   UNL     1      87.486  50.491  46.154  0.00  0.00    -0.046 A 
ATOM     23  C   UNL     1      87.668  49.913  47.527  0.00  0.00    -0.040 C 
ATOM     24  C   UNL     1      87.205  51.848  45.994  0.00  0.00    -0.016 A 
ATOM     25  C   UNL     1      87.059  52.415  44.714  0.00  0.00    +0.132 A 
BRANCH  25  26
ATOM     26  O   UNL     1      86.765  53.783  44.567  0.00  0.00    -0.494 OA
ATOM     27  C   UNL     1      85.852  54.517  45.376  0.00  0.00    +0.079 C 
ENDBRANCH  25  26
BRANCH  18  28
ATOM     28  O   UNL     1      86.749  53.476  42.063  0.00  0.00    -0.494 OA
ATOM     29  C   UNL     1      85.536  53.969  41.505  0.00  0.00    +0.079 C 
ENDBRANCH  18  28
ENDBRANCH   6  15
BRANCH   1  31
ATOM     30  C   UNL     1      91.402  48.770  43.577  0.00  0.00    +0.079 C 
ATOM     31  O   UNL     1      90.352  48.565  42.638  0.00  0.00    -0.494 OA
ENDBRANCH   1  31
BRANCH   3  32
ATOM     32  O   UNL     1      89.027  43.880  43.209  0.00  0.00    -0.495 OA
ATOM     33  C   UNL     1      88.877  43.205  44.454  0.00  0.00    +0.079 C 
ENDBRANCH   3  32
TORSDOF 5
ENDMDL
MODEL 9
REMARK VINA RESULT:    -7.451      1.775      2.413
REMARK INTER + INTRA:         -11.077
REMARK INTER:                  -9.629
REMARK INTRA:                  -1.449
REMARK UNBOUND:                -1.449
REMARK  Name = 
REMARK  12 active torsions:
REMARK  status: ('A' for Active; 'I' for Inactive)
REMARK    1  A    between atoms: C_1  and  O_2
REMARK    2  A    between atoms: O_2  and  C_3
REMARK    3  A    between atoms: C_5  and  O_6
REMARK    4  A    between atoms: O_6  and  C_7
REMARK    5  A    between atoms: C_10  and  C_11
REMARK    6  A    between atoms: C_14  and  O_24
REMARK    7  A    between atoms: C_18  and  C_19
REMARK    8  A    between atoms: C_21  and  O_22
REMARK    9  A    between atoms: O_22  and  C_23
REMARK   10  A    between atoms: O_24  and  C_25
REMARK   11  A    between atoms: C_27  and  C_31
REMARK   12  A    between atoms: C_29  and  C_30
REMARK                            x       y       z     vdW  Elec       q    Type
REMARK                         _______ _______ _______ _____ _____    ______ ____
ROOT
ATOM      1  C   UNL     1      85.848  53.052  45.127  0.00  0.00    +0.132 A 
ATOM      2  C   UNL     1      85.546  54.411  45.295  0.00  0.00    +0.023 A 
ATOM      3  C   UNL     1      84.785  55.106  44.340  0.00  0.00    +0.129 A 
ATOM      4  C   UNL     1      84.270  54.420  43.216  0.00  0.00    +0.015 A 
ATOM      5  C   UNL     1      84.669  53.081  42.987  0.00  0.00    -0.027 A 
ATOM      6  C   UNL     1      85.418  52.390  43.968  0.00  0.00    +0.028 A 
ATOM      7  C   UNL     1      84.304  52.396  41.693  0.00  0.00    -0.011 C 
ATOM      8  C   UNL     1      84.025  53.409  40.579  0.00  0.00    +0.009 C 
ATOM      9  N   UNL     1      83.005  54.367  41.018  0.00  0.00    -0.307 N 
ATOM     10  C   UNL     1      83.378  55.164  42.211  0.00  0.00    +0.034 C 
ATOM     11  C   UNL     1      82.089  55.673  42.886  0.00  0.00    -0.045 C 
ATOM     12  C   UNL     1      85.296  54.116  40.082  0.00  0.00    -0.049 C 
ATOM     13  H   UNL     1      82.153  53.849  41.235  0.00  0.00    +0.000 HD
ATOM     14  H   UNL     1      82.883  55.032  40.254  0.00  0.00    +0.000 HD
ENDROOT
BRANCH   6  15
ATOM     15  C   UNL     1      85.789  50.966  43.782  0.00  0.00    -0.006 A 
ATOM     16  C   UNL     1      84.958  49.996  44.341  0.00  0.00    -0.050 A 
ATOM     17  C   UNL     1      85.255  48.645  44.206  0.00  0.00    -0.019 A 
ATOM     18  C   UNL     1      86.399  48.223  43.504  0.00  0.00    +0.131 A 
ATOM     19  C   UNL     1      87.261  49.192  42.923  0.00  0.00    +0.066 A 
ATOM     20  C   UNL     1      86.946  50.576  43.065  0.00  0.00    -0.003 A 
ATOM     21  C   UNL     1      87.788  51.543  42.479  0.00  0.00    -0.050 A 
ATOM     22  C   UNL     1      88.918  51.166  41.753  0.00  0.00    -0.046 A 
ATOM     23  C   UNL     1      89.817  52.215  41.165  0.00  0.00    -0.040 C 
ATOM     24  C   UNL     1      89.243  49.815  41.634  0.00  0.00    -0.016 A 
ATOM     25  C   UNL     1      88.428  48.818  42.203  0.00  0.00    +0.132 A 
BRANCH  25  26
ATOM     26  O   UNL     1      88.762  47.457  42.067  0.00  0.00    -0.494 OA
ATOM     27  C   UNL     1      90.071  46.915  42.212  0.00  0.00    +0.079 C 
ENDBRANCH  25  26
BRANCH  18  28
ATOM     28  O   UNL     1      86.690  46.853  43.373  0.00  0.00    -0.494 OA
ATOM     29  C   UNL     1      85.780  45.793  43.645  0.00  0.00    +0.079 C 
ENDBRANCH  18  28
ENDBRANCH   6  15
BRANCH   1  31
ATOM     30  C   UNL     1      86.210  52.152  47.439  0.00  0.00    +0.079 C 
ATOM     31  O   UNL     1      86.592  52.333  46.080  0.00  0.00    -0.494 OA
ENDBRANCH   1  31
BRANCH   3  32
ATOM     32  O   UNL     1      84.545  56.486  44.468  0.00  0.00    -0.495 OA
ATOM     33  C   UNL     1      85.553  57.491  44.502  0.00  0.00    +0.079 C 
ENDBRANCH   3  32
TORSDOF 5
ENDMDL
