MODEL 1
REMARK VINA RESULT:    -9.452      0.000      0.000
REMARK INTER + INTRA:         -13.108
REMARK INTER:                 -11.790
REMARK INTRA:                  -1.319
REMARK UNBOUND:                -1.170
REMARK  Name = 
REMARK  11 active torsions:
REMARK  status: ('A' for Active; 'I' for Inactive)
REMARK    1  A    between atoms: C_1  and  O_2
REMARK    2  A    between atoms: O_2  and  C_3
REMARK    3  A    between atoms: C_5  and  O_6
REMARK    4  A    between atoms: C_7  and  C_16
REMARK    5  A    between atoms: C_10  and  C_11
REMARK    6  A    between atoms: C_13  and  C_15
REMARK    7  A    between atoms: C_17  and  C_18
REMARK    8  A    between atoms: C_20  and  O_29
REMARK    9  A    between atoms: C_26  and  O_27
REMARK   10  A    between atoms: O_27  and  C_28
REMARK   11  A    between atoms: O_29  and  C_30
REMARK                            x       y       z     vdW  Elec       q    Type
REMARK                         _______ _______ _______ _____ _____    ______ ____
ROOT
ATOM      1  C   UNL     1      87.388  47.490  42.389  0.00  0.00    +0.128 A 
ATOM      2  C   UNL     1      86.112  47.537  42.974  0.00  0.00    +0.022 A 
ATOM      3  C   UNL     1      85.658  48.694  43.608  0.00  0.00    +0.128 A 
ATOM      4  C   UNL     1      86.465  49.839  43.640  0.00  0.00    +0.028 A 
ATOM      5  C   UNL     1      87.745  49.818  43.036  0.00  0.00    -0.027 A 
ATOM      6  C   UNL     1      88.239  48.617  42.473  0.00  0.00    +0.015 A 
ATOM      7  C   UNL     1      89.656  48.541  41.892  0.00  0.00    +0.034 C 
ATOM      8  C   UNL     1      90.503  47.544  42.696  0.00  0.00    -0.045 C 
ATOM      9  N   UNL     1      90.386  49.827  41.889  0.00  0.00    -0.307 N 
ATOM     10  C   UNL     1      89.548  51.028  41.794  0.00  0.00    +0.009 C 
ATOM     11  C   UNL     1      88.588  51.067  42.981  0.00  0.00    -0.011 C 
ATOM     12  C   UNL     1      88.827  51.134  40.437  0.00  0.00    -0.049 C 
ATOM     13  H   UNL     1      91.022  49.825  41.091  0.00  0.00    +0.000 HD
ATOM     14  H   UNL     1      90.857  49.885  42.791  0.00  0.00    +0.000 HD
ENDROOT
BRANCH   4  15
ATOM     15  C   UNL     1      85.942  51.069  44.294  0.00  0.00    -0.003 A 
ATOM     16  C   UNL     1      85.290  52.042  43.511  0.00  0.00    -0.039 A 
ATOM     17  C   UNL     1      85.119  51.857  42.023  0.00  0.00    -0.039 C 
ATOM     18  C   UNL     1      84.797  53.200  44.116  0.00  0.00    -0.016 A 
ATOM     19  C   UNL     1      84.932  53.423  45.496  0.00  0.00    +0.132 A 
ATOM     20  C   UNL     1      85.585  52.454  46.301  0.00  0.00    +0.066 A 
ATOM     21  C   UNL     1      86.093  51.269  45.690  0.00  0.00    -0.003 A 
ATOM     22  C   UNL     1      86.735  50.302  46.491  0.00  0.00    -0.053 A 
ATOM     23  C   UNL     1      86.878  50.490  47.860  0.00  0.00    -0.058 A 
ATOM     24  C   UNL     1      86.390  51.642  48.463  0.00  0.00    -0.019 A 
ATOM     25  C   UNL     1      85.741  52.634  47.705  0.00  0.00    +0.131 A 
BRANCH  25  26
ATOM     26  O   UNL     1      85.249  53.797  48.324  0.00  0.00    -0.494 OA
ATOM     27  C   UNL     1      84.167  53.837  49.249  0.00  0.00    +0.079 C 
ENDBRANCH  25  26
BRANCH  19  28
ATOM     28  O   UNL     1      84.428  54.597  46.083  0.00  0.00    -0.494 OA
ATOM     29  C   UNL     1      84.605  55.914  45.571  0.00  0.00    +0.079 C 
ENDBRANCH  19  28
ENDBRANCH   4  15
BRANCH   1  31
ATOM     30  C   UNL     1      87.788  45.021  42.214  0.00  0.00    +0.079 C 
ATOM     31  O   UNL     1      87.833  46.348  41.702  0.00  0.00    -0.495 OA
ENDBRANCH   1  31
BRANCH   3  32
ATOM     32  O   UNL     1      84.394  48.716  44.199  0.00  0.00    -0.506 OA
ATOM     33  H   UNL     1      83.774  49.374  43.954  0.00  0.00    +0.000 HD
ENDBRANCH   3  32
TORSDOF 5
ENDMDL
MODEL 2
REMARK VINA RESULT:    -9.167      1.152      3.052
REMARK INTER + INTRA:         -12.749
REMARK INTER:                 -11.270
REMARK INTRA:                  -1.479
REMARK UNBOUND:                -1.170
REMARK  Name = 
REMARK  11 active torsions:
REMARK  status: ('A' for Active; 'I' for Inactive)
REMARK    1  A    between atoms: C_1  and  O_2
REMARK    2  A    between atoms: O_2  and  C_3
REMARK    3  A    between atoms: C_5  and  O_6
REMARK    4  A    between atoms: C_7  and  C_16
REMARK    5  A    between atoms: C_10  and  C_11
REMARK    6  A    between atoms: C_13  and  C_15
REMARK    7  A    between atoms: C_17  and  C_18
REMARK    8  A    between atoms: C_20  and  O_29
REMARK    9  A    between atoms: C_26  and  O_27
REMARK   10  A    between atoms: O_27  and  C_28
REMARK   11  A    between atoms: O_29  and  C_30
REMARK                            x       y       z     vdW  Elec       q    Type
REMARK                         _______ _______ _______ _____ _____    ______ ____
ROOT
ATOM      1  C   UNL     1      87.344  47.540  42.412  0.00  0.00    +0.128 A 
ATOM      2  C   UNL     1      86.112  47.724  43.062  0.00  0.00    +0.022 A 
ATOM      3  C   UNL     1      85.802  48.937  43.677  0.00  0.00    +0.128 A 
ATOM      4  C   UNL     1      86.710  50.003  43.624  0.00  0.00    +0.028 A 
ATOM      5  C   UNL     1      87.947  49.844  42.954  0.00  0.00    -0.027 A 
ATOM      6  C   UNL     1      88.297  48.586  42.409  0.00  0.00    +0.015 A 
ATOM      7  C   UNL     1      89.666  48.360  41.758  0.00  0.00    +0.034 C 
ATOM      8  C   UNL     1      90.463  47.315  42.551  0.00  0.00    -0.045 C 
ATOM      9  N   UNL     1      90.509  49.572  41.669  0.00  0.00    -0.307 N 
ATOM     10  C   UNL     1      89.780  50.842  41.574  0.00  0.00    +0.009 C 
ATOM     11  C   UNL     1      88.895  51.007  42.809  0.00  0.00    -0.011 C 
ATOM     12  C   UNL     1      88.997  50.971  40.254  0.00  0.00    -0.049 C 
ATOM     13  H   UNL     1      91.097  49.485  40.839  0.00  0.00    +0.000 HD
ATOM     14  H   UNL     1      91.034  49.615  42.542  0.00  0.00    +0.000 HD
ENDROOT
BRANCH   4  15
ATOM     15  C   UNL     1      86.339  51.296  44.259  0.00  0.00    -0.003 A 
ATOM     16  C   UNL     1      86.660  51.516  45.613  0.00  0.00    -0.039 A 
ATOM     17  C   UNL     1      87.371  50.461  46.425  0.00  0.00    -0.039 C 
ATOM     18  C   UNL     1      86.314  52.726  46.219  0.00  0.00    -0.016 A 
ATOM     19  C   UNL     1      85.650  53.740  45.508  0.00  0.00    +0.132 A 
ATOM     20  C   UNL     1      85.318  53.536  44.144  0.00  0.00    +0.066 A 
ATOM     21  C   UNL     1      85.667  52.302  43.519  0.00  0.00    -0.003 A 
ATOM     22  C   UNL     1      85.345  52.103  42.161  0.00  0.00    -0.053 A 
ATOM     23  C   UNL     1      84.694  53.089  41.429  0.00  0.00    -0.058 A 
ATOM     24  C   UNL     1      84.348  54.292  42.030  0.00  0.00    -0.019 A 
ATOM     25  C   UNL     1      84.650  54.537  43.383  0.00  0.00    +0.131 A 
BRANCH  25  26
ATOM     26  O   UNL     1      84.296  55.759  43.983  0.00  0.00    -0.494 OA
ATOM     27  C   UNL     1      84.635  57.047  43.479  0.00  0.00    +0.079 C 
ENDBRANCH  25  26
BRANCH  19  28
ATOM     28  O   UNL     1      85.311  54.950  46.139  0.00  0.00    -0.494 OA
ATOM     29  C   UNL     1      86.195  55.743  46.925  0.00  0.00    +0.079 C 
ENDBRANCH  19  28
ENDBRANCH   4  15
BRANCH   1  31
ATOM     30  C   UNL     1      87.520  45.041  42.311  0.00  0.00    +0.079 C 
ATOM     31  O   UNL     1      87.644  46.341  41.745  0.00  0.00    -0.495 OA
ENDBRANCH   1  31
BRANCH   3  32
ATOM     32  O   UNL     1      84.580  49.095  44.333  0.00  0.00    -0.506 OA
ATOM     33  H   UNL     1      83.779  48.933  43.875  0.00  0.00    +0.000 HD
ENDBRANCH   3  32
TORSDOF 5
ENDMDL
MODEL 3
REMARK VINA RESULT:    -8.322      2.273      7.243
REMARK INTER + INTRA:         -11.681
REMARK INTER:                 -10.239
REMARK INTRA:                  -1.442
REMARK UNBOUND:                -1.170
REMARK  Name = 
REMARK  11 active torsions:
REMARK  status: ('A' for Active; 'I' for Inactive)
REMARK    1  A    between atoms: C_1  and  O_2
REMARK    2  A    between atoms: O_2  and  C_3
REMARK    3  A    between atoms: C_5  and  O_6
REMARK    4  A    between atoms: C_7  and  C_16
REMARK    5  A    between atoms: C_10  and  C_11
REMARK    6  A    between atoms: C_13  and  C_15
REMARK    7  A    between atoms: C_17  and  C_18
REMARK    8  A    between atoms: C_20  and  O_29
REMARK    9  A    between atoms: C_26  and  O_27
REMARK   10  A    between atoms: O_27  and  C_28
REMARK   11  A    between atoms: O_29  and  C_30
REMARK                            x       y       z     vdW  Elec       q    Type
REMARK                         _______ _______ _______ _____ _____    ______ ____
ROOT
ATOM      1  C   UNL     1      84.752  54.910  43.935  0.00  0.00    +0.128 A 
ATOM      2  C   UNL     1      84.546  54.242  42.716  0.00  0.00    +0.022 A 
ATOM      3  C   UNL     1      84.880  52.894  42.574  0.00  0.00    +0.128 A 
ATOM      4  C   UNL     1      85.397  52.181  43.664  0.00  0.00    +0.028 A 
ATOM      5  C   UNL     1      85.591  52.832  44.906  0.00  0.00    -0.027 A 
ATOM      6  C   UNL     1      85.336  54.219  45.022  0.00  0.00    +0.015 A 
ATOM      7  C   UNL     1      85.621  54.967  46.329  0.00  0.00    +0.034 C 
ATOM      8  C   UNL     1      86.712  56.024  46.106  0.00  0.00    -0.045 C 
ATOM      9  N   UNL     1      86.074  54.106  47.443  0.00  0.00    -0.307 N 
ATOM     10  C   UNL     1      85.590  52.721  47.405  0.00  0.00    +0.009 C 
ATOM     11  C   UNL     1      86.060  52.058  46.112  0.00  0.00    -0.011 C 
ATOM     12  C   UNL     1      84.065  52.627  47.607  0.00  0.00    -0.049 C 
ATOM     13  H   UNL     1      85.755  54.526  48.315  0.00  0.00    +0.000 HD
ATOM     14  H   UNL     1      87.089  54.050  47.360  0.00  0.00    +0.000 HD
ENDROOT
BRANCH   4  15
ATOM     15  C   UNL     1      85.713  50.738  43.493  0.00  0.00    -0.003 A 
ATOM     16  C   UNL     1      84.712  49.779  43.747  0.00  0.00    -0.039 A 
ATOM     17  C   UNL     1      83.332  50.194  44.193  0.00  0.00    -0.039 C 
ATOM     18  C   UNL     1      85.000  48.421  43.591  0.00  0.00    -0.016 A 
ATOM     19  C   UNL     1      86.269  47.981  43.181  0.00  0.00    +0.132 A 
ATOM     20  C   UNL     1      87.289  48.932  42.919  0.00  0.00    +0.066 A 
ATOM     21  C   UNL     1      87.003  50.320  43.078  0.00  0.00    -0.003 A 
ATOM     22  C   UNL     1      88.014  51.266  42.811  0.00  0.00    -0.053 A 
ATOM     23  C   UNL     1      89.278  50.863  42.397  0.00  0.00    -0.058 A 
ATOM     24  C   UNL     1      89.566  49.513  42.242  0.00  0.00    -0.019 A 
ATOM     25  C   UNL     1      88.589  48.533  42.496  0.00  0.00    +0.131 A 
BRANCH  25  26
ATOM     26  O   UNL     1      88.889  47.168  42.336  0.00  0.00    -0.494 OA
ATOM     27  C   UNL     1      90.198  46.609  42.369  0.00  0.00    +0.079 C 
ENDBRANCH  25  26
BRANCH  19  28
ATOM     28  O   UNL     1      86.536  46.608  43.030  0.00  0.00    -0.494 OA
ATOM     29  C   UNL     1      86.040  45.576  43.878  0.00  0.00    +0.079 C 
ENDBRANCH  19  28
ENDBRANCH   4  15
BRANCH   1  31
ATOM     30  C   UNL     1      84.797  57.330  43.279  0.00  0.00    +0.079 C 
ATOM     31  O   UNL     1      84.369  56.251  44.104  0.00  0.00    -0.495 OA
ENDBRANCH   1  31
BRANCH   3  32
ATOM     32  O   UNL     1      84.684  52.252  41.351  0.00  0.00    -0.506 OA
ATOM     33  H   UNL     1      85.241  52.450  40.624  0.00  0.00    +0.000 HD
ENDBRANCH   3  32
TORSDOF 5
ENDMDL
MODEL 4
REMARK VINA RESULT:    -8.315      2.116      6.909
REMARK INTER + INTRA:         -11.673
REMARK INTER:                 -10.235
REMARK INTRA:                  -1.438
REMARK UNBOUND:                -1.170
REMARK  Name = 
REMARK  11 active torsions:
REMARK  status: ('A' for Active; 'I' for Inactive)
REMARK    1  A    between atoms: C_1  and  O_2
REMARK    2  A    between atoms: O_2  and  C_3
REMARK    3  A    between atoms: C_5  and  O_6
REMARK    4  A    between atoms: C_7  and  C_16
REMARK    5  A    between atoms: C_10  and  C_11
REMARK    6  A    between atoms: C_13  and  C_15
REMARK    7  A    between atoms: C_17  and  C_18
REMARK    8  A    between atoms: C_20  and  O_29
REMARK    9  A    between atoms: C_26  and  O_27
REMARK   10  A    between atoms: O_27  and  C_28
REMARK   11  A    between atoms: O_29  and  C_30
REMARK                            x       y       z     vdW  Elec       q    Type
REMARK                         _______ _______ _______ _____ _____    ______ ____
ROOT
ATOM      1  C   UNL     1      86.268  53.552  44.983  0.00  0.00    +0.128 A 
ATOM      2  C   UNL     1      86.416  52.479  45.878  0.00  0.00    +0.022 A 
ATOM      3  C   UNL     1      86.247  51.162  45.448  0.00  0.00    +0.128 A 
ATOM      4  C   UNL     1      85.958  50.894  44.103  0.00  0.00    +0.028 A 
ATOM      5  C   UNL     1      85.828  51.961  43.183  0.00  0.00    -0.027 A 
ATOM      6  C   UNL     1      85.911  53.299  43.638  0.00  0.00    +0.015 A 
ATOM      7  C   UNL     1      85.685  54.474  42.680  0.00  0.00    +0.034 C 
ATOM      8  C   UNL     1      84.446  55.274  43.108  0.00  0.00    -0.045 C 
ATOM      9  N   UNL     1      85.483  54.084  41.268  0.00  0.00    -0.307 N 
ATOM     10  C   UNL     1      86.136  52.836  40.859  0.00  0.00    +0.009 C 
ATOM     11  C   UNL     1      85.609  51.687  41.716  0.00  0.00    -0.011 C 
ATOM     12  C   UNL     1      87.673  52.944  40.882  0.00  0.00    -0.049 C 
ATOM     13  H   UNL     1      85.844  54.835  40.680  0.00  0.00    +0.000 HD
ATOM     14  H   UNL     1      84.481  53.924  41.161  0.00  0.00    +0.000 HD
ENDROOT
BRANCH   4  15
ATOM     15  C   UNL     1      85.817  49.479  43.668  0.00  0.00    -0.003 A 
ATOM     16  C   UNL     1      84.544  48.876  43.686  0.00  0.00    -0.039 A 
ATOM     17  C   UNL     1      83.326  49.642  44.143  0.00  0.00    -0.039 C 
ATOM     18  C   UNL     1      84.401  47.547  43.280  0.00  0.00    -0.016 A 
ATOM     19  C   UNL     1      85.502  46.789  42.848  0.00  0.00    +0.132 A 
ATOM     20  C   UNL     1      86.792  47.380  42.821  0.00  0.00    +0.066 A 
ATOM     21  C   UNL     1      86.945  48.736  43.236  0.00  0.00    -0.003 A 
ATOM     22  C   UNL     1      88.226  49.325  43.203  0.00  0.00    -0.053 A 
ATOM     23  C   UNL     1      89.333  48.604  42.775  0.00  0.00    -0.058 A 
ATOM     24  C   UNL     1      89.194  47.282  42.372  0.00  0.00    -0.019 A 
ATOM     25  C   UNL     1      87.936  46.651  42.387  0.00  0.00    +0.131 A 
BRANCH  25  26
ATOM     26  O   UNL     1      87.804  45.313  41.977  0.00  0.00    -0.494 OA
ATOM     27  C   UNL     1      88.432  44.199  42.603  0.00  0.00    +0.079 C 
ENDBRANCH  25  26
BRANCH  19  28
ATOM     28  O   UNL     1      85.335  45.452  42.444  0.00  0.00    -0.494 OA
ATOM     29  C   UNL     1      84.590  44.466  43.153  0.00  0.00    +0.079 C 
ENDBRANCH  19  28
ENDBRANCH   4  15
BRANCH   1  31
ATOM     30  C   UNL     1      86.013  55.444  46.610  0.00  0.00    +0.079 C 
ATOM     31  O   UNL     1      86.488  54.878  45.393  0.00  0.00    -0.495 OA
ENDBRANCH   1  31
BRANCH   3  32
ATOM     32  O   UNL     1      86.380  50.111  46.356  0.00  0.00    -0.506 OA
ATOM     33  H   UNL     1      85.662  49.529  46.507  0.00  0.00    +0.000 HD
ENDBRANCH   3  32
TORSDOF 5
ENDMDL
MODEL 5
REMARK VINA RESULT:    -8.306      2.728      7.390
REMARK INTER + INTRA:         -11.661
REMARK INTER:                 -10.478
REMARK INTRA:                  -1.183
REMARK UNBOUND:                -1.170
REMARK  Name = 
REMARK  11 active torsions:
REMARK  status: ('A' for Active; 'I' for Inactive)
REMARK    1  A    between atoms: C_1  and  O_2
REMARK    2  A    between atoms: O_2  and  C_3
REMARK    3  A    between atoms: C_5  and  O_6
REMARK    4  A    between atoms: C_7  and  C_16
REMARK    5  A    between atoms: C_10  and  C_11
REMARK    6  A    between atoms: C_13  and  C_15
REMARK    7  A    between atoms: C_17  and  C_18
REMARK    8  A    between atoms: C_20  and  O_29
REMARK    9  A    between atoms: C_26  and  O_27
REMARK   10  A    between atoms: O_27  and  C_28
REMARK   11  A    between atoms: O_29  and  C_30
REMARK                            x       y       z     vdW  Elec       q    Type
REMARK                         _______ _______ _______ _____ _____    ______ ____
ROOT
ATOM      1  C   UNL     1      84.834  55.439  44.435  0.00  0.00    +0.128 A 
ATOM      2  C   UNL     1      84.787  54.840  43.165  0.00  0.00    +0.022 A 
ATOM      3  C   UNL     1      84.985  53.467  43.014  0.00  0.00    +0.128 A 
ATOM      4  C   UNL     1      85.203  52.662  44.141  0.00  0.00    +0.028 A 
ATOM      5  C   UNL     1      85.232  53.244  45.430  0.00  0.00    -0.027 A 
ATOM      6  C   UNL     1      85.120  54.648  45.572  0.00  0.00    +0.015 A 
ATOM      7  C   UNL     1      85.237  55.314  46.948  0.00  0.00    +0.034 C 
ATOM      8  C   UNL     1      86.465  56.236  46.986  0.00  0.00    -0.045 C 
ATOM      9  N   UNL     1      85.370  54.369  48.077  0.00  0.00    -0.307 N 
ATOM     10  C   UNL     1      84.747  53.056  47.877  0.00  0.00    +0.009 C 
ATOM     11  C   UNL     1      85.374  52.381  46.659  0.00  0.00    -0.011 C 
ATOM     12  C   UNL     1      83.212  53.143  47.790  0.00  0.00    -0.049 C 
ATOM     13  H   UNL     1      84.942  54.798  48.898  0.00  0.00    +0.000 HD
ATOM     14  H   UNL     1      86.370  54.192  48.179  0.00  0.00    +0.000 HD
ENDROOT
BRANCH   4  15
ATOM     15  C   UNL     1      85.378  51.197  43.953  0.00  0.00    -0.003 A 
ATOM     16  C   UNL     1      86.677  50.650  43.964  0.00  0.00    -0.039 A 
ATOM     17  C   UNL     1      87.889  51.528  44.158  0.00  0.00    -0.039 C 
ATOM     18  C   UNL     1      86.851  49.276  43.787  0.00  0.00    -0.016 A 
ATOM     19  C   UNL     1      85.757  48.415  43.598  0.00  0.00    +0.132 A 
ATOM     20  C   UNL     1      84.442  48.946  43.586  0.00  0.00    +0.066 A 
ATOM     21  C   UNL     1      84.256  50.349  43.764  0.00  0.00    -0.003 A 
ATOM     22  C   UNL     1      82.948  50.877  43.759  0.00  0.00    -0.053 A 
ATOM     23  C   UNL     1      81.846  50.050  43.582  0.00  0.00    -0.058 A 
ATOM     24  C   UNL     1      82.017  48.683  43.404  0.00  0.00    -0.019 A 
ATOM     25  C   UNL     1      83.303  48.111  43.403  0.00  0.00    +0.131 A 
BRANCH  25  26
ATOM     26  O   UNL     1      83.467  46.726  43.223  0.00  0.00    -0.494 OA
ATOM     27  C   UNL     1      82.746  45.718  43.925  0.00  0.00    +0.079 C 
ENDBRANCH  25  26
BRANCH  19  28
ATOM     28  O   UNL     1      85.957  47.034  43.422  0.00  0.00    -0.494 OA
ATOM     29  C   UNL     1      86.884  46.447  42.514  0.00  0.00    +0.079 C 
ENDBRANCH  19  28
ENDBRANCH   4  15
BRANCH   1  31
ATOM     30  C   UNL     1      85.309  57.856  43.965  0.00  0.00    +0.079 C 
ATOM     31  O   UNL     1      84.583  56.811  44.603  0.00  0.00    -0.495 OA
ENDBRANCH   1  31
BRANCH   3  32
ATOM     32  O   UNL     1      84.952  52.892  41.743  0.00  0.00    -0.506 OA
ATOM     33  H   UNL     1      85.103  51.974  41.640  0.00  0.00    +0.000 HD
ENDBRANCH   3  32
TORSDOF 5
ENDMDL
MODEL 6
REMARK VINA RESULT:    -7.988      2.363      7.178
REMARK INTER + INTRA:         -11.260
REMARK INTER:                 -10.007
REMARK INTRA:                  -1.253
REMARK UNBOUND:                -1.170
REMARK  Name = 
REMARK  11 active torsions:
REMARK  status: ('A' for Active; 'I' for Inactive)
REMARK    1  A    between atoms: C_1  and  O_2
REMARK    2  A    between atoms: O_2  and  C_3
REMARK    3  A    between atoms: C_5  and  O_6
REMARK    4  A    between atoms: C_7  and  C_16
REMARK    5  A    between atoms: C_10  and  C_11
REMARK    6  A    between atoms: C_13  and  C_15
REMARK    7  A    between atoms: C_17  and  C_18
REMARK    8  A    between atoms: C_20  and  O_29
REMARK    9  A    between atoms: C_26  and  O_27
REMARK   10  A    between atoms: O_27  and  C_28
REMARK   11  A    between atoms: O_29  and  C_30
REMARK                            x       y       z     vdW  Elec       q    Type
REMARK                         _______ _______ _______ _____ _____    ______ ____
ROOT
ATOM      1  C   UNL     1      84.973  54.894  43.457  0.00  0.00    +0.128 A 
ATOM      2  C   UNL     1      84.992  54.333  42.170  0.00  0.00    +0.022 A 
ATOM      3  C   UNL     1      85.682  53.147  41.917  0.00  0.00    +0.128 A 
ATOM      4  C   UNL     1      86.342  52.483  42.960  0.00  0.00    +0.028 A 
ATOM      5  C   UNL     1      86.316  53.022  44.268  0.00  0.00    -0.027 A 
ATOM      6  C   UNL     1      85.691  54.270  44.504  0.00  0.00    +0.015 A 
ATOM      7  C   UNL     1      85.725  54.920  45.892  0.00  0.00    +0.034 C 
ATOM      8  C   UNL     1      86.494  56.247  45.835  0.00  0.00    -0.045 C 
ATOM      9  N   UNL     1      86.361  54.094  46.940  0.00  0.00    -0.307 N 
ATOM     10  C   UNL     1      86.272  52.643  46.740  0.00  0.00    +0.009 C 
ATOM     11  C   UNL     1      86.942  52.274  45.418  0.00  0.00    -0.011 C 
ATOM     12  C   UNL     1      84.825  52.125  46.844  0.00  0.00    -0.049 C 
ATOM     13  H   UNL     1      85.915  54.316  47.830  0.00  0.00    +0.000 HD
ATOM     14  H   UNL     1      87.356  54.320  46.911  0.00  0.00    +0.000 HD
ENDROOT
BRANCH   4  15
ATOM     15  C   UNL     1      87.042  51.203  42.667  0.00  0.00    -0.003 A 
ATOM     16  C   UNL     1      88.352  51.237  42.152  0.00  0.00    -0.039 A 
ATOM     17  C   UNL     1      89.052  52.548  41.889  0.00  0.00    -0.039 C 
ATOM     18  C   UNL     1      89.017  50.040  41.872  0.00  0.00    -0.016 A 
ATOM     19  C   UNL     1      88.410  48.793  42.096  0.00  0.00    +0.132 A 
ATOM     20  C   UNL     1      87.091  48.739  42.616  0.00  0.00    +0.066 A 
ATOM     21  C   UNL     1      86.406  49.957  42.902  0.00  0.00    -0.003 A 
ATOM     22  C   UNL     1      85.097  49.904  43.426  0.00  0.00    -0.053 A 
ATOM     23  C   UNL     1      84.473  48.687  43.664  0.00  0.00    -0.058 A 
ATOM     24  C   UNL     1      85.131  47.496  43.386  0.00  0.00    -0.019 A 
ATOM     25  C   UNL     1      86.438  47.499  42.863  0.00  0.00    +0.131 A 
BRANCH  25  26
ATOM     26  O   UNL     1      87.097  46.288  42.585  0.00  0.00    -0.494 OA
ATOM     27  C   UNL     1      86.774  45.028  43.164  0.00  0.00    +0.079 C 
ENDBRANCH  25  26
BRANCH  19  28
ATOM     28  O   UNL     1      89.099  47.601  41.807  0.00  0.00    -0.494 OA
ATOM     29  C   UNL     1      90.402  47.271  42.277  0.00  0.00    +0.079 C 
ENDBRANCH  19  28
ENDBRANCH   4  15
BRANCH   1  31
ATOM     30  C   UNL     1      84.529  57.350  43.211  0.00  0.00    +0.079 C 
ATOM     31  O   UNL     1      84.237  56.059  43.734  0.00  0.00    -0.495 OA
ENDBRANCH   1  31
BRANCH   3  32
ATOM     32  O   UNL     1      85.704  52.613  40.627  0.00  0.00    -0.506 OA
ATOM     33  H   UNL     1      85.754  51.686  40.505  0.00  0.00    +0.000 HD
ENDBRANCH   3  32
TORSDOF 5
ENDMDL
MODEL 7
REMARK VINA RESULT:    -7.933      2.196      6.887
REMARK INTER + INTRA:         -11.191
REMARK INTER:                  -9.797
REMARK INTRA:                  -1.394
REMARK UNBOUND:                -1.170
REMARK  Name = 
REMARK  11 active torsions:
REMARK  status: ('A' for Active; 'I' for Inactive)
REMARK    1  A    between atoms: C_1  and  O_2
REMARK    2  A    between atoms: O_2  and  C_3
REMARK    3  A    between atoms: C_5  and  O_6
REMARK    4  A    between atoms: C_7  and  C_16
REMARK    5  A    between atoms: C_10  and  C_11
REMARK    6  A    between atoms: C_13  and  C_15
REMARK    7  A    between atoms: C_17  and  C_18
REMARK    8  A    between atoms: C_20  and  O_29
REMARK    9  A    between atoms: C_26  and  O_27
REMARK   10  A    between atoms: O_27  and  C_28
REMARK   11  A    between atoms: O_29  and  C_30
REMARK                            x       y       z     vdW  Elec       q    Type
REMARK                         _______ _______ _______ _____ _____    ______ ____
ROOT
ATOM      1  C   UNL     1      86.716  53.277  44.994  0.00  0.00    +0.128 A 
ATOM      2  C   UNL     1      86.996  52.200  45.852  0.00  0.00    +0.022 A 
ATOM      3  C   UNL     1      87.026  50.891  45.369  0.00  0.00    +0.128 A 
ATOM      4  C   UNL     1      86.807  50.639  44.008  0.00  0.00    +0.028 A 
ATOM      5  C   UNL     1      86.546  51.714  43.125  0.00  0.00    -0.027 A 
ATOM      6  C   UNL     1      86.427  53.030  43.631  0.00  0.00    +0.015 A 
ATOM      7  C   UNL     1      86.057  54.200  42.712  0.00  0.00    +0.034 C 
ATOM      8  C   UNL     1      84.708  54.798  43.137  0.00  0.00    -0.045 C 
ATOM      9  N   UNL     1      85.942  53.843  41.282  0.00  0.00    -0.307 N 
ATOM     10  C   UNL     1      86.775  52.717  40.845  0.00  0.00    +0.009 C 
ATOM     11  C   UNL     1      86.398  51.471  41.644  0.00  0.00    -0.011 C 
ATOM     12  C   UNL     1      88.280  53.040  40.912  0.00  0.00    -0.049 C 
ATOM     13  H   UNL     1      86.205  54.660  40.732  0.00  0.00    +0.000 HD
ATOM     14  H   UNL     1      84.976  53.546  41.143  0.00  0.00    +0.000 HD
ENDROOT
BRANCH   4  15
ATOM     15  C   UNL     1      86.878  49.238  43.517  0.00  0.00    -0.003 A 
ATOM     16  C   UNL     1      88.126  48.700  43.145  0.00  0.00    -0.039 A 
ATOM     17  C   UNL     1      89.386  49.524  43.234  0.00  0.00    -0.039 C 
ATOM     18  C   UNL     1      88.202  47.384  42.680  0.00  0.00    -0.016 A 
ATOM     19  C   UNL     1      87.058  46.575  42.575  0.00  0.00    +0.132 A 
ATOM     20  C   UNL     1      85.793  47.099  42.946  0.00  0.00    +0.066 A 
ATOM     21  C   UNL     1      85.707  48.442  43.419  0.00  0.00    -0.003 A 
ATOM     22  C   UNL     1      84.451  48.961  43.795  0.00  0.00    -0.053 A 
ATOM     23  C   UNL     1      83.303  48.183  43.709  0.00  0.00    -0.058 A 
ATOM     24  C   UNL     1      83.376  46.875  43.246  0.00  0.00    -0.019 A 
ATOM     25  C   UNL     1      84.608  46.314  42.860  0.00  0.00    +0.131 A 
BRANCH  25  26
ATOM     26  O   UNL     1      84.673  44.989  42.394  0.00  0.00    -0.494 OA
ATOM     27  C   UNL     1      84.348  43.834  43.161  0.00  0.00    +0.079 C 
ENDBRANCH  25  26
BRANCH  19  28
ATOM     28  O   UNL     1      87.159  45.253  42.104  0.00  0.00    -0.494 OA
ATOM     29  C   UNL     1      88.065  44.271  42.600  0.00  0.00    +0.079 C 
ENDBRANCH  19  28
ENDBRANCH   4  15
BRANCH   1  31
ATOM     30  C   UNL     1      86.181  55.041  46.694  0.00  0.00    +0.079 C 
ATOM     31  O   UNL     1      86.737  54.603  45.459  0.00  0.00    -0.495 OA
ENDBRANCH   1  31
BRANCH   3  32
ATOM     32  O   UNL     1      87.288  49.832  46.240  0.00  0.00    -0.506 OA
ATOM     33  H   UNL     1      87.902  49.943  46.940  0.00  0.00    +0.000 HD
ENDBRANCH   3  32
TORSDOF 5
ENDMDL
MODEL 8
REMARK VINA RESULT:    -7.926      2.836      6.836
REMARK INTER + INTRA:         -11.182
REMARK INTER:                 -10.032
REMARK INTRA:                  -1.149
REMARK UNBOUND:                -1.170
REMARK  Name = 
REMARK  11 active torsions:
REMARK  status: ('A' for Active; 'I' for Inactive)
REMARK    1  A    between atoms: C_1  and  O_2
REMARK    2  A    between atoms: O_2  and  C_3
REMARK    3  A    between atoms: C_5  and  O_6
REMARK    4  A    between atoms: C_7  and  C_16
REMARK    5  A    between atoms: C_10  and  C_11
REMARK    6  A    between atoms: C_13  and  C_15
REMARK    7  A    between atoms: C_17  and  C_18
REMARK    8  A    between atoms: C_20  and  O_29
REMARK    9  A    between atoms: C_26  and  O_27
REMARK   10  A    between atoms: O_27  and  C_28
REMARK   11  A    between atoms: O_29  and  C_30
REMARK                            x       y       z     vdW  Elec       q    Type
REMARK                         _______ _______ _______ _____ _____    ______ ____
ROOT
ATOM      1  C   UNL     1      86.048  54.004  44.878  0.00  0.00    +0.128 A 
ATOM      2  C   UNL     1      86.100  53.006  45.865  0.00  0.00    +0.022 A 
ATOM      3  C   UNL     1      85.752  51.688  45.567  0.00  0.00    +0.128 A 
ATOM      4  C   UNL     1      85.377  51.338  44.263  0.00  0.00    +0.028 A 
ATOM      5  C   UNL     1      85.341  52.326  43.251  0.00  0.00    -0.027 A 
ATOM      6  C   UNL     1      85.607  53.678  43.574  0.00  0.00    +0.015 A 
ATOM      7  C   UNL     1      85.487  54.782  42.517  0.00  0.00    +0.034 C 
ATOM      8  C   UNL     1      84.376  55.767  42.904  0.00  0.00    -0.045 C 
ATOM      9  N   UNL     1      85.180  54.295  41.155  0.00  0.00    -0.307 N 
ATOM     10  C   UNL     1      85.657  52.942  40.846  0.00  0.00    +0.009 C 
ATOM     11  C   UNL     1      85.028  51.951  41.824  0.00  0.00    -0.011 C 
ATOM     12  C   UNL     1      87.195  52.856  40.812  0.00  0.00    -0.049 C 
ATOM     13  H   UNL     1      85.606  54.938  40.487  0.00  0.00    +0.000 HD
ATOM     14  H   UNL     1      84.163  54.253  41.094  0.00  0.00    +0.000 HD
ENDROOT
BRANCH   4  15
ATOM     15  C   UNL     1      85.044  49.919  43.967  0.00  0.00    -0.003 A 
ATOM     16  C   UNL     1      86.087  48.986  43.804  0.00  0.00    -0.039 A 
ATOM     17  C   UNL     1      87.532  49.406  43.920  0.00  0.00    -0.039 C 
ATOM     18  C   UNL     1      85.785  47.652  43.524  0.00  0.00    -0.016 A 
ATOM     19  C   UNL     1      84.457  47.209  43.403  0.00  0.00    +0.132 A 
ATOM     20  C   UNL     1      83.393  48.134  43.566  0.00  0.00    +0.066 A 
ATOM     21  C   UNL     1      83.695  49.499  43.850  0.00  0.00    -0.003 A 
ATOM     22  C   UNL     1      82.637  50.417  44.019  0.00  0.00    -0.053 A 
ATOM     23  C   UNL     1      81.314  50.008  43.912  0.00  0.00    -0.058 A 
ATOM     24  C   UNL     1      81.011  48.682  43.633  0.00  0.00    -0.019 A 
ATOM     25  C   UNL     1      82.032  47.730  43.457  0.00  0.00    +0.131 A 
BRANCH  25  26
ATOM     26  O   UNL     1      81.716  46.389  43.175  0.00  0.00    -0.494 OA
ATOM     27  C   UNL     1      80.522  45.726  43.581  0.00  0.00    +0.079 C 
ENDBRANCH  25  26
BRANCH  19  28
ATOM     28  O   UNL     1      84.176  45.860  43.121  0.00  0.00    -0.494 OA
ATOM     29  C   UNL     1      85.026  44.978  42.394  0.00  0.00    +0.079 C 
ENDBRANCH  19  28
ENDBRANCH   4  15
BRANCH   1  31
ATOM     30  C   UNL     1      85.990  56.098  46.257  0.00  0.00    +0.079 C 
ATOM     31  O   UNL     1      86.447  55.323  45.154  0.00  0.00    -0.495 OA
ENDBRANCH   1  31
BRANCH   3  32
ATOM     32  O   UNL     1      85.792  50.713  46.566  0.00  0.00    -0.506 OA
ATOM     33  H   UNL     1      86.463  50.741  47.220  0.00  0.00    +0.000 HD
ENDBRANCH   3  32
TORSDOF 5
ENDMDL
MODEL 9
REMARK VINA RESULT:    -7.272      2.911      4.286
REMARK INTER + INTRA:         -10.356
REMARK INTER:                  -9.186
REMARK INTRA:                  -1.170
REMARK UNBOUND:                -1.170
REMARK  Name = 
REMARK  11 active torsions:
REMARK  status: ('A' for Active; 'I' for Inactive)
REMARK    1  A    between atoms: C_1  and  O_2
REMARK    2  A    between atoms: O_2  and  C_3
REMARK    3  A    between atoms: C_5  and  O_6
REMARK    4  A    between atoms: C_7  and  C_16
REMARK    5  A    between atoms: C_10  and  C_11
REMARK    6  A    between atoms: C_13  and  C_15
REMARK    7  A    between atoms: C_17  and  C_18
REMARK    8  A    between atoms: C_20  and  O_29
REMARK    9  A    between atoms: C_26  and  O_27
REMARK   10  A    between atoms: O_27  and  C_28
REMARK   11  A    between atoms: O_29  and  C_30
REMARK                            x       y       z     vdW  Elec       q    Type
REMARK                         _______ _______ _______ _____ _____    ______ ____
ROOT
ATOM      1  C   UNL     1      85.220  47.623  44.263  0.00  0.00    +0.128 A 
ATOM      2  C   UNL     1      86.332  48.348  44.723  0.00  0.00    +0.022 A 
ATOM      3  C   UNL     1      86.394  49.734  44.569  0.00  0.00    +0.128 A 
ATOM      4  C   UNL     1      85.325  50.423  43.980  0.00  0.00    +0.028 A 
ATOM      5  C   UNL     1      84.187  49.711  43.532  0.00  0.00    -0.027 A 
ATOM      6  C   UNL     1      84.165  48.298  43.607  0.00  0.00    +0.015 A 
ATOM      7  C   UNL     1      82.984  47.496  43.047  0.00  0.00    +0.034 C 
ATOM      8  C   UNL     1      83.453  46.604  41.888  0.00  0.00    -0.045 C 
ATOM      9  N   UNL     1      81.870  48.322  42.535  0.00  0.00    -0.307 N 
ATOM     10  C   UNL     1      81.712  49.633  43.174  0.00  0.00    +0.009 C 
ATOM     11  C   UNL     1      82.991  50.445  42.980  0.00  0.00    -0.011 C 
ATOM     12  C   UNL     1      81.294  49.519  44.652  0.00  0.00    -0.049 C 
ATOM     13  H   UNL     1      81.004  47.800  42.671  0.00  0.00    +0.000 HD
ATOM     14  H   UNL     1      82.087  48.512  41.557  0.00  0.00    +0.000 HD
ENDROOT
BRANCH   4  15
ATOM     15  C   UNL     1      85.404  51.904  43.860  0.00  0.00    -0.003 A 
ATOM     16  C   UNL     1      85.853  52.474  42.653  0.00  0.00    -0.039 A 
ATOM     17  C   UNL     1      86.257  51.607  41.485  0.00  0.00    -0.039 C 
ATOM     18  C   UNL     1      85.933  53.863  42.531  0.00  0.00    -0.016 A 
ATOM     19  C   UNL     1      85.572  54.715  43.588  0.00  0.00    +0.132 A 
ATOM     20  C   UNL     1      85.116  54.159  44.811  0.00  0.00    +0.066 A 
ATOM     21  C   UNL     1      85.034  52.741  44.943  0.00  0.00    -0.003 A 
ATOM     22  C   UNL     1      84.574  52.188  46.156  0.00  0.00    -0.053 A 
ATOM     23  C   UNL     1      84.203  53.004  47.217  0.00  0.00    -0.058 A 
ATOM     24  C   UNL     1      84.283  54.386  47.099  0.00  0.00    -0.019 A 
ATOM     25  C   UNL     1      84.735  54.983  45.908  0.00  0.00    +0.131 A 
BRANCH  25  26
ATOM     26  O   UNL     1      84.811  56.383  45.797  0.00  0.00    -0.494 OA
ATOM     27  C   UNL     1      83.963  57.306  46.473  0.00  0.00    +0.079 C 
ENDBRANCH  25  26
BRANCH  19  28
ATOM     28  O   UNL     1      85.660  56.111  43.443  0.00  0.00    -0.494 OA
ATOM     29  C   UNL     1      84.726  56.925  42.739  0.00  0.00    +0.079 C 
ENDBRANCH  19  28
ENDBRANCH   4  15
BRANCH   1  31
ATOM     30  C   UNL     1      86.079  45.280  44.010  0.00  0.00    +0.079 C 
ATOM     31  O   UNL     1      85.124  46.234  44.461  0.00  0.00    -0.495 OA
ENDBRANCH   1  31
BRANCH   3  32
ATOM     32  O   UNL     1      87.514  50.436  45.016  0.00  0.00    -0.506 OA
ATOM     33  H   UNL     1      87.867  51.133  44.499  0.00  0.00    +0.000 HD
ENDBRANCH   3  32
TORSDOF 5
ENDMDL
