MODEL 1
REMARK VINA RESULT:    -9.804      0.000      0.000
REMARK INTER + INTRA:         -13.712
REMARK INTER:                 -12.100
REMARK INTRA:                  -1.612
REMARK UNBOUND:                -1.042
REMARK  Name = 
REMARK  13 active torsions:
REMARK  status: ('A' for Active; 'I' for Inactive)
REMARK    1  A    between atoms: C_1  and  O_2
REMARK    2  A    between atoms: O_2  and  C_3
REMARK    3  A    between atoms: C_5  and  O_6
REMARK    4  A    between atoms: O_6  and  C_7
REMARK    5  A    between atoms: C_10  and  C_11
REMARK    6  A    between atoms: C_12  and  C_13
REMARK    7  A    between atoms: C_15  and  O_24
REMARK    8  A    between atoms: C_21  and  O_22
REMARK    9  A    between atoms: O_22  and  C_23
REMARK   10  A    between atoms: O_24  and  C_25
REMARK   11  A    between atoms: C_27  and  C_32
REMARK   12  A    between atoms: N_28  and  C_31
REMARK   13  A    between atoms: C_29  and  C_30
REMARK                            x       y       z     vdW  Elec       q    Type
REMARK                         _______ _______ _______ _____ _____    ______ ____
ROOT
ATOM      1  C   UNL     1      88.036  49.439  42.898  0.00  0.00    +0.132 A 
ATOM      2  C   UNL     1      88.148  48.128  42.413  0.00  0.00    +0.023 A 
ATOM      3  C   UNL     1      87.085  47.218  42.541  0.00  0.00    +0.129 A 
ATOM      4  C   UNL     1      85.882  47.628  43.156  0.00  0.00    +0.015 A 
ATOM      5  C   UNL     1      85.743  48.960  43.588  0.00  0.00    -0.027 A 
ATOM      6  C   UNL     1      86.834  49.855  43.491  0.00  0.00    +0.028 A 
ATOM      7  C   UNL     1      84.421  49.396  44.151  0.00  0.00    -0.011 C 
ATOM      8  C   UNL     1      83.286  48.636  43.453  0.00  0.00    +0.012 C 
ATOM      9  N   UNL     1      83.428  47.185  43.731  0.00  0.00    -0.296 N 
ATOM     10  C   UNL     1      84.765  46.607  43.393  0.00  0.00    +0.037 C 
ATOM     11  C   UNL     1      85.180  45.680  44.542  0.00  0.00    -0.045 C 
ATOM     12  C   UNL     1      82.354  46.395  43.091  0.00  0.00    -0.012 C 
ATOM     13  C   UNL     1      81.941  49.185  43.966  0.00  0.00    -0.049 C 
ATOM     14  H   UNL     1      83.341  47.116  44.744  0.00  0.00    +0.000 HD
ENDROOT
BRANCH   6  15
ATOM     15  C   UNL     1      86.735  51.246  44.008  0.00  0.00    -0.003 A 
ATOM     16  C   UNL     1      87.154  51.523  45.325  0.00  0.00    -0.039 A 
ATOM     17  C   UNL     1      87.701  50.432  46.213  0.00  0.00    -0.039 C 
ATOM     18  C   UNL     1      87.051  52.824  45.825  0.00  0.00    -0.016 A 
ATOM     19  C   UNL     1      86.544  53.874  45.042  0.00  0.00    +0.132 A 
ATOM     20  C   UNL     1      86.123  53.616  43.711  0.00  0.00    +0.066 A 
ATOM     21  C   UNL     1      86.222  52.290  43.195  0.00  0.00    -0.003 A 
ATOM     22  C   UNL     1      85.797  52.030  41.876  0.00  0.00    -0.053 A 
ATOM     23  C   UNL     1      85.293  53.048  41.076  0.00  0.00    -0.058 A 
ATOM     24  C   UNL     1      85.197  54.343  41.567  0.00  0.00    -0.019 A 
ATOM     25  C   UNL     1      85.603  54.648  42.880  0.00  0.00    +0.131 A 
BRANCH  25  26
ATOM     26  O   UNL     1      85.499  55.962  43.371  0.00  0.00    -0.494 OA
ATOM     27  C   UNL     1      84.379  56.821  43.182  0.00  0.00    +0.079 C 
ENDBRANCH  25  26
BRANCH  19  28
ATOM     28  O   UNL     1      86.451  55.175  45.565  0.00  0.00    -0.494 OA
ATOM     29  C   UNL     1      85.899  55.513  46.835  0.00  0.00    +0.079 C 
ENDBRANCH  19  28
ENDBRANCH   6  15
BRANCH   1  31
ATOM     30  C   UNL     1      89.615  50.877  41.585  0.00  0.00    +0.079 C 
ATOM     31  O   UNL     1      89.095  50.359  42.805  0.00  0.00    -0.494 OA
ENDBRANCH   1  31
BRANCH   3  32
ATOM     32  O   UNL     1      87.189  45.899  42.065  0.00  0.00    -0.495 OA
ATOM     33  C   UNL     1      88.178  44.961  42.476  0.00  0.00    +0.079 C 
ENDBRANCH   3  32
TORSDOF 5
ENDMDL
MODEL 2
REMARK VINA RESULT:    -9.165      1.508      3.090
REMARK INTER + INTRA:         -12.886
REMARK INTER:                 -11.398
REMARK INTRA:                  -1.488
REMARK UNBOUND:                -1.042
REMARK  Name = 
REMARK  13 active torsions:
REMARK  status: ('A' for Active; 'I' for Inactive)
REMARK    1  A    between atoms: C_1  and  O_2
REMARK    2  A    between atoms: O_2  and  C_3
REMARK    3  A    between atoms: C_5  and  O_6
REMARK    4  A    between atoms: O_6  and  C_7
REMARK    5  A    between atoms: C_10  and  C_11
REMARK    6  A    between atoms: C_12  and  C_13
REMARK    7  A    between atoms: C_15  and  O_24
REMARK    8  A    between atoms: C_21  and  O_22
REMARK    9  A    between atoms: O_22  and  C_23
REMARK   10  A    between atoms: O_24  and  C_25
REMARK   11  A    between atoms: C_27  and  C_32
REMARK   12  A    between atoms: N_28  and  C_31
REMARK   13  A    between atoms: C_29  and  C_30
REMARK                            x       y       z     vdW  Elec       q    Type
REMARK                         _______ _______ _______ _____ _____    ______ ____
ROOT
ATOM      1  C   UNL     1      87.455  50.400  43.095  0.00  0.00    +0.132 A 
ATOM      2  C   UNL     1      87.877  49.196  42.513  0.00  0.00    +0.023 A 
ATOM      3  C   UNL     1      87.049  48.061  42.520  0.00  0.00    +0.129 A 
ATOM      4  C   UNL     1      85.769  48.132  43.112  0.00  0.00    +0.015 A 
ATOM      5  C   UNL     1      85.316  49.355  43.641  0.00  0.00    -0.027 A 
ATOM      6  C   UNL     1      86.175  50.479  43.664  0.00  0.00    +0.028 A 
ATOM      7  C   UNL     1      83.915  49.428  44.177  0.00  0.00    -0.011 C 
ATOM      8  C   UNL     1      83.005  48.494  43.370  0.00  0.00    +0.012 C 
ATOM      9  N   UNL     1      83.469  47.095  43.539  0.00  0.00    -0.296 N 
ATOM     10  C   UNL     1      84.911  46.868  43.217  0.00  0.00    +0.037 C 
ATOM     11  C   UNL     1      85.499  45.962  44.306  0.00  0.00    -0.045 C 
ATOM     12  C   UNL     1      82.622  46.141  42.792  0.00  0.00    -0.012 C 
ATOM     13  C   UNL     1      81.556  48.677  43.864  0.00  0.00    -0.049 C 
ATOM     14  H   UNL     1      83.374  46.920  44.539  0.00  0.00    +0.000 HD
ENDROOT
BRANCH   6  15
ATOM     15  C   UNL     1      85.745  51.760  44.285  0.00  0.00    -0.003 A 
ATOM     16  C   UNL     1      85.220  52.780  43.466  0.00  0.00    -0.039 A 
ATOM     17  C   UNL     1      85.087  52.591  41.975  0.00  0.00    -0.039 C 
ATOM     18  C   UNL     1      84.826  53.993  44.039  0.00  0.00    -0.016 A 
ATOM     19  C   UNL     1      84.933  54.222  45.420  0.00  0.00    +0.132 A 
ATOM     20  C   UNL     1      85.452  53.204  46.262  0.00  0.00    +0.066 A 
ATOM     21  C   UNL     1      85.860  51.965  45.684  0.00  0.00    -0.003 A 
ATOM     22  C   UNL     1      86.383  50.956  46.518  0.00  0.00    -0.053 A 
ATOM     23  C   UNL     1      86.500  51.152  47.888  0.00  0.00    -0.058 A 
ATOM     24  C   UNL     1      86.102  52.353  48.461  0.00  0.00    -0.019 A 
ATOM     25  C   UNL     1      85.579  53.391  47.668  0.00  0.00    +0.131 A 
BRANCH  25  26
ATOM     26  O   UNL     1      85.182  54.606  48.255  0.00  0.00    -0.494 OA
ATOM     27  C   UNL     1      84.126  54.755  49.197  0.00  0.00    +0.079 C 
ENDBRANCH  25  26
BRANCH  19  28
ATOM     28  O   UNL     1      84.529  55.450  45.975  0.00  0.00    -0.494 OA
ATOM     29  C   UNL     1      84.827  56.734  45.433  0.00  0.00    +0.079 C 
ENDBRANCH  19  28
ENDBRANCH   6  15
BRANCH   1  31
ATOM     30  C   UNL     1      88.853  52.153  41.973  0.00  0.00    +0.079 C 
ATOM     31  O   UNL     1      88.276  51.541  43.122  0.00  0.00    -0.494 OA
ENDBRANCH   1  31
BRANCH   3  32
ATOM     32  O   UNL     1      87.467  46.847  41.947  0.00  0.00    -0.495 OA
ATOM     33  C   UNL     1      88.761  46.275  42.103  0.00  0.00    +0.079 C 
ENDBRANCH   3  32
TORSDOF 5
ENDMDL
MODEL 3
REMARK VINA RESULT:    -8.946      2.382      7.062
REMARK INTER + INTRA:         -12.603
REMARK INTER:                 -11.106
REMARK INTRA:                  -1.497
REMARK UNBOUND:                -1.042
REMARK  Name = 
REMARK  13 active torsions:
REMARK  status: ('A' for Active; 'I' for Inactive)
REMARK    1  A    between atoms: C_1  and  O_2
REMARK    2  A    between atoms: O_2  and  C_3
REMARK    3  A    between atoms: C_5  and  O_6
REMARK    4  A    between atoms: O_6  and  C_7
REMARK    5  A    between atoms: C_10  and  C_11
REMARK    6  A    between atoms: C_12  and  C_13
REMARK    7  A    between atoms: C_15  and  O_24
REMARK    8  A    between atoms: C_21  and  O_22
REMARK    9  A    between atoms: O_22  and  C_23
REMARK   10  A    between atoms: O_24  and  C_25
REMARK   11  A    between atoms: C_27  and  C_32
REMARK   12  A    between atoms: N_28  and  C_31
REMARK   13  A    between atoms: C_29  and  C_30
REMARK                            x       y       z     vdW  Elec       q    Type
REMARK                         _______ _______ _______ _____ _____    ______ ____
ROOT
ATOM      1  C   UNL     1      85.980  52.809  42.735  0.00  0.00    +0.132 A 
ATOM      2  C   UNL     1      86.236  54.186  42.800  0.00  0.00    +0.023 A 
ATOM      3  C   UNL     1      86.082  54.894  44.004  0.00  0.00    +0.129 A 
ATOM      4  C   UNL     1      85.674  54.211  45.169  0.00  0.00    +0.015 A 
ATOM      5  C   UNL     1      85.476  52.818  45.125  0.00  0.00    -0.027 A 
ATOM      6  C   UNL     1      85.594  52.124  43.898  0.00  0.00    +0.028 A 
ATOM      7  C   UNL     1      85.136  52.102  46.400  0.00  0.00    -0.011 C 
ATOM      8  C   UNL     1      85.824  52.796  47.582  0.00  0.00    +0.012 C 
ATOM      9  N   UNL     1      85.306  54.181  47.703  0.00  0.00    -0.296 N 
ATOM     10  C   UNL     1      85.401  55.000  46.454  0.00  0.00    +0.037 C 
ATOM     11  C   UNL     1      84.082  55.764  46.292  0.00  0.00    -0.045 C 
ATOM     12  C   UNL     1      85.926  54.904  48.834  0.00  0.00    -0.012 C 
ATOM     13  C   UNL     1      85.554  51.975  48.857  0.00  0.00    -0.049 C 
ATOM     14  H   UNL     1      84.310  54.060  47.883  0.00  0.00    +0.000 HD
ENDROOT
BRANCH   6  15
ATOM     15  C   UNL     1      85.317  50.666  43.812  0.00  0.00    -0.003 A 
ATOM     16  C   UNL     1      86.364  49.751  44.044  0.00  0.00    -0.039 A 
ATOM     17  C   UNL     1      87.756  50.229  44.379  0.00  0.00    -0.039 C 
ATOM     18  C   UNL     1      86.117  48.378  43.951  0.00  0.00    -0.016 A 
ATOM     19  C   UNL     1      84.842  47.881  43.638  0.00  0.00    +0.132 A 
ATOM     20  C   UNL     1      83.773  48.787  43.408  0.00  0.00    +0.066 A 
ATOM     21  C   UNL     1      84.019  50.189  43.497  0.00  0.00    -0.003 A 
ATOM     22  C   UNL     1      82.960  51.090  43.261  0.00  0.00    -0.053 A 
ATOM     23  C   UNL     1      81.687  50.629  42.950  0.00  0.00    -0.058 A 
ATOM     24  C   UNL     1      81.437  49.266  42.865  0.00  0.00    -0.019 A 
ATOM     25  C   UNL     1      82.463  48.329  43.087  0.00  0.00    +0.131 A 
BRANCH  25  26
ATOM     26  O   UNL     1      82.203  46.950  42.995  0.00  0.00    -0.494 OA
ATOM     27  C   UNL     1      81.159  46.265  43.680  0.00  0.00    +0.079 C 
ENDBRANCH  25  26
BRANCH  19  28
ATOM     28  O   UNL     1      84.616  46.496  43.551  0.00  0.00    -0.494 OA
ATOM     29  C   UNL     1      85.191  45.514  44.408  0.00  0.00    +0.079 C 
ENDBRANCH  19  28
ENDBRANCH   6  15
BRANCH   1  31
ATOM     30  C   UNL     1      87.336  51.778  40.895  0.00  0.00    +0.079 C 
ATOM     31  O   UNL     1      86.102  52.085  41.536  0.00  0.00    -0.494 OA
ENDBRANCH   1  31
BRANCH   3  32
ATOM     32  O   UNL     1      86.329  56.276  44.077  0.00  0.00    -0.495 OA
ATOM     33  C   UNL     1      85.479  57.285  43.541  0.00  0.00    +0.079 C 
ENDBRANCH   3  32
TORSDOF 5
ENDMDL
MODEL 4
REMARK VINA RESULT:    -8.938      2.124      7.253
REMARK INTER + INTRA:         -12.593
REMARK INTER:                 -11.130
REMARK INTRA:                  -1.463
REMARK UNBOUND:                -1.042
REMARK  Name = 
REMARK  13 active torsions:
REMARK  status: ('A' for Active; 'I' for Inactive)
REMARK    1  A    between atoms: C_1  and  O_2
REMARK    2  A    between atoms: O_2  and  C_3
REMARK    3  A    between atoms: C_5  and  O_6
REMARK    4  A    between atoms: O_6  and  C_7
REMARK    5  A    between atoms: C_10  and  C_11
REMARK    6  A    between atoms: C_12  and  C_13
REMARK    7  A    between atoms: C_15  and  O_24
REMARK    8  A    between atoms: C_21  and  O_22
REMARK    9  A    between atoms: O_22  and  C_23
REMARK   10  A    between atoms: O_24  and  C_25
REMARK   11  A    between atoms: C_27  and  C_32
REMARK   12  A    between atoms: N_28  and  C_31
REMARK   13  A    between atoms: C_29  and  C_30
REMARK                            x       y       z     vdW  Elec       q    Type
REMARK                         _______ _______ _______ _____ _____    ______ ____
ROOT
ATOM      1  C   UNL     1      86.016  51.477  46.231  0.00  0.00    +0.132 A 
ATOM      2  C   UNL     1      85.867  52.719  46.865  0.00  0.00    +0.023 A 
ATOM      3  C   UNL     1      85.665  53.891  46.118  0.00  0.00    +0.129 A 
ATOM      4  C   UNL     1      85.601  53.821  44.709  0.00  0.00    +0.015 A 
ATOM      5  C   UNL     1      85.687  52.570  44.072  0.00  0.00    -0.027 A 
ATOM      6  C   UNL     1      85.931  51.402  44.832  0.00  0.00    +0.028 A 
ATOM      7  C   UNL     1      85.518  52.513  42.581  0.00  0.00    -0.011 C 
ATOM      8  C   UNL     1      84.533  53.598  42.130  0.00  0.00    +0.012 C 
ATOM      9  N   UNL     1      85.092  54.932  42.460  0.00  0.00    -0.296 N 
ATOM     10  C   UNL     1      85.490  55.111  43.891  0.00  0.00    +0.037 C 
ATOM     11  C   UNL     1      86.845  55.828  43.915  0.00  0.00    -0.045 C 
ATOM     12  C   UNL     1      84.190  56.025  42.040  0.00  0.00    -0.012 C 
ATOM     13  C   UNL     1      84.290  53.441  40.617  0.00  0.00    -0.049 C 
ATOM     14  H   UNL     1      85.956  54.980  41.921  0.00  0.00    +0.000 HD
ENDROOT
BRANCH   6  15
ATOM     15  C   UNL     1      86.100  50.079  44.174  0.00  0.00    -0.003 A 
ATOM     16  C   UNL     1      87.393  49.645  43.822  0.00  0.00    -0.039 A 
ATOM     17  C   UNL     1      88.605  50.500  44.103  0.00  0.00    -0.039 C 
ATOM     18  C   UNL     1      87.561  48.410  43.190  0.00  0.00    -0.016 A 
ATOM     19  C   UNL     1      86.466  47.578  42.901  0.00  0.00    +0.132 A 
ATOM     20  C   UNL     1      85.156  47.995  43.255  0.00  0.00    +0.066 A 
ATOM     21  C   UNL     1      84.978  49.256  43.897  0.00  0.00    -0.003 A 
ATOM     22  C   UNL     1      83.676  49.676  44.242  0.00  0.00    -0.053 A 
ATOM     23  C   UNL     1      82.574  48.875  43.971  0.00  0.00    -0.058 A 
ATOM     24  C   UNL     1      82.738  47.643  43.351  0.00  0.00    -0.019 A 
ATOM     25  C   UNL     1      84.017  47.186  42.983  0.00  0.00    +0.131 A 
BRANCH  25  26
ATOM     26  O   UNL     1      84.174  45.939  42.351  0.00  0.00    -0.494 OA
ATOM     27  C   UNL     1      84.058  44.674  42.993  0.00  0.00    +0.079 C 
ENDBRANCH  25  26
BRANCH  19  28
ATOM     28  O   UNL     1      86.658  46.339  42.266  0.00  0.00    -0.494 OA
ATOM     29  C   UNL     1      87.888  45.620  42.221  0.00  0.00    +0.079 C 
ENDBRANCH  19  28
ENDBRANCH   6  15
BRANCH   1  31
ATOM     30  C   UNL     1      87.403  50.036  47.744  0.00  0.00    +0.079 C 
ATOM     31  O   UNL     1      86.245  50.295  46.957  0.00  0.00    -0.494 OA
ENDBRANCH   1  31
BRANCH   3  32
ATOM     32  O   UNL     1      85.523  55.143  46.744  0.00  0.00    -0.495 OA
ATOM     33  C   UNL     1      84.483  55.484  47.654  0.00  0.00    +0.079 C 
ENDBRANCH   3  32
TORSDOF 5
ENDMDL
MODEL 5
REMARK VINA RESULT:    -8.925      2.156      7.316
REMARK INTER + INTRA:         -12.576
REMARK INTER:                 -11.142
REMARK INTRA:                  -1.434
REMARK UNBOUND:                -1.042
REMARK  Name = 
REMARK  13 active torsions:
REMARK  status: ('A' for Active; 'I' for Inactive)
REMARK    1  A    between atoms: C_1  and  O_2
REMARK    2  A    between atoms: O_2  and  C_3
REMARK    3  A    between atoms: C_5  and  O_6
REMARK    4  A    between atoms: O_6  and  C_7
REMARK    5  A    between atoms: C_10  and  C_11
REMARK    6  A    between atoms: C_12  and  C_13
REMARK    7  A    between atoms: C_15  and  O_24
REMARK    8  A    between atoms: C_21  and  O_22
REMARK    9  A    between atoms: O_22  and  C_23
REMARK   10  A    between atoms: O_24  and  C_25
REMARK   11  A    between atoms: C_27  and  C_32
REMARK   12  A    between atoms: N_28  and  C_31
REMARK   13  A    between atoms: C_29  and  C_30
REMARK                            x       y       z     vdW  Elec       q    Type
REMARK                         _______ _______ _______ _____ _____    ______ ____
ROOT
ATOM      1  C   UNL     1      86.105  51.318  46.208  0.00  0.00    +0.132 A 
ATOM      2  C   UNL     1      86.125  52.550  46.878  0.00  0.00    +0.023 A 
ATOM      3  C   UNL     1      85.913  53.753  46.183  0.00  0.00    +0.129 A 
ATOM      4  C   UNL     1      85.667  53.724  44.793  0.00  0.00    +0.015 A 
ATOM      5  C   UNL     1      85.583  52.488  44.128  0.00  0.00    -0.027 A 
ATOM      6  C   UNL     1      85.839  51.286  44.830  0.00  0.00    +0.028 A 
ATOM      7  C   UNL     1      85.224  52.481  42.670  0.00  0.00    -0.011 C 
ATOM      8  C   UNL     1      84.269  53.642  42.368  0.00  0.00    +0.012 C 
ATOM      9  N   UNL     1      84.958  54.926  42.647  0.00  0.00    -0.296 N 
ATOM     10  C   UNL     1      85.544  55.040  44.018  0.00  0.00    +0.037 C 
ATOM     11  C   UNL     1      86.939  55.663  43.882  0.00  0.00    -0.045 C 
ATOM     12  C   UNL     1      84.089  56.088  42.365  0.00  0.00    -0.012 C 
ATOM     13  C   UNL     1      83.826  53.541  40.895  0.00  0.00    -0.049 C 
ATOM     14  H   UNL     1      85.748  54.929  42.003  0.00  0.00    +0.000 HD
ENDROOT
BRANCH   6  15
ATOM     15  C   UNL     1      85.830  49.973  44.133  0.00  0.00    -0.003 A 
ATOM     16  C   UNL     1      84.604  49.307  43.935  0.00  0.00    -0.039 A 
ATOM     17  C   UNL     1      83.305  49.905  44.418  0.00  0.00    -0.039 C 
ATOM     18  C   UNL     1      84.586  48.065  43.293  0.00  0.00    -0.016 A 
ATOM     19  C   UNL     1      85.767  47.462  42.829  0.00  0.00    +0.132 A 
ATOM     20  C   UNL     1      87.010  48.121  43.013  0.00  0.00    +0.066 A 
ATOM     21  C   UNL     1      87.036  49.386  43.670  0.00  0.00    -0.003 A 
ATOM     22  C   UNL     1      88.271  50.039  43.861  0.00  0.00    -0.053 A 
ATOM     23  C   UNL     1      89.456  49.469  43.411  0.00  0.00    -0.058 A 
ATOM     24  C   UNL     1      89.441  48.239  42.766  0.00  0.00    -0.019 A 
ATOM     25  C   UNL     1      88.232  47.548  42.559  0.00  0.00    +0.131 A 
BRANCH  25  26
ATOM     26  O   UNL     1      88.226  46.301  41.908  0.00  0.00    -0.494 OA
ATOM     27  C   UNL     1      88.823  45.111  42.412  0.00  0.00    +0.079 C 
ENDBRANCH  25  26
BRANCH  19  28
ATOM     28  O   UNL     1      85.726  46.212  42.185  0.00  0.00    -0.494 OA
ATOM     29  C   UNL     1      84.881  45.125  42.553  0.00  0.00    +0.079 C 
ENDBRANCH  19  28
ENDBRANCH   6  15
BRANCH   1  31
ATOM     30  C   UNL     1      87.466  49.840  47.707  0.00  0.00    +0.079 C 
ATOM     31  O   UNL     1      86.340  50.104  46.877  0.00  0.00    -0.494 OA
ENDBRANCH   1  31
BRANCH   3  32
ATOM     32  O   UNL     1      85.939  54.994  46.844  0.00  0.00    -0.495 OA
ATOM     33  C   UNL     1      84.896  55.499  47.670  0.00  0.00    +0.079 C 
ENDBRANCH   3  32
TORSDOF 5
ENDMDL
MODEL 6
REMARK VINA RESULT:    -7.651      2.127      6.886
REMARK INTER + INTRA:         -10.929
REMARK INTER:                 -10.259
REMARK INTRA:                  -0.670
REMARK UNBOUND:                -1.042
REMARK  Name = 
REMARK  13 active torsions:
REMARK  status: ('A' for Active; 'I' for Inactive)
REMARK    1  A    between atoms: C_1  and  O_2
REMARK    2  A    between atoms: O_2  and  C_3
REMARK    3  A    between atoms: C_5  and  O_6
REMARK    4  A    between atoms: O_6  and  C_7
REMARK    5  A    between atoms: C_10  and  C_11
REMARK    6  A    between atoms: C_12  and  C_13
REMARK    7  A    between atoms: C_15  and  O_24
REMARK    8  A    between atoms: C_21  and  O_22
REMARK    9  A    between atoms: O_22  and  C_23
REMARK   10  A    between atoms: O_24  and  C_25
REMARK   11  A    between atoms: C_27  and  C_32
REMARK   12  A    between atoms: N_28  and  C_31
REMARK   13  A    between atoms: C_29  and  C_30
REMARK                            x       y       z     vdW  Elec       q    Type
REMARK                         _______ _______ _______ _____ _____    ______ ____
ROOT
ATOM      1  C   UNL     1      86.705  52.538  44.778  0.00  0.00    +0.132 A 
ATOM      2  C   UNL     1      86.359  53.865  45.077  0.00  0.00    +0.023 A 
ATOM      3  C   UNL     1      85.354  54.528  44.354  0.00  0.00    +0.129 A 
ATOM      4  C   UNL     1      84.673  53.851  43.319  0.00  0.00    +0.015 A 
ATOM      5  C   UNL     1      84.972  52.502  43.058  0.00  0.00    -0.027 A 
ATOM      6  C   UNL     1      86.015  51.857  43.764  0.00  0.00    +0.028 A 
ATOM      7  C   UNL     1      84.167  51.778  42.018  0.00  0.00    -0.011 C 
ATOM      8  C   UNL     1      82.731  52.316  42.009  0.00  0.00    +0.012 C 
ATOM      9  N   UNL     1      82.751  53.751  41.631  0.00  0.00    -0.296 N 
ATOM     10  C   UNL     1      83.654  54.608  42.461  0.00  0.00    +0.037 C 
ATOM     11  C   UNL     1      84.409  55.549  41.515  0.00  0.00    -0.045 C 
ATOM     12  C   UNL     1      81.391  54.329  41.594  0.00  0.00    -0.012 C 
ATOM     13  C   UNL     1      81.900  51.478  41.018  0.00  0.00    -0.049 C 
ATOM     14  H   UNL     1      83.147  53.756  40.691  0.00  0.00    +0.000 HD
ENDROOT
BRANCH   6  15
ATOM     15  C   UNL     1      86.400  50.455  43.454  0.00  0.00    -0.003 A 
ATOM     16  C   UNL     1      85.561  49.402  43.871  0.00  0.00    -0.039 A 
ATOM     17  C   UNL     1      84.283  49.677  44.625  0.00  0.00    -0.039 C 
ATOM     18  C   UNL     1      85.921  48.079  43.597  0.00  0.00    -0.016 A 
ATOM     19  C   UNL     1      87.102  47.769  42.903  0.00  0.00    +0.132 A 
ATOM     20  C   UNL     1      87.956  48.816  42.468  0.00  0.00    +0.066 A 
ATOM     21  C   UNL     1      87.597  50.167  42.748  0.00  0.00    -0.003 A 
ATOM     22  C   UNL     1      88.448  51.209  42.324  0.00  0.00    -0.053 A 
ATOM     23  C   UNL     1      89.622  50.934  41.634  0.00  0.00    -0.058 A 
ATOM     24  C   UNL     1      89.978  49.621  41.352  0.00  0.00    -0.019 A 
ATOM     25  C   UNL     1      89.163  48.549  41.761  0.00  0.00    +0.131 A 
BRANCH  25  26
ATOM     26  O   UNL     1      89.533  47.223  41.476  0.00  0.00    -0.494 OA
ATOM     27  C   UNL     1      90.564  46.499  42.140  0.00  0.00    +0.079 C 
ENDBRANCH  25  26
BRANCH  19  28
ATOM     28  O   UNL     1      87.444  46.431  42.637  0.00  0.00    -0.494 OA
ATOM     29  C   UNL     1      86.549  45.324  42.708  0.00  0.00    +0.079 C 
ENDBRANCH  19  28
ENDBRANCH   6  15
BRANCH   1  31
ATOM     30  C   UNL     1      87.560  51.206  46.723  0.00  0.00    +0.079 C 
ATOM     31  O   UNL     1      87.726  51.863  45.470  0.00  0.00    -0.494 OA
ENDBRANCH   1  31
BRANCH   3  32
ATOM     32  O   UNL     1      85.005  55.860  44.640  0.00  0.00    -0.495 OA
ATOM     33  C   UNL     1      85.750  56.735  45.480  0.00  0.00    +0.079 C 
ENDBRANCH   3  32
TORSDOF 5
ENDMDL
MODEL 7
REMARK VINA RESULT:    -7.639      1.898      3.667
REMARK INTER + INTRA:         -10.914
REMARK INTER:                  -9.434
REMARK INTRA:                  -1.481
REMARK UNBOUND:                -1.042
REMARK  Name = 
REMARK  13 active torsions:
REMARK  status: ('A' for Active; 'I' for Inactive)
REMARK    1  A    between atoms: C_1  and  O_2
REMARK    2  A    between atoms: O_2  and  C_3
REMARK    3  A    between atoms: C_5  and  O_6
REMARK    4  A    between atoms: O_6  and  C_7
REMARK    5  A    between atoms: C_10  and  C_11
REMARK    6  A    between atoms: C_12  and  C_13
REMARK    7  A    between atoms: C_15  and  O_24
REMARK    8  A    between atoms: C_21  and  O_22
REMARK    9  A    between atoms: O_22  and  C_23
REMARK   10  A    between atoms: O_24  and  C_25
REMARK   11  A    between atoms: C_27  and  C_32
REMARK   12  A    between atoms: N_28  and  C_31
REMARK   13  A    between atoms: C_29  and  C_30
REMARK                            x       y       z     vdW  Elec       q    Type
REMARK                         _______ _______ _______ _____ _____    ______ ____
ROOT
ATOM      1  C   UNL     1      85.123  49.018  44.125  0.00  0.00    +0.132 A 
ATOM      2  C   UNL     1      85.037  47.655  43.807  0.00  0.00    +0.023 A 
ATOM      3  C   UNL     1      86.148  46.960  43.301  0.00  0.00    +0.129 A 
ATOM      4  C   UNL     1      87.373  47.638  43.118  0.00  0.00    +0.015 A 
ATOM      5  C   UNL     1      87.482  48.990  43.494  0.00  0.00    -0.027 A 
ATOM      6  C   UNL     1      86.345  49.688  43.964  0.00  0.00    +0.028 A 
ATOM      7  C   UNL     1      88.820  49.660  43.379  0.00  0.00    -0.011 C 
ATOM      8  C   UNL     1      89.933  48.640  43.650  0.00  0.00    +0.012 C 
ATOM      9  N   UNL     1      89.883  47.577  42.617  0.00  0.00    -0.296 N 
ATOM     10  C   UNL     1      88.552  46.910  42.465  0.00  0.00    +0.037 C 
ATOM     11  C   UNL     1      88.270  46.761  40.965  0.00  0.00    -0.045 C 
ATOM     12  C   UNL     1      90.941  46.564  42.817  0.00  0.00    -0.012 C 
ATOM     13  C   UNL     1      91.286  49.378  43.641  0.00  0.00    -0.049 C 
ATOM     14  H   UNL     1      90.049  48.072  41.741  0.00  0.00    +0.000 HD
ENDROOT
BRANCH   6  15
ATOM     15  C   UNL     1      86.417  51.136  44.297  0.00  0.00    -0.003 A 
ATOM     16  C   UNL     1      86.875  51.528  45.571  0.00  0.00    -0.039 A 
ATOM     17  C   UNL     1      87.292  50.503  46.597  0.00  0.00    -0.039 C 
ATOM     18  C   UNL     1      86.933  52.885  45.899  0.00  0.00    -0.016 A 
ATOM     19  C   UNL     1      86.552  53.879  44.982  0.00  0.00    +0.132 A 
ATOM     20  C   UNL     1      86.095  53.504  43.691  0.00  0.00    +0.066 A 
ATOM     21  C   UNL     1      86.030  52.121  43.351  0.00  0.00    -0.003 A 
ATOM     22  C   UNL     1      85.568  51.746  42.072  0.00  0.00    -0.053 A 
ATOM     23  C   UNL     1      85.186  52.706  41.143  0.00  0.00    -0.058 A 
ATOM     24  C   UNL     1      85.250  54.056  41.463  0.00  0.00    -0.019 A 
ATOM     25  C   UNL     1      85.699  54.476  42.729  0.00  0.00    +0.131 A 
BRANCH  25  26
ATOM     26  O   UNL     1      85.757  55.845  43.046  0.00  0.00    -0.494 OA
ATOM     27  C   UNL     1      84.646  56.736  43.040  0.00  0.00    +0.079 C 
ENDBRANCH  25  26
BRANCH  19  28
ATOM     28  O   UNL     1      86.620  55.239  45.332  0.00  0.00    -0.494 OA
ATOM     29  C   UNL     1      86.150  55.796  46.557  0.00  0.00    +0.079 C 
ENDBRANCH  19  28
ENDBRANCH   6  15
BRANCH   1  31
ATOM     30  C   UNL     1      82.769  49.860  43.934  0.00  0.00    +0.079 C 
ATOM     31  O   UNL     1      84.017  49.740  44.608  0.00  0.00    -0.494 OA
ENDBRANCH   1  31
BRANCH   3  32
ATOM     32  O   UNL     1      86.071  45.596  42.972  0.00  0.00    -0.495 OA
ATOM     33  C   UNL     1      86.048  44.530  43.915  0.00  0.00    +0.079 C 
ENDBRANCH   3  32
TORSDOF 5
ENDMDL
MODEL 8
REMARK VINA RESULT:    -7.339      1.768      3.388
REMARK INTER + INTRA:         -10.527
REMARK INTER:                  -9.315
REMARK INTRA:                  -1.212
REMARK UNBOUND:                -1.042
REMARK  Name = 
REMARK  13 active torsions:
REMARK  status: ('A' for Active; 'I' for Inactive)
REMARK    1  A    between atoms: C_1  and  O_2
REMARK    2  A    between atoms: O_2  and  C_3
REMARK    3  A    between atoms: C_5  and  O_6
REMARK    4  A    between atoms: O_6  and  C_7
REMARK    5  A    between atoms: C_10  and  C_11
REMARK    6  A    between atoms: C_12  and  C_13
REMARK    7  A    between atoms: C_15  and  O_24
REMARK    8  A    between atoms: C_21  and  O_22
REMARK    9  A    between atoms: O_22  and  C_23
REMARK   10  A    between atoms: O_24  and  C_25
REMARK   11  A    between atoms: C_27  and  C_32
REMARK   12  A    between atoms: N_28  and  C_31
REMARK   13  A    between atoms: C_29  and  C_30
REMARK                            x       y       z     vdW  Elec       q    Type
REMARK                         _______ _______ _______ _____ _____    ______ ____
ROOT
ATOM      1  C   UNL     1      85.780  49.097  43.092  0.00  0.00    +0.132 A 
ATOM      2  C   UNL     1      85.740  47.737  42.749  0.00  0.00    +0.023 A 
ATOM      3  C   UNL     1      84.557  46.993  42.885  0.00  0.00    +0.129 A 
ATOM      4  C   UNL     1      83.386  47.621  43.363  0.00  0.00    +0.015 A 
ATOM      5  C   UNL     1      83.404  48.998  43.649  0.00  0.00    -0.027 A 
ATOM      6  C   UNL     1      84.612  49.727  43.547  0.00  0.00    +0.028 A 
ATOM      7  C   UNL     1      82.122  49.661  44.063  0.00  0.00    -0.011 C 
ATOM      8  C   UNL     1      80.940  48.984  43.360  0.00  0.00    +0.012 C 
ATOM      9  N   UNL     1      80.863  47.566  43.790  0.00  0.00    -0.296 N 
ATOM     10  C   UNL     1      82.126  46.786  43.614  0.00  0.00    +0.037 C 
ATOM     11  C   UNL     1      82.338  45.943  44.878  0.00  0.00    -0.045 C 
ATOM     12  C   UNL     1      79.732  46.859  43.152  0.00  0.00    -0.012 C 
ATOM     13  C   UNL     1      79.654  49.756  43.712  0.00  0.00    -0.049 C 
ATOM     14  H   UNL     1      80.704  47.620  44.796  0.00  0.00    +0.000 HD
ENDROOT
BRANCH   6  15
ATOM     15  C   UNL     1      84.673  51.167  43.915  0.00  0.00    -0.003 A 
ATOM     16  C   UNL     1      84.221  52.133  42.994  0.00  0.00    -0.039 A 
ATOM     17  C   UNL     1      83.678  51.729  41.645  0.00  0.00    -0.039 C 
ATOM     18  C   UNL     1      84.288  53.490  43.324  0.00  0.00    -0.016 A 
ATOM     19  C   UNL     1      84.789  53.920  44.564  0.00  0.00    +0.132 A 
ATOM     20  C   UNL     1      85.242  52.961  45.508  0.00  0.00    +0.066 A 
ATOM     21  C   UNL     1      85.181  51.576  45.175  0.00  0.00    -0.003 A 
ATOM     22  C   UNL     1      85.638  50.622  46.109  0.00  0.00    -0.053 A 
ATOM     23  C   UNL     1      86.138  51.016  47.344  0.00  0.00    -0.058 A 
ATOM     24  C   UNL     1      86.198  52.363  47.678  0.00  0.00    -0.019 A 
ATOM     25  C   UNL     1      85.758  53.350  46.776  0.00  0.00    +0.131 A 
BRANCH  25  26
ATOM     26  O   UNL     1      85.826  54.712  47.122  0.00  0.00    -0.494 OA
ATOM     27  C   UNL     1      84.996  55.357  48.081  0.00  0.00    +0.079 C 
ENDBRANCH  25  26
BRANCH  19  28
ATOM     28  O   UNL     1      84.845  55.289  44.876  0.00  0.00    -0.494 OA
ATOM     29  C   UNL     1      85.385  56.303  44.033  0.00  0.00    +0.079 C 
ENDBRANCH  19  28
ENDBRANCH   6  15
BRANCH   1  31
ATOM     30  C   UNL     1      87.535  50.299  41.764  0.00  0.00    +0.079 C 
ATOM     31  O   UNL     1      86.960  49.855  42.989  0.00  0.00    -0.494 OA
ENDBRANCH   1  31
BRANCH   3  32
ATOM     32  O   UNL     1      84.508  45.628  42.552  0.00  0.00    -0.495 OA
ATOM     33  C   UNL     1      85.479  44.661  42.936  0.00  0.00    +0.079 C 
ENDBRANCH   3  32
TORSDOF 5
ENDMDL
MODEL 9
REMARK VINA RESULT:    -6.941      2.045      4.493
REMARK INTER + INTRA:         -10.011
REMARK INTER:                  -8.969
REMARK INTRA:                  -1.042
REMARK UNBOUND:                -1.042
REMARK  Name = 
REMARK  13 active torsions:
REMARK  status: ('A' for Active; 'I' for Inactive)
REMARK    1  A    between atoms: C_1  and  O_2
REMARK    2  A    between atoms: O_2  and  C_3
REMARK    3  A    between atoms: C_5  and  O_6
REMARK    4  A    between atoms: O_6  and  C_7
REMARK    5  A    between atoms: C_10  and  C_11
REMARK    6  A    between atoms: C_12  and  C_13
REMARK    7  A    between atoms: C_15  and  O_24
REMARK    8  A    between atoms: C_21  and  O_22
REMARK    9  A    between atoms: O_22  and  C_23
REMARK   10  A    between atoms: O_24  and  C_25
REMARK   11  A    between atoms: C_27  and  C_32
REMARK   12  A    between atoms: N_28  and  C_31
REMARK   13  A    between atoms: C_29  and  C_30
REMARK                            x       y       z     vdW  Elec       q    Type
REMARK                         _______ _______ _______ _____ _____    ______ ____
ROOT
ATOM      1  C   UNL     1      84.988  49.030  43.795  0.00  0.00    +0.132 A 
ATOM      2  C   UNL     1      84.919  47.642  43.597  0.00  0.00    +0.023 A 
ATOM      3  C   UNL     1      86.056  46.911  43.214  0.00  0.00    +0.129 A 
ATOM      4  C   UNL     1      87.288  47.576  43.034  0.00  0.00    +0.015 A 
ATOM      5  C   UNL     1      87.377  48.956  43.292  0.00  0.00    -0.027 A 
ATOM      6  C   UNL     1      86.217  49.688  43.637  0.00  0.00    +0.028 A 
ATOM      7  C   UNL     1      88.720  49.619  43.187  0.00  0.00    -0.011 C 
ATOM      8  C   UNL     1      89.817  48.634  43.606  0.00  0.00    +0.012 C 
ATOM      9  N   UNL     1      89.821  47.482  42.672  0.00  0.00    -0.296 N 
ATOM     10  C   UNL     1      88.500  46.797  42.512  0.00  0.00    +0.037 C 
ATOM     11  C   UNL     1      88.296  46.512  41.019  0.00  0.00    -0.045 C 
ATOM     12  C   UNL     1      90.867  46.496  43.017  0.00  0.00    -0.012 C 
ATOM     13  C   UNL     1      91.169  49.375  43.600  0.00  0.00    -0.049 C 
ATOM     14  H   UNL     1      90.032  47.897  41.765  0.00  0.00    +0.000 HD
ENDROOT
BRANCH   6  15
ATOM     15  C   UNL     1      86.271  51.161  43.841  0.00  0.00    -0.003 A 
ATOM     16  C   UNL     1      86.317  52.011  42.718  0.00  0.00    -0.039 A 
ATOM     17  C   UNL     1      86.311  51.451  41.317  0.00  0.00    -0.039 C 
ATOM     18  C   UNL     1      86.383  53.395  42.900  0.00  0.00    -0.016 A 
ATOM     19  C   UNL     1      86.397  53.967  44.183  0.00  0.00    +0.132 A 
ATOM     20  C   UNL     1      86.344  53.128  45.326  0.00  0.00    +0.066 A 
ATOM     21  C   UNL     1      86.281  51.714  45.148  0.00  0.00    -0.003 A 
ATOM     22  C   UNL     1      86.236  50.878  46.283  0.00  0.00    -0.053 A 
ATOM     23  C   UNL     1      86.246  51.414  47.564  0.00  0.00    -0.058 A 
ATOM     24  C   UNL     1      86.304  52.789  47.748  0.00  0.00    -0.019 A 
ATOM     25  C   UNL     1      86.356  53.663  46.646  0.00  0.00    +0.131 A 
BRANCH  25  26
ATOM     26  O   UNL     1      86.418  55.054  46.840  0.00  0.00    -0.494 OA
ATOM     27  C   UNL     1      85.351  55.863  47.324  0.00  0.00    +0.079 C 
ENDBRANCH  25  26
BRANCH  19  28
ATOM     28  O   UNL     1      86.462  55.363  44.342  0.00  0.00    -0.494 OA
ATOM     29  C   UNL     1      85.728  56.313  43.575  0.00  0.00    +0.079 C 
ENDBRANCH  19  28
ENDBRANCH   6  15
BRANCH   1  31
ATOM     30  C   UNL     1      82.593  49.713  43.503  0.00  0.00    +0.079 C 
ATOM     31  O   UNL     1      83.858  49.786  44.153  0.00  0.00    -0.494 OA
ENDBRANCH   1  31
BRANCH   3  32
ATOM     32  O   UNL     1      85.996  45.522  43.006  0.00  0.00    -0.495 OA
ATOM     33  C   UNL     1      85.586  44.569  43.981  0.00  0.00    +0.079 C 
ENDBRANCH   3  32
TORSDOF 5
ENDMDL
