MODEL 1
REMARK VINA RESULT:    -9.376      0.000      0.000
REMARK INTER + INTRA:         -13.236
REMARK INTER:                 -11.838
REMARK INTRA:                  -1.398
REMARK UNBOUND:                -1.120
REMARK  Name = 
REMARK  12 active torsions:
REMARK  status: ('A' for Active; 'I' for Inactive)
REMARK    1  A    between atoms: C_1  and  O_2
REMARK    2  A    between atoms: O_2  and  C_3
REMARK    3  A    between atoms: C_5  and  O_6
REMARK    4  A    between atoms: O_6  and  C_7
REMARK    5  A    between atoms: C_10  and  C_11
REMARK    6  A    between atoms: C_14  and  O_24
REMARK    7  A    between atoms: C_18  and  C_19
REMARK    8  A    between atoms: C_21  and  O_22
REMARK    9  A    between atoms: O_22  and  C_23
REMARK   10  A    between atoms: O_24  and  C_25
REMARK   11  A    between atoms: C_27  and  C_31
REMARK   12  A    between atoms: C_29  and  C_30
REMARK                            x       y       z     vdW  Elec       q    Type
REMARK                         _______ _______ _______ _____ _____    ______ ____
ROOT
ATOM      1  C   UNL     1      86.558  51.209  45.540  0.00  0.00    +0.132 A 
ATOM      2  C   UNL     1      86.700  52.539  45.964  0.00  0.00    +0.023 A 
ATOM      3  C   UNL     1      86.451  53.613  45.090  0.00  0.00    +0.133 A 
ATOM      4  C   UNL     1      86.041  53.347  43.763  0.00  0.00    +0.041 A 
ATOM      5  C   UNL     1      85.955  52.008  43.314  0.00  0.00    -0.022 A 
ATOM      6  C   UNL     1      86.184  50.943  44.214  0.00  0.00    +0.028 A 
ATOM      7  C   UNL     1      85.547  51.743  41.876  0.00  0.00    -0.004 C 
ATOM      8  C   UNL     1      86.040  52.866  40.949  0.00  0.00    +0.052 C 
ATOM      9  N   UNL     1      85.689  54.171  41.509  0.00  0.00    -0.284 NA
ATOM     10  C   UNL     1      85.709  54.434  42.784  0.00  0.00    +0.044 C 
ATOM     11  C   UNL     1      85.314  55.816  43.217  0.00  0.00    -0.022 C 
ATOM     12  C   UNL     1      87.553  52.787  40.718  0.00  0.00    -0.042 C 
ENDROOT
BRANCH   6  13
ATOM     13  C   UNL     1      86.027  49.531  43.785  0.00  0.00    -0.006 A 
ATOM     14  C   UNL     1      84.778  48.933  43.950  0.00  0.00    -0.050 A 
ATOM     15  C   UNL     1      84.573  47.607  43.592  0.00  0.00    -0.019 A 
ATOM     16  C   UNL     1      85.617  46.834  43.052  0.00  0.00    +0.131 A 
ATOM     17  C   UNL     1      86.899  47.421  42.867  0.00  0.00    +0.066 A 
ATOM     18  C   UNL     1      87.099  48.785  43.236  0.00  0.00    -0.003 A 
ATOM     19  C   UNL     1      88.362  49.378  43.041  0.00  0.00    -0.050 A 
ATOM     20  C   UNL     1      89.429  48.642  42.523  0.00  0.00    -0.046 A 
ATOM     21  C   UNL     1      90.758  49.302  42.296  0.00  0.00    -0.040 C 
ATOM     22  C   UNL     1      89.234  47.311  42.150  0.00  0.00    -0.016 A 
ATOM     23  C   UNL     1      87.985  46.685  42.318  0.00  0.00    +0.132 A 
BRANCH  23  24
ATOM     24  O   UNL     1      87.804  45.342  41.945  0.00  0.00    -0.494 OA
ATOM     25  C   UNL     1      88.380  44.221  42.610  0.00  0.00    +0.079 C 
ENDBRANCH  23  24
BRANCH  16  26
ATOM     26  O   UNL     1      85.401  45.491  42.697  0.00  0.00    -0.494 OA
ATOM     27  C   UNL     1      84.422  44.637  43.279  0.00  0.00    +0.079 C 
ENDBRANCH  16  26
ENDBRANCH   6  13
BRANCH   1  29
ATOM     28  C   UNL     1      87.297  50.238  47.731  0.00  0.00    +0.079 C 
ATOM     29  O   UNL     1      86.780  50.127  46.409  0.00  0.00    -0.494 OA
ENDBRANCH   1  29
BRANCH   3  30
ATOM     30  O   UNL     1      86.629  54.941  45.511  0.00  0.00    -0.494 OA
ATOM     31  C   UNL     1      86.270  55.451  46.791  0.00  0.00    +0.079 C 
ENDBRANCH   3  30
TORSDOF 5
ENDMDL
MODEL 2
REMARK VINA RESULT:    -9.140      1.858      7.190
REMARK INTER + INTRA:         -12.931
REMARK INTER:                 -11.421
REMARK INTRA:                  -1.510
REMARK UNBOUND:                -1.120
REMARK  Name = 
REMARK  12 active torsions:
REMARK  status: ('A' for Active; 'I' for Inactive)
REMARK    1  A    between atoms: C_1  and  O_2
REMARK    2  A    between atoms: O_2  and  C_3
REMARK    3  A    between atoms: C_5  and  O_6
REMARK    4  A    between atoms: O_6  and  C_7
REMARK    5  A    between atoms: C_10  and  C_11
REMARK    6  A    between atoms: C_14  and  O_24
REMARK    7  A    between atoms: C_18  and  C_19
REMARK    8  A    between atoms: C_21  and  O_22
REMARK    9  A    between atoms: O_22  and  C_23
REMARK   10  A    between atoms: O_24  and  C_25
REMARK   11  A    between atoms: C_27  and  C_31
REMARK   12  A    between atoms: C_29  and  C_30
REMARK                            x       y       z     vdW  Elec       q    Type
REMARK                         _______ _______ _______ _____ _____    ______ ____
ROOT
ATOM      1  C   UNL     1      85.701  49.261  43.812  0.00  0.00    +0.132 A 
ATOM      2  C   UNL     1      85.981  48.041  43.178  0.00  0.00    +0.023 A 
ATOM      3  C   UNL     1      87.182  47.847  42.471  0.00  0.00    +0.133 A 
ATOM      4  C   UNL     1      88.128  48.896  42.406  0.00  0.00    +0.041 A 
ATOM      5  C   UNL     1      87.822  50.148  42.993  0.00  0.00    -0.022 A 
ATOM      6  C   UNL     1      86.623  50.315  43.720  0.00  0.00    +0.028 A 
ATOM      7  C   UNL     1      88.835  51.274  42.882  0.00  0.00    -0.004 C 
ATOM      8  C   UNL     1      89.620  51.180  41.564  0.00  0.00    +0.052 C 
ATOM      9  N   UNL     1      90.118  49.818  41.372  0.00  0.00    -0.284 NA
ATOM     10  C   UNL     1      89.450  48.754  41.715  0.00  0.00    +0.044 C 
ATOM     11  C   UNL     1      90.091  47.419  41.466  0.00  0.00    -0.022 C 
ATOM     12  C   UNL     1      88.764  51.597  40.363  0.00  0.00    -0.042 C 
ENDROOT
BRANCH   6  13
ATOM     13  C   UNL     1      86.316  51.595  44.405  0.00  0.00    -0.006 A 
ATOM     14  C   UNL     1      86.619  51.698  45.764  0.00  0.00    -0.050 A 
ATOM     15  C   UNL     1      86.333  52.860  46.468  0.00  0.00    -0.019 A 
ATOM     16  C   UNL     1      85.734  53.963  45.833  0.00  0.00    +0.131 A 
ATOM     17  C   UNL     1      85.421  53.887  44.448  0.00  0.00    +0.066 A 
ATOM     18  C   UNL     1      85.721  52.689  43.731  0.00  0.00    -0.003 A 
ATOM     19  C   UNL     1      85.427  52.613  42.356  0.00  0.00    -0.050 A 
ATOM     20  C   UNL     1      84.819  53.678  41.690  0.00  0.00    -0.046 A 
ATOM     21  C   UNL     1      84.543  53.586  40.218  0.00  0.00    -0.040 C 
ATOM     22  C   UNL     1      84.535  54.855  42.385  0.00  0.00    -0.016 A 
ATOM     23  C   UNL     1      84.822  54.976  43.757  0.00  0.00    +0.132 A 
BRANCH  23  24
ATOM     24  O   UNL     1      84.524  56.164  44.447  0.00  0.00    -0.494 OA
ATOM     25  C   UNL     1      84.847  57.478  43.997  0.00  0.00    +0.079 C 
ENDBRANCH  23  24
BRANCH  16  26
ATOM     26  O   UNL     1      85.444  55.133  46.556  0.00  0.00    -0.494 OA
ATOM     27  C   UNL     1      84.687  55.185  47.760  0.00  0.00    +0.079 C 
ENDBRANCH  16  26
ENDBRANCH   6  13
BRANCH   1  29
ATOM     28  C   UNL     1      83.221  49.599  43.967  0.00  0.00    +0.079 C 
ATOM     29  O   UNL     1      84.517  49.462  44.542  0.00  0.00    -0.494 OA
ENDBRANCH   1  29
BRANCH   3  30
ATOM     30  O   UNL     1      87.441  46.635  41.810  0.00  0.00    -0.494 OA
ATOM     31  C   UNL     1      87.233  45.339  42.362  0.00  0.00    +0.079 C 
ENDBRANCH   3  30
TORSDOF 5
ENDMDL
MODEL 3
REMARK VINA RESULT:    -9.047      1.956      7.161
REMARK INTER + INTRA:         -12.811
REMARK INTER:                 -11.412
REMARK INTRA:                  -1.399
REMARK UNBOUND:                -1.120
REMARK  Name = 
REMARK  12 active torsions:
REMARK  status: ('A' for Active; 'I' for Inactive)
REMARK    1  A    between atoms: C_1  and  O_2
REMARK    2  A    between atoms: O_2  and  C_3
REMARK    3  A    between atoms: C_5  and  O_6
REMARK    4  A    between atoms: O_6  and  C_7
REMARK    5  A    between atoms: C_10  and  C_11
REMARK    6  A    between atoms: C_14  and  O_24
REMARK    7  A    between atoms: C_18  and  C_19
REMARK    8  A    between atoms: C_21  and  O_22
REMARK    9  A    between atoms: O_22  and  C_23
REMARK   10  A    between atoms: O_24  and  C_25
REMARK   11  A    between atoms: C_27  and  C_31
REMARK   12  A    between atoms: C_29  and  C_30
REMARK                            x       y       z     vdW  Elec       q    Type
REMARK                         _______ _______ _______ _____ _____    ______ ____
ROOT
ATOM      1  C   UNL     1      85.553  49.090  43.219  0.00  0.00    +0.132 A 
ATOM      2  C   UNL     1      86.032  47.801  42.945  0.00  0.00    +0.023 A 
ATOM      3  C   UNL     1      87.381  47.582  42.612  0.00  0.00    +0.133 A 
ATOM      4  C   UNL     1      88.272  48.679  42.562  0.00  0.00    +0.041 A 
ATOM      5  C   UNL     1      87.779  49.988  42.779  0.00  0.00    -0.022 A 
ATOM      6  C   UNL     1      86.427  50.185  43.137  0.00  0.00    +0.028 A 
ATOM      7  C   UNL     1      88.744  51.157  42.687  0.00  0.00    -0.004 C 
ATOM      8  C   UNL     1      89.846  50.880  41.652  0.00  0.00    +0.052 C 
ATOM      9  N   UNL     1      90.428  49.557  41.880  0.00  0.00    -0.284 NA
ATOM     10  C   UNL     1      89.733  48.524  42.264  0.00  0.00    +0.044 C 
ATOM     11  C   UNL     1      90.465  47.229  42.466  0.00  0.00    -0.022 C 
ATOM     12  C   UNL     1      89.316  50.978  40.218  0.00  0.00    -0.042 C 
ENDROOT
BRANCH   6  13
ATOM     13  C   UNL     1      85.906  51.541  43.441  0.00  0.00    -0.006 A 
ATOM     14  C   UNL     1      85.439  52.314  42.377  0.00  0.00    -0.050 A 
ATOM     15  C   UNL     1      84.963  53.601  42.591  0.00  0.00    -0.019 A 
ATOM     16  C   UNL     1      84.936  54.157  43.882  0.00  0.00    +0.131 A 
ATOM     17  C   UNL     1      85.399  53.388  44.985  0.00  0.00    +0.066 A 
ATOM     18  C   UNL     1      85.885  52.066  44.756  0.00  0.00    -0.003 A 
ATOM     19  C   UNL     1      86.332  51.293  45.846  0.00  0.00    -0.050 A 
ATOM     20  C   UNL     1      86.335  51.812  47.141  0.00  0.00    -0.046 A 
ATOM     21  C   UNL     1      86.787  50.960  48.292  0.00  0.00    -0.040 C 
ATOM     22  C   UNL     1      85.850  53.101  47.370  0.00  0.00    -0.016 A 
ATOM     23  C   UNL     1      85.385  53.901  46.311  0.00  0.00    +0.132 A 
BRANCH  23  24
ATOM     24  O   UNL     1      84.906  55.200  46.555  0.00  0.00    -0.494 OA
ATOM     25  C   UNL     1      84.047  55.571  47.630  0.00  0.00    +0.079 C 
ENDBRANCH  23  24
BRANCH  16  26
ATOM     26  O   UNL     1      84.455  55.462  44.088  0.00  0.00    -0.494 OA
ATOM     27  C   UNL     1      84.467  56.502  43.114  0.00  0.00    +0.079 C 
ENDBRANCH  16  26
ENDBRANCH   6  13
BRANCH   1  29
ATOM     28  C   UNL     1      83.192  48.329  43.592  0.00  0.00    +0.079 C 
ATOM     29  O   UNL     1      84.213  49.322  43.576  0.00  0.00    -0.494 OA
ENDBRANCH   1  29
BRANCH   3  30
ATOM     30  O   UNL     1      87.848  46.292  42.305  0.00  0.00    -0.494 OA
ATOM     31  C   UNL     1      87.223  45.077  42.705  0.00  0.00    +0.079 C 
ENDBRANCH   3  30
TORSDOF 5
ENDMDL
MODEL 4
REMARK VINA RESULT:    -8.742      2.241      3.865
REMARK INTER + INTRA:         -12.417
REMARK INTER:                 -10.990
REMARK INTRA:                  -1.427
REMARK UNBOUND:                -1.120
REMARK  Name = 
REMARK  12 active torsions:
REMARK  status: ('A' for Active; 'I' for Inactive)
REMARK    1  A    between atoms: C_1  and  O_2
REMARK    2  A    between atoms: O_2  and  C_3
REMARK    3  A    between atoms: C_5  and  O_6
REMARK    4  A    between atoms: O_6  and  C_7
REMARK    5  A    between atoms: C_10  and  C_11
REMARK    6  A    between atoms: C_14  and  O_24
REMARK    7  A    between atoms: C_18  and  C_19
REMARK    8  A    between atoms: C_21  and  O_22
REMARK    9  A    between atoms: O_22  and  C_23
REMARK   10  A    between atoms: O_24  and  C_25
REMARK   11  A    between atoms: C_27  and  C_31
REMARK   12  A    between atoms: C_29  and  C_30
REMARK                            x       y       z     vdW  Elec       q    Type
REMARK                         _______ _______ _______ _____ _____    ______ ____
ROOT
ATOM      1  C   UNL     1      84.315  53.444  43.058  0.00  0.00    +0.132 A 
ATOM      2  C   UNL     1      84.382  54.832  43.247  0.00  0.00    +0.023 A 
ATOM      3  C   UNL     1      84.824  55.381  44.465  0.00  0.00    +0.133 A 
ATOM      4  C   UNL     1      85.218  54.518  45.513  0.00  0.00    +0.041 A 
ATOM      5  C   UNL     1      85.096  53.117  45.347  0.00  0.00    -0.022 A 
ATOM      6  C   UNL     1      84.675  52.585  44.108  0.00  0.00    +0.028 A 
ATOM      7  C   UNL     1      85.492  52.207  46.496  0.00  0.00    -0.004 C 
ATOM      8  C   UNL     1      85.211  52.878  47.851  0.00  0.00    +0.052 C 
ATOM      9  N   UNL     1      85.757  54.236  47.861  0.00  0.00    -0.284 NA
ATOM     10  C   UNL     1      85.747  55.022  46.822  0.00  0.00    +0.044 C 
ATOM     11  C   UNL     1      86.351  56.387  46.977  0.00  0.00    -0.022 C 
ATOM     12  C   UNL     1      83.712  52.916  48.166  0.00  0.00    -0.042 C 
ENDROOT
BRANCH   6  13
ATOM     13  C   UNL     1      84.609  51.119  43.888  0.00  0.00    -0.006 A 
ATOM     14  C   UNL     1      83.398  50.474  44.142  0.00  0.00    -0.050 A 
ATOM     15  C   UNL     1      83.279  49.100  43.980  0.00  0.00    -0.019 A 
ATOM     16  C   UNL     1      84.372  48.324  43.554  0.00  0.00    +0.131 A 
ATOM     17  C   UNL     1      85.615  48.957  43.282  0.00  0.00    +0.066 A 
ATOM     18  C   UNL     1      85.728  50.370  43.449  0.00  0.00    -0.003 A 
ATOM     19  C   UNL     1      86.953  51.006  43.167  0.00  0.00    -0.050 A 
ATOM     20  C   UNL     1      88.066  50.271  42.757  0.00  0.00    -0.046 A 
ATOM     21  C   UNL     1      89.353  50.973  42.432  0.00  0.00    -0.040 C 
ATOM     22  C   UNL     1      87.957  48.891  42.581  0.00  0.00    -0.016 A 
ATOM     23  C   UNL     1      86.748  48.219  42.842  0.00  0.00    +0.132 A 
BRANCH  23  24
ATOM     24  O   UNL     1      86.653  46.827  42.668  0.00  0.00    -0.494 OA
ATOM     25  C   UNL     1      87.688  45.991  42.156  0.00  0.00    +0.079 C 
ENDBRANCH  23  24
BRANCH  16  26
ATOM     26  O   UNL     1      84.242  46.933  43.397  0.00  0.00    -0.494 OA
ATOM     27  C   UNL     1      83.041  46.195  43.600  0.00  0.00    +0.079 C 
ENDBRANCH  16  26
ENDBRANCH   6  13
BRANCH   1  29
ATOM     28  C   UNL     1      82.558  52.889  41.357  0.00  0.00    +0.079 C 
ATOM     29  O   UNL     1      83.898  52.881  41.839  0.00  0.00    -0.494 OA
ENDBRANCH   1  29
BRANCH   3  30
ATOM     30  O   UNL     1      84.855  56.772  44.660  0.00  0.00    -0.494 OA
ATOM     31  C   UNL     1      85.334  57.722  43.714  0.00  0.00    +0.079 C 
ENDBRANCH   3  30
TORSDOF 5
ENDMDL
MODEL 5
REMARK VINA RESULT:    -8.635      0.867      2.930
REMARK INTER + INTRA:         -12.278
REMARK INTER:                 -10.893
REMARK INTRA:                  -1.385
REMARK UNBOUND:                -1.120
REMARK  Name = 
REMARK  12 active torsions:
REMARK  status: ('A' for Active; 'I' for Inactive)
REMARK    1  A    between atoms: C_1  and  O_2
REMARK    2  A    between atoms: O_2  and  C_3
REMARK    3  A    between atoms: C_5  and  O_6
REMARK    4  A    between atoms: O_6  and  C_7
REMARK    5  A    between atoms: C_10  and  C_11
REMARK    6  A    between atoms: C_14  and  O_24
REMARK    7  A    between atoms: C_18  and  C_19
REMARK    8  A    between atoms: C_21  and  O_22
REMARK    9  A    between atoms: O_22  and  C_23
REMARK   10  A    between atoms: O_24  and  C_25
REMARK   11  A    between atoms: C_27  and  C_31
REMARK   12  A    between atoms: C_29  and  C_30
REMARK                            x       y       z     vdW  Elec       q    Type
REMARK                         _______ _______ _______ _____ _____    ______ ____
ROOT
ATOM      1  C   UNL     1      86.824  51.192  45.379  0.00  0.00    +0.132 A 
ATOM      2  C   UNL     1      86.724  52.522  45.816  0.00  0.00    +0.023 A 
ATOM      3  C   UNL     1      86.415  53.560  44.919  0.00  0.00    +0.133 A 
ATOM      4  C   UNL     1      86.189  53.258  43.556  0.00  0.00    +0.041 A 
ATOM      5  C   UNL     1      86.347  51.927  43.102  0.00  0.00    -0.022 A 
ATOM      6  C   UNL     1      86.634  50.894  44.021  0.00  0.00    +0.028 A 
ATOM      7  C   UNL     1      86.136  51.627  41.628  0.00  0.00    -0.004 C 
ATOM      8  C   UNL     1      86.554  52.823  40.758  0.00  0.00    +0.052 C 
ATOM      9  N   UNL     1      85.959  54.055  41.277  0.00  0.00    -0.284 NA
ATOM     10  C   UNL     1      85.807  54.299  42.547  0.00  0.00    +0.044 C 
ATOM     11  C   UNL     1      85.171  55.602  42.934  0.00  0.00    -0.022 C 
ATOM     12  C   UNL     1      88.078  52.969  40.689  0.00  0.00    -0.042 C 
ENDROOT
BRANCH   6  13
ATOM     13  C   UNL     1      86.732  49.481  43.579  0.00  0.00    -0.006 A 
ATOM     14  C   UNL     1      87.997  48.980  43.269  0.00  0.00    -0.050 A 
ATOM     15  C   UNL     1      88.154  47.673  42.825  0.00  0.00    -0.019 A 
ATOM     16  C   UNL     1      87.044  46.822  42.677  0.00  0.00    +0.131 A 
ATOM     17  C   UNL     1      85.745  47.305  42.992  0.00  0.00    +0.066 A 
ATOM     18  C   UNL     1      85.594  48.648  43.451  0.00  0.00    -0.003 A 
ATOM     19  C   UNL     1      84.311  49.128  43.778  0.00  0.00    -0.050 A 
ATOM     20  C   UNL     1      83.182  48.321  43.632  0.00  0.00    -0.046 A 
ATOM     21  C   UNL     1      81.828  48.844  44.017  0.00  0.00    -0.040 C 
ATOM     22  C   UNL     1      83.327  47.003  43.195  0.00  0.00    -0.016 A 
ATOM     23  C   UNL     1      84.592  46.481  42.868  0.00  0.00    +0.132 A 
BRANCH  23  24
ATOM     24  O   UNL     1      84.723  45.154  42.422  0.00  0.00    -0.494 OA
ATOM     25  C   UNL     1      84.419  43.995  43.193  0.00  0.00    +0.079 C 
ENDBRANCH  23  24
BRANCH  16  26
ATOM     26  O   UNL     1      87.212  45.502  42.222  0.00  0.00    -0.494 OA
ATOM     27  C   UNL     1      88.220  44.603  42.673  0.00  0.00    +0.079 C 
ENDBRANCH  16  26
ENDBRANCH   6  13
BRANCH   1  29
ATOM     28  C   UNL     1      88.044  50.213  47.340  0.00  0.00    +0.079 C 
ATOM     29  O   UNL     1      87.110  50.140  46.268  0.00  0.00    -0.494 OA
ENDBRANCH   1  29
BRANCH   3  30
ATOM     30  O   UNL     1      86.350  54.894  45.355  0.00  0.00    -0.494 OA
ATOM     31  C   UNL     1      86.055  55.309  46.685  0.00  0.00    +0.079 C 
ENDBRANCH   3  30
TORSDOF 5
ENDMDL
MODEL 6
REMARK VINA RESULT:    -8.607      2.069      4.623
REMARK INTER + INTRA:         -12.243
REMARK INTER:                 -10.934
REMARK INTRA:                  -1.308
REMARK UNBOUND:                -1.120
REMARK  Name = 
REMARK  12 active torsions:
REMARK  status: ('A' for Active; 'I' for Inactive)
REMARK    1  A    between atoms: C_1  and  O_2
REMARK    2  A    between atoms: O_2  and  C_3
REMARK    3  A    between atoms: C_5  and  O_6
REMARK    4  A    between atoms: O_6  and  C_7
REMARK    5  A    between atoms: C_10  and  C_11
REMARK    6  A    between atoms: C_14  and  O_24
REMARK    7  A    between atoms: C_18  and  C_19
REMARK    8  A    between atoms: C_21  and  O_22
REMARK    9  A    between atoms: O_22  and  C_23
REMARK   10  A    between atoms: O_24  and  C_25
REMARK   11  A    between atoms: C_27  and  C_31
REMARK   12  A    between atoms: C_29  and  C_30
REMARK                            x       y       z     vdW  Elec       q    Type
REMARK                         _______ _______ _______ _____ _____    ______ ____
ROOT
ATOM      1  C   UNL     1      86.019  53.788  42.591  0.00  0.00    +0.132 A 
ATOM      2  C   UNL     1      85.527  55.080  42.832  0.00  0.00    +0.023 A 
ATOM      3  C   UNL     1      85.450  55.597  44.138  0.00  0.00    +0.133 A 
ATOM      4  C   UNL     1      85.886  54.805  45.226  0.00  0.00    +0.041 A 
ATOM      5  C   UNL     1      86.328  53.481  44.992  0.00  0.00    -0.022 A 
ATOM      6  C   UNL     1      86.422  52.989  43.672  0.00  0.00    +0.028 A 
ATOM      7  C   UNL     1      86.759  52.634  46.176  0.00  0.00    -0.004 C 
ATOM      8  C   UNL     1      85.955  52.998  47.435  0.00  0.00    +0.052 C 
ATOM      9  N   UNL     1      85.946  54.448  47.624  0.00  0.00    -0.284 NA
ATOM     10  C   UNL     1      85.884  55.301  46.641  0.00  0.00    +0.044 C 
ATOM     11  C   UNL     1      85.893  56.762  46.985  0.00  0.00    -0.022 C 
ATOM     12  C   UNL     1      84.516  52.473  47.360  0.00  0.00    -0.042 C 
ENDROOT
BRANCH   6  13
ATOM     13  C   UNL     1      86.950  51.629  43.398  0.00  0.00    -0.006 A 
ATOM     14  C   UNL     1      88.310  51.503  43.113  0.00  0.00    -0.050 A 
ATOM     15  C   UNL     1      88.862  50.261  42.823  0.00  0.00    -0.019 A 
ATOM     16  C   UNL     1      88.066  49.101  42.810  0.00  0.00    +0.131 A 
ATOM     17  C   UNL     1      86.679  49.202  43.104  0.00  0.00    +0.066 A 
ATOM     18  C   UNL     1      86.122  50.481  43.403  0.00  0.00    -0.003 A 
ATOM     19  C   UNL     1      84.750  50.585  43.709  0.00  0.00    -0.050 A 
ATOM     20  C   UNL     1      83.923  49.461  43.693  0.00  0.00    -0.046 A 
ATOM     21  C   UNL     1      82.471  49.591  44.052  0.00  0.00    -0.040 C 
ATOM     22  C   UNL     1      84.467  48.207  43.412  0.00  0.00    -0.016 A 
ATOM     23  C   UNL     1      85.833  48.058  43.112  0.00  0.00    +0.132 A 
BRANCH  23  24
ATOM     24  O   UNL     1      86.367  46.790  42.824  0.00  0.00    -0.494 OA
ATOM     25  C   UNL     1      85.606  45.597  42.655  0.00  0.00    +0.079 C 
ENDBRANCH  23  24
BRANCH  16  26
ATOM     26  O   UNL     1      88.633  47.850  42.511  0.00  0.00    -0.494 OA
ATOM     27  C   UNL     1      89.888  47.653  41.868  0.00  0.00    +0.079 C 
ENDBRANCH  16  26
ENDBRANCH   6  13
BRANCH   1  29
ATOM     28  C   UNL     1      85.246  53.583  40.214  0.00  0.00    +0.079 C 
ATOM     29  O   UNL     1      86.124  53.266  41.290  0.00  0.00    -0.494 OA
ENDBRANCH   1  29
BRANCH   3  30
ATOM     30  O   UNL     1      84.924  56.878  44.376  0.00  0.00    -0.494 OA
ATOM     31  C   UNL     1      85.509  58.099  43.938  0.00  0.00    +0.079 C 
ENDBRANCH   3  30
TORSDOF 5
ENDMDL
MODEL 7
REMARK VINA RESULT:    -7.872      3.686      7.056
REMARK INTER + INTRA:         -11.293
REMARK INTER:                 -10.088
REMARK INTRA:                  -1.205
REMARK UNBOUND:                -1.120
REMARK  Name = 
REMARK  12 active torsions:
REMARK  status: ('A' for Active; 'I' for Inactive)
REMARK    1  A    between atoms: C_1  and  O_2
REMARK    2  A    between atoms: O_2  and  C_3
REMARK    3  A    between atoms: C_5  and  O_6
REMARK    4  A    between atoms: O_6  and  C_7
REMARK    5  A    between atoms: C_10  and  C_11
REMARK    6  A    between atoms: C_14  and  O_24
REMARK    7  A    between atoms: C_18  and  C_19
REMARK    8  A    between atoms: C_21  and  O_22
REMARK    9  A    between atoms: O_22  and  C_23
REMARK   10  A    between atoms: O_24  and  C_25
REMARK   11  A    between atoms: C_27  and  C_31
REMARK   12  A    between atoms: C_29  and  C_30
REMARK                            x       y       z     vdW  Elec       q    Type
REMARK                         _______ _______ _______ _____ _____    ______ ____
ROOT
ATOM      1  C   UNL     1      86.796  51.571  44.382  0.00  0.00    +0.132 A 
ATOM      2  C   UNL     1      87.432  50.902  45.438  0.00  0.00    +0.023 A 
ATOM      3  C   UNL     1      87.113  51.189  46.778  0.00  0.00    +0.133 A 
ATOM      4  C   UNL     1      86.127  52.161  47.065  0.00  0.00    +0.041 A 
ATOM      5  C   UNL     1      85.526  52.880  46.004  0.00  0.00    -0.022 A 
ATOM      6  C   UNL     1      85.841  52.560  44.664  0.00  0.00    +0.028 A 
ATOM      7  C   UNL     1      84.495  53.944  46.333  0.00  0.00    -0.004 C 
ATOM      8  C   UNL     1      84.812  54.620  47.676  0.00  0.00    +0.052 C 
ATOM      9  N   UNL     1      85.070  53.607  48.700  0.00  0.00    -0.284 NA
ATOM     10  C   UNL     1      85.695  52.490  48.463  0.00  0.00    +0.044 C 
ATOM     11  C   UNL     1      85.880  51.539  49.609  0.00  0.00    -0.022 C 
ATOM     12  C   UNL     1      86.011  55.569  47.566  0.00  0.00    -0.042 C 
ENDROOT
BRANCH   6  13
ATOM     13  C   UNL     1      85.170  53.249  43.535  0.00  0.00    -0.006 A 
ATOM     14  C   UNL     1      85.766  54.405  43.029  0.00  0.00    -0.050 A 
ATOM     15  C   UNL     1      85.175  55.111  41.989  0.00  0.00    -0.019 A 
ATOM     16  C   UNL     1      83.964  54.680  41.419  0.00  0.00    +0.131 A 
ATOM     17  C   UNL     1      83.339  53.502  41.911  0.00  0.00    +0.066 A 
ATOM     18  C   UNL     1      83.955  52.782  42.978  0.00  0.00    -0.003 A 
ATOM     19  C   UNL     1      83.348  51.605  43.461  0.00  0.00    -0.050 A 
ATOM     20  C   UNL     1      82.139  51.151  42.933  0.00  0.00    -0.046 A 
ATOM     21  C   UNL     1      81.527  49.879  43.442  0.00  0.00    -0.040 C 
ATOM     22  C   UNL     1      81.540  51.847  41.882  0.00  0.00    -0.016 A 
ATOM     23  C   UNL     1      82.118  53.020  41.364  0.00  0.00    +0.132 A 
BRANCH  23  24
ATOM     24  O   UNL     1      81.500  53.715  40.309  0.00  0.00    -0.494 OA
ATOM     25  C   UNL     1      80.361  54.561  40.440  0.00  0.00    +0.079 C 
ENDBRANCH  23  24
BRANCH  16  26
ATOM     26  O   UNL     1      83.371  55.405  40.370  0.00  0.00    -0.494 OA
ATOM     27  C   UNL     1      83.940  55.588  39.078  0.00  0.00    +0.079 C 
ENDBRANCH  16  26
ENDBRANCH   6  13
BRANCH   1  29
ATOM     28  C   UNL     1      88.292  51.639  42.370  0.00  0.00    +0.079 C 
ATOM     29  O   UNL     1      87.088  51.279  43.038  0.00  0.00    -0.494 OA
ENDBRANCH   1  29
BRANCH   3  30
ATOM     30  O   UNL     1      87.779  50.541  47.832  0.00  0.00    -0.494 OA
ATOM     31  C   UNL     1      89.036  49.881  47.726  0.00  0.00    +0.079 C 
ENDBRANCH   3  30
TORSDOF 5
ENDMDL
MODEL 8
REMARK VINA RESULT:    -7.656      2.046      3.822
REMARK INTER + INTRA:         -11.013
REMARK INTER:                  -9.917
REMARK INTRA:                  -1.096
REMARK UNBOUND:                -1.120
REMARK  Name = 
REMARK  12 active torsions:
REMARK  status: ('A' for Active; 'I' for Inactive)
REMARK    1  A    between atoms: C_1  and  O_2
REMARK    2  A    between atoms: O_2  and  C_3
REMARK    3  A    between atoms: C_5  and  O_6
REMARK    4  A    between atoms: O_6  and  C_7
REMARK    5  A    between atoms: C_10  and  C_11
REMARK    6  A    between atoms: C_14  and  O_24
REMARK    7  A    between atoms: C_18  and  C_19
REMARK    8  A    between atoms: C_21  and  O_22
REMARK    9  A    between atoms: O_22  and  C_23
REMARK   10  A    between atoms: O_24  and  C_25
REMARK   11  A    between atoms: C_27  and  C_31
REMARK   12  A    between atoms: C_29  and  C_30
REMARK                            x       y       z     vdW  Elec       q    Type
REMARK                         _______ _______ _______ _____ _____    ______ ____
ROOT
ATOM      1  C   UNL     1      85.225  52.315  45.666  0.00  0.00    +0.132 A 
ATOM      2  C   UNL     1      85.295  53.698  45.894  0.00  0.00    +0.023 A 
ATOM      3  C   UNL     1      85.237  54.615  44.829  0.00  0.00    +0.133 A 
ATOM      4  C   UNL     1      85.095  54.136  43.506  0.00  0.00    +0.041 A 
ATOM      5  C   UNL     1      85.084  52.741  43.267  0.00  0.00    -0.022 A 
ATOM      6  C   UNL     1      85.118  51.836  44.352  0.00  0.00    +0.028 A 
ATOM      7  C   UNL     1      84.965  52.244  41.837  0.00  0.00    -0.004 C 
ATOM      8  C   UNL     1      85.645  53.216  40.860  0.00  0.00    +0.052 C 
ATOM      9  N   UNL     1      85.205  54.586  41.126  0.00  0.00    -0.284 NA
ATOM     10  C   UNL     1      84.975  55.047  42.322  0.00  0.00    +0.044 C 
ATOM     11  C   UNL     1      84.519  56.472  42.443  0.00  0.00    -0.022 C 
ATOM     12  C   UNL     1      87.173  53.133  40.947  0.00  0.00    -0.042 C 
ENDROOT
BRANCH   6  13
ATOM     13  C   UNL     1      85.033  50.371  44.129  0.00  0.00    -0.006 A 
ATOM     14  C   UNL     1      86.201  49.621  44.274  0.00  0.00    -0.050 A 
ATOM     15  C   UNL     1      86.195  48.249  44.055  0.00  0.00    -0.019 A 
ATOM     16  C   UNL     1      85.014  47.582  43.684  0.00  0.00    +0.131 A 
ATOM     17  C   UNL     1      83.809  48.321  43.536  0.00  0.00    +0.066 A 
ATOM     18  C   UNL     1      83.824  49.730  43.766  0.00  0.00    -0.003 A 
ATOM     19  C   UNL     1      82.631  50.467  43.636  0.00  0.00    -0.050 A 
ATOM     20  C   UNL     1      81.440  49.845  43.255  0.00  0.00    -0.046 A 
ATOM     21  C   UNL     1      80.174  50.645  43.152  0.00  0.00    -0.040 C 
ATOM     22  C   UNL     1      81.419  48.466  43.041  0.00  0.00    -0.016 A 
ATOM     23  C   UNL     1      82.587  47.693  43.171  0.00  0.00    +0.132 A 
BRANCH  23  24
ATOM     24  O   UNL     1      82.553  46.305  42.945  0.00  0.00    -0.494 OA
ATOM     25  C   UNL     1      81.613  45.402  43.522  0.00  0.00    +0.079 C 
ENDBRANCH  23  24
BRANCH  16  26
ATOM     26  O   UNL     1      85.018  46.193  43.459  0.00  0.00    -0.494 OA
ATOM     27  C   UNL     1      85.515  45.219  44.371  0.00  0.00    +0.079 C 
ENDBRANCH  16  26
ENDBRANCH   6  13
BRANCH   1  29
ATOM     28  C   UNL     1      86.333  51.246  47.646  0.00  0.00    +0.079 C 
ATOM     29  O   UNL     1      85.259  51.388  46.722  0.00  0.00    -0.494 OA
ENDBRANCH   1  29
BRANCH   3  30
ATOM     30  O   UNL     1      85.343  55.997  45.061  0.00  0.00    -0.494 OA
ATOM     31  C   UNL     1      84.875  56.671  46.224  0.00  0.00    +0.079 C 
ENDBRANCH   3  30
TORSDOF 5
ENDMDL
MODEL 9
REMARK VINA RESULT:    -6.859      3.582      6.443
REMARK INTER + INTRA:          -9.983
REMARK INTER:                  -8.864
REMARK INTRA:                  -1.120
REMARK UNBOUND:                -1.120
REMARK  Name = 
REMARK  12 active torsions:
REMARK  status: ('A' for Active; 'I' for Inactive)
REMARK    1  A    between atoms: C_1  and  O_2
REMARK    2  A    between atoms: O_2  and  C_3
REMARK    3  A    between atoms: C_5  and  O_6
REMARK    4  A    between atoms: O_6  and  C_7
REMARK    5  A    between atoms: C_10  and  C_11
REMARK    6  A    between atoms: C_14  and  O_24
REMARK    7  A    between atoms: C_18  and  C_19
REMARK    8  A    between atoms: C_21  and  O_22
REMARK    9  A    between atoms: O_22  and  C_23
REMARK   10  A    between atoms: O_24  and  C_25
REMARK   11  A    between atoms: C_27  and  C_31
REMARK   12  A    between atoms: C_29  and  C_30
REMARK                            x       y       z     vdW  Elec       q    Type
REMARK                         _______ _______ _______ _____ _____    ______ ____
ROOT
ATOM      1  C   UNL     1      85.750  53.866  42.101  0.00  0.00    +0.132 A 
ATOM      2  C   UNL     1      85.242  54.552  40.988  0.00  0.00    +0.023 A 
ATOM      3  C   UNL     1      83.882  54.466  40.639  0.00  0.00    +0.133 A 
ATOM      4  C   UNL     1      83.009  53.684  41.430  0.00  0.00    +0.041 A 
ATOM      5  C   UNL     1      83.529  52.943  42.518  0.00  0.00    -0.022 A 
ATOM      6  C   UNL     1      84.892  53.062  42.869  0.00  0.00    +0.028 A 
ATOM      7  C   UNL     1      82.583  52.081  43.335  0.00  0.00    -0.004 C 
ATOM      8  C   UNL     1      81.452  51.523  42.457  0.00  0.00    +0.052 C 
ATOM      9  N   UNL     1      80.853  52.597  41.665  0.00  0.00    -0.284 NA
ATOM     10  C   UNL     1      81.539  53.580  41.154  0.00  0.00    +0.044 C 
ATOM     11  C   UNL     1      80.790  54.618  40.370  0.00  0.00    -0.022 C 
ATOM     12  C   UNL     1      81.949  50.406  41.532  0.00  0.00    -0.042 C 
ENDROOT
BRANCH   6  13
ATOM     13  C   UNL     1      85.444  52.353  44.050  0.00  0.00    -0.006 A 
ATOM     14  C   UNL     1      86.075  51.126  43.838  0.00  0.00    -0.050 A 
ATOM     15  C   UNL     1      86.589  50.400  44.905  0.00  0.00    -0.019 A 
ATOM     16  C   UNL     1      86.490  50.881  46.223  0.00  0.00    +0.131 A 
ATOM     17  C   UNL     1      85.857  52.131  46.465  0.00  0.00    +0.066 A 
ATOM     18  C   UNL     1      85.333  52.871  45.363  0.00  0.00    -0.003 A 
ATOM     19  C   UNL     1      84.718  54.117  45.594  0.00  0.00    -0.050 A 
ATOM     20  C   UNL     1      84.585  54.624  46.888  0.00  0.00    -0.046 A 
ATOM     21  C   UNL     1      83.953  55.968  47.108  0.00  0.00    -0.040 C 
ATOM     22  C   UNL     1      85.106  53.908  47.967  0.00  0.00    -0.016 A 
ATOM     23  C   UNL     1      85.737  52.665  47.777  0.00  0.00    +0.132 A 
BRANCH  23  24
ATOM     24  O   UNL     1      86.251  51.951  48.874  0.00  0.00    -0.494 OA
ATOM     25  C   UNL     1      85.474  51.411  49.940  0.00  0.00    +0.079 C 
ENDBRANCH  23  24
BRANCH  16  26
ATOM     26  O   UNL     1      87.009  50.136  47.296  0.00  0.00    -0.494 OA
ATOM     27  C   UNL     1      88.394  49.978  47.588  0.00  0.00    +0.079 C 
ENDBRANCH  16  26
ENDBRANCH   6  13
BRANCH   1  29
ATOM     28  C   UNL     1      88.164  53.226  41.878  0.00  0.00    +0.079 C 
ATOM     29  O   UNL     1      87.101  53.960  42.476  0.00  0.00    -0.494 OA
ENDBRANCH   1  29
BRANCH   3  30
ATOM     30  O   UNL     1      83.386  55.127  39.502  0.00  0.00    -0.494 OA
ATOM     31  C   UNL     1      84.141  55.426  38.333  0.00  0.00    +0.079 C 
ENDBRANCH   3  30
TORSDOF 5
ENDMDL
