MODEL 1
REMARK VINA RESULT:    -9.140      0.000      0.000
REMARK INTER + INTRA:         -13.213
REMARK INTER:                 -11.665
REMARK INTRA:                  -1.548
REMARK UNBOUND:                -1.402
REMARK  Name = 
REMARK  13 active torsions:
REMARK  status: ('A' for Active; 'I' for Inactive)
REMARK    1  A    between atoms: C_1  and  O_2
REMARK    2  A    between atoms: O_2  and  C_3
REMARK    3  A    between atoms: C_5  and  O_6
REMARK    4  A    between atoms: O_6  and  C_7
REMARK    5  A    between atoms: C_10  and  C_11
REMARK    6  A    between atoms: C_14  and  O_24
REMARK    7  A    between atoms: C_18  and  C_19
REMARK    8  A    between atoms: C_21  and  O_22
REMARK    9  A    between atoms: O_22  and  C_23
REMARK   10  A    between atoms: O_24  and  C_25
REMARK   11  A    between atoms: C_27  and  C_32
REMARK   12  A    between atoms: N_28  and  C_31
REMARK   13  A    between atoms: C_29  and  C_30
REMARK                            x       y       z     vdW  Elec       q    Type
REMARK                         _______ _______ _______ _____ _____    ______ ____
ROOT
ATOM      1  C   UNL     1      86.535  52.499  45.733  0.00  0.00    +0.132 A 
ATOM      2  C   UNL     1      86.382  53.866  46.005  0.00  0.00    +0.023 A 
ATOM      3  C   UNL     1      85.619  54.701  45.166  0.00  0.00    +0.129 A 
ATOM      4  C   UNL     1      84.964  54.138  44.033  0.00  0.00    +0.015 A 
ATOM      5  C   UNL     1      85.173  52.777  43.732  0.00  0.00    -0.027 A 
ATOM      6  C   UNL     1      85.934  51.954  44.592  0.00  0.00    +0.028 A 
ATOM      7  C   UNL     1      84.555  52.249  42.460  0.00  0.00    -0.011 C 
ATOM      8  C   UNL     1      84.776  53.245  41.295  0.00  0.00    +0.012 C 
ATOM      9  N   UNL     1      84.550  54.678  41.664  0.00  0.00    -0.296 N 
ATOM     10  C   UNL     1      84.039  54.882  43.051  0.00  0.00    +0.037 C 
ATOM     11  C   UNL     1      83.799  56.371  43.373  0.00  0.00    -0.045 C 
ATOM     12  C   UNL     1      83.723  55.346  40.636  0.00  0.00    -0.012 C 
ATOM     13  C   UNL     1      86.197  53.107  40.735  0.00  0.00    -0.049 C 
ATOM     14  H   UNL     1      85.465  55.130  41.680  0.00  0.00    +0.000 HD
ENDROOT
BRANCH   6  15
ATOM     15  C   UNL     1      86.130  50.514  44.301  0.00  0.00    -0.006 A 
ATOM     16  C   UNL     1      85.252  49.602  44.888  0.00  0.00    -0.050 A 
ATOM     17  C   UNL     1      85.370  48.241  44.635  0.00  0.00    -0.019 A 
ATOM     18  C   UNL     1      86.371  47.748  43.778  0.00  0.00    +0.131 A 
ATOM     19  C   UNL     1      87.276  48.657  43.166  0.00  0.00    +0.066 A 
ATOM     20  C   UNL     1      87.155  50.052  43.441  0.00  0.00    -0.003 A 
ATOM     21  C   UNL     1      88.055  50.958  42.847  0.00  0.00    -0.050 A 
ATOM     22  C   UNL     1      89.058  50.513  41.986  0.00  0.00    -0.046 A 
ATOM     23  C   UNL     1      89.968  51.505  41.320  0.00  0.00    -0.040 C 
ATOM     24  C   UNL     1      89.164  49.152  41.692  0.00  0.00    -0.016 A 
ATOM     25  C   UNL     1      88.293  48.213  42.277  0.00  0.00    +0.132 A 
BRANCH  25  26
ATOM     26  O   UNL     1      88.420  46.844  41.985  0.00  0.00    -0.494 OA
ATOM     27  C   UNL     1      89.510  46.017  42.382  0.00  0.00    +0.079 C 
ENDBRANCH  25  26
BRANCH  18  28
ATOM     28  O   UNL     1      86.480  46.370  43.525  0.00  0.00    -0.494 OA
ATOM     29  C   UNL     1      85.804  45.348  44.252  0.00  0.00    +0.079 C 
ENDBRANCH  18  28
ENDBRANCH   6  15
BRANCH   1  31
ATOM     30  C   UNL     1      86.858  51.175  47.838  0.00  0.00    +0.079 C 
ATOM     31  O   UNL     1      87.287  51.655  46.569  0.00  0.00    -0.494 OA
ENDBRANCH   1  31
BRANCH   3  32
ATOM     32  O   UNL     1      85.522  56.075  45.438  0.00  0.00    -0.495 OA
ATOM     33  C   UNL     1      85.535  56.664  46.735  0.00  0.00    +0.079 C 
ENDBRANCH   3  32
TORSDOF 5
ENDMDL
MODEL 2
REMARK VINA RESULT:    -8.957      2.003      7.452
REMARK INTER + INTRA:         -12.977
REMARK INTER:                 -11.549
REMARK INTRA:                  -1.428
REMARK UNBOUND:                -1.402
REMARK  Name = 
REMARK  13 active torsions:
REMARK  status: ('A' for Active; 'I' for Inactive)
REMARK    1  A    between atoms: C_1  and  O_2
REMARK    2  A    between atoms: O_2  and  C_3
REMARK    3  A    between atoms: C_5  and  O_6
REMARK    4  A    between atoms: O_6  and  C_7
REMARK    5  A    between atoms: C_10  and  C_11
REMARK    6  A    between atoms: C_14  and  O_24
REMARK    7  A    between atoms: C_18  and  C_19
REMARK    8  A    between atoms: C_21  and  O_22
REMARK    9  A    between atoms: O_22  and  C_23
REMARK   10  A    between atoms: O_24  and  C_25
REMARK   11  A    between atoms: C_27  and  C_32
REMARK   12  A    between atoms: N_28  and  C_31
REMARK   13  A    between atoms: C_29  and  C_30
REMARK                            x       y       z     vdW  Elec       q    Type
REMARK                         _______ _______ _______ _____ _____    ______ ____
ROOT
ATOM      1  C   UNL     1      84.667  49.353  44.116  0.00  0.00    +0.132 A 
ATOM      2  C   UNL     1      84.945  47.992  43.929  0.00  0.00    +0.023 A 
ATOM      3  C   UNL     1      86.230  47.549  43.562  0.00  0.00    +0.129 A 
ATOM      4  C   UNL     1      87.278  48.502  43.407  0.00  0.00    +0.015 A 
ATOM      5  C   UNL     1      86.975  49.872  43.535  0.00  0.00    -0.027 A 
ATOM      6  C   UNL     1      85.682  50.297  43.914  0.00  0.00    +0.028 A 
ATOM      7  C   UNL     1      88.087  50.854  43.250  0.00  0.00    -0.011 C 
ATOM      8  C   UNL     1      88.857  50.444  41.970  0.00  0.00    +0.012 C 
ATOM      9  N   UNL     1      89.148  48.979  41.873  0.00  0.00    -0.296 N 
ATOM     10  C   UNL     1      88.750  48.193  43.079  0.00  0.00    +0.037 C 
ATOM     11  C   UNL     1      89.094  46.696  42.940  0.00  0.00    -0.045 C 
ATOM     12  C   UNL     1      90.555  48.763  41.477  0.00  0.00    -0.012 C 
ATOM     13  C   UNL     1      88.078  50.867  40.719  0.00  0.00    -0.049 C 
ATOM     14  H   UNL     1      88.548  48.604  41.138  0.00  0.00    +0.000 HD
ENDROOT
BRANCH   6  15
ATOM     15  C   UNL     1      85.366  51.734  44.086  0.00  0.00    -0.006 A 
ATOM     16  C   UNL     1      84.937  52.448  42.967  0.00  0.00    -0.050 A 
ATOM     17  C   UNL     1      84.603  53.794  43.071  0.00  0.00    -0.019 A 
ATOM     18  C   UNL     1      84.681  54.466  44.303  0.00  0.00    +0.131 A 
ATOM     19  C   UNL     1      85.113  53.760  45.459  0.00  0.00    +0.066 A 
ATOM     20  C   UNL     1      85.466  52.382  45.341  0.00  0.00    -0.003 A 
ATOM     21  C   UNL     1      85.905  51.678  46.478  0.00  0.00    -0.050 A 
ATOM     22  C   UNL     1      85.992  52.304  47.721  0.00  0.00    -0.046 A 
ATOM     23  C   UNL     1      86.406  51.516  48.930  0.00  0.00    -0.040 C 
ATOM     24  C   UNL     1      85.622  53.645  47.848  0.00  0.00    -0.016 A 
ATOM     25  C   UNL     1      85.192  54.387  46.732  0.00  0.00    +0.132 A 
BRANCH  25  26
ATOM     26  O   UNL     1      84.837  55.741  46.869  0.00  0.00    -0.494 OA
ATOM     27  C   UNL     1      83.826  56.241  47.738  0.00  0.00    +0.079 C 
ENDBRANCH  25  26
BRANCH  18  28
ATOM     28  O   UNL     1      84.337  55.826  44.398  0.00  0.00    -0.494 OA
ATOM     29  C   UNL     1      84.587  56.805  43.395  0.00  0.00    +0.079 C 
ENDBRANCH  18  28
ENDBRANCH   6  15
BRANCH   1  31
ATOM     30  C   UNL     1      82.169  49.141  44.183  0.00  0.00    +0.079 C 
ATOM     31  O   UNL     1      83.390  49.806  44.490  0.00  0.00    -0.494 OA
ENDBRANCH   1  31
BRANCH   3  32
ATOM     32  O   UNL     1      86.467  46.184  43.336  0.00  0.00    -0.495 OA
ATOM     33  C   UNL     1      86.025  45.118  44.171  0.00  0.00    +0.079 C 
ENDBRANCH   3  32
TORSDOF 5
ENDMDL
MODEL 3
REMARK VINA RESULT:    -8.786      1.978      7.197
REMARK INTER + INTRA:         -12.756
REMARK INTER:                 -11.125
REMARK INTRA:                  -1.631
REMARK UNBOUND:                -1.402
REMARK  Name = 
REMARK  13 active torsions:
REMARK  status: ('A' for Active; 'I' for Inactive)
REMARK    1  A    between atoms: C_1  and  O_2
REMARK    2  A    between atoms: O_2  and  C_3
REMARK    3  A    between atoms: C_5  and  O_6
REMARK    4  A    between atoms: O_6  and  C_7
REMARK    5  A    between atoms: C_10  and  C_11
REMARK    6  A    between atoms: C_14  and  O_24
REMARK    7  A    between atoms: C_18  and  C_19
REMARK    8  A    between atoms: C_21  and  O_22
REMARK    9  A    between atoms: O_22  and  C_23
REMARK   10  A    between atoms: O_24  and  C_25
REMARK   11  A    between atoms: C_27  and  C_32
REMARK   12  A    between atoms: N_28  and  C_31
REMARK   13  A    between atoms: C_29  and  C_30
REMARK                            x       y       z     vdW  Elec       q    Type
REMARK                         _______ _______ _______ _____ _____    ______ ____
ROOT
ATOM      1  C   UNL     1      84.282  49.569  44.325  0.00  0.00    +0.132 A 
ATOM      2  C   UNL     1      84.449  48.289  43.779  0.00  0.00    +0.023 A 
ATOM      3  C   UNL     1      85.707  47.838  43.336  0.00  0.00    +0.129 A 
ATOM      4  C   UNL     1      86.840  48.689  43.475  0.00  0.00    +0.015 A 
ATOM      5  C   UNL     1      86.654  49.997  43.966  0.00  0.00    -0.027 A 
ATOM      6  C   UNL     1      85.385  50.428  44.415  0.00  0.00    +0.028 A 
ATOM      7  C   UNL     1      87.860  50.905  43.989  0.00  0.00    -0.011 C 
ATOM      8  C   UNL     1      88.655  50.783  42.665  0.00  0.00    +0.012 C 
ATOM      9  N   UNL     1      88.821  49.377  42.177  0.00  0.00    -0.296 N 
ATOM     10  C   UNL     1      88.295  48.338  43.111  0.00  0.00    +0.037 C 
ATOM     11  C   UNL     1      88.513  46.908  42.575  0.00  0.00    -0.045 C 
ATOM     12  C   UNL     1      90.222  49.140  41.772  0.00  0.00    -0.012 C 
ATOM     13  C   UNL     1      87.980  51.603  41.559  0.00  0.00    -0.049 C 
ATOM     14  H   UNL     1      88.228  49.276  41.352  0.00  0.00    +0.000 HD
ENDROOT
BRANCH   6  15
ATOM     15  C   UNL     1      85.188  51.789  44.966  0.00  0.00    -0.006 A 
ATOM     16  C   UNL     1      85.309  51.961  46.345  0.00  0.00    -0.050 A 
ATOM     17  C   UNL     1      85.158  53.217  46.919  0.00  0.00    -0.019 A 
ATOM     18  C   UNL     1      84.886  54.346  46.127  0.00  0.00    +0.131 A 
ATOM     19  C   UNL     1      84.760  54.199  44.719  0.00  0.00    +0.066 A 
ATOM     20  C   UNL     1      84.904  52.903  44.140  0.00  0.00    -0.003 A 
ATOM     21  C   UNL     1      84.770  52.746  42.747  0.00  0.00    -0.050 A 
ATOM     22  C   UNL     1      84.506  53.840  41.923  0.00  0.00    -0.046 A 
ATOM     23  C   UNL     1      84.427  53.655  40.435  0.00  0.00    -0.040 C 
ATOM     24  C   UNL     1      84.391  55.114  42.481  0.00  0.00    -0.016 A 
ATOM     25  C   UNL     1      84.504  55.311  43.870  0.00  0.00    +0.132 A 
BRANCH  25  26
ATOM     26  O   UNL     1      84.370  56.597  44.422  0.00  0.00    -0.494 OA
ATOM     27  C   UNL     1      85.162  57.728  44.072  0.00  0.00    +0.079 C 
ENDBRANCH  25  26
BRANCH  18  28
ATOM     28  O   UNL     1      84.738  55.615  46.716  0.00  0.00    -0.494 OA
ATOM     29  C   UNL     1      83.848  55.922  47.784  0.00  0.00    +0.079 C 
ENDBRANCH  18  28
ENDBRANCH   6  15
BRANCH   1  31
ATOM     30  C   UNL     1      81.806  49.875  44.070  0.00  0.00    +0.079 C 
ATOM     31  O   UNL     1      83.032  50.027  44.778  0.00  0.00    -0.494 OA
ENDBRANCH   1  31
BRANCH   3  32
ATOM     32  O   UNL     1      85.834  46.568  42.751  0.00  0.00    -0.495 OA
ATOM     33  C   UNL     1      84.858  45.532  42.803  0.00  0.00    +0.079 C 
ENDBRANCH   3  32
TORSDOF 5
ENDMDL
MODEL 4
REMARK VINA RESULT:    -8.773      1.530      3.296
REMARK INTER + INTRA:         -12.739
REMARK INTER:                 -11.424
REMARK INTRA:                  -1.315
REMARK UNBOUND:                -1.402
REMARK  Name = 
REMARK  13 active torsions:
REMARK  status: ('A' for Active; 'I' for Inactive)
REMARK    1  A    between atoms: C_1  and  O_2
REMARK    2  A    between atoms: O_2  and  C_3
REMARK    3  A    between atoms: C_5  and  O_6
REMARK    4  A    between atoms: O_6  and  C_7
REMARK    5  A    between atoms: C_10  and  C_11
REMARK    6  A    between atoms: C_14  and  O_24
REMARK    7  A    between atoms: C_18  and  C_19
REMARK    8  A    between atoms: C_21  and  O_22
REMARK    9  A    between atoms: O_22  and  C_23
REMARK   10  A    between atoms: O_24  and  C_25
REMARK   11  A    between atoms: C_27  and  C_32
REMARK   12  A    between atoms: N_28  and  C_31
REMARK   13  A    between atoms: C_29  and  C_30
REMARK                            x       y       z     vdW  Elec       q    Type
REMARK                         _______ _______ _______ _____ _____    ______ ____
ROOT
ATOM      1  C   UNL     1      85.742  51.711  45.774  0.00  0.00    +0.132 A 
ATOM      2  C   UNL     1      85.500  53.027  46.193  0.00  0.00    +0.023 A 
ATOM      3  C   UNL     1      84.981  53.995  45.311  0.00  0.00    +0.129 A 
ATOM      4  C   UNL     1      84.668  53.620  43.973  0.00  0.00    +0.015 A 
ATOM      5  C   UNL     1      84.973  52.313  43.542  0.00  0.00    -0.027 A 
ATOM      6  C   UNL     1      85.483  51.354  44.445  0.00  0.00    +0.028 A 
ATOM      7  C   UNL     1      84.732  51.992  42.086  0.00  0.00    -0.011 C 
ATOM      8  C   UNL     1      85.247  53.143  41.185  0.00  0.00    +0.012 C 
ATOM      9  N   UNL     1      84.907  54.512  41.686  0.00  0.00    -0.296 N 
ATOM     10  C   UNL     1      84.035  54.523  42.898  0.00  0.00    +0.037 C 
ATOM     11  C   UNL     1      83.693  55.955  43.358  0.00  0.00    -0.045 C 
ATOM     12  C   UNL     1      84.381  55.343  40.583  0.00  0.00    -0.012 C 
ATOM     13  C   UNL     1      86.768  53.051  41.019  0.00  0.00    -0.049 C 
ATOM     14  H   UNL     1      85.776  54.932  42.017  0.00  0.00    +0.000 HD
ENDROOT
BRANCH   6  15
ATOM     15  C   UNL     1      85.772  49.968  44.009  0.00  0.00    -0.006 A 
ATOM     16  C   UNL     1      87.096  49.634  43.721  0.00  0.00    -0.050 A 
ATOM     17  C   UNL     1      87.433  48.344  43.330  0.00  0.00    -0.019 A 
ATOM     18  C   UNL     1      86.453  47.342  43.221  0.00  0.00    +0.131 A 
ATOM     19  C   UNL     1      85.097  47.655  43.512  0.00  0.00    +0.066 A 
ATOM     20  C   UNL     1      84.758  48.985  43.900  0.00  0.00    -0.003 A 
ATOM     21  C   UNL     1      83.416  49.306  44.179  0.00  0.00    -0.050 A 
ATOM     22  C   UNL     1      82.413  48.342  44.089  0.00  0.00    -0.046 A 
ATOM     23  C   UNL     1      80.999  48.695  44.448  0.00  0.00    -0.040 C 
ATOM     24  C   UNL     1      82.743  47.032  43.736  0.00  0.00    -0.016 A 
ATOM     25  C   UNL     1      84.071  46.674  43.435  0.00  0.00    +0.132 A 
BRANCH  25  26
ATOM     26  O   UNL     1      84.388  45.355  43.065  0.00  0.00    -0.494 OA
ATOM     27  C   UNL     1      84.231  44.208  43.896  0.00  0.00    +0.079 C 
ENDBRANCH  25  26
BRANCH  18  28
ATOM     28  O   UNL     1      86.805  46.038  42.829  0.00  0.00    -0.494 OA
ATOM     29  C   UNL     1      88.089  45.644  42.356  0.00  0.00    +0.079 C 
ENDBRANCH  18  28
ENDBRANCH   6  15
BRANCH   1  31
ATOM     30  C   UNL     1      87.537  50.781  47.258  0.00  0.00    +0.079 C 
ATOM     31  O   UNL     1      86.251  50.735  46.648  0.00  0.00    -0.494 OA
ENDBRANCH   1  31
BRANCH   3  32
ATOM     32  O   UNL     1      84.794  55.316  45.746  0.00  0.00    -0.495 OA
ATOM     33  C   UNL     1      85.562  55.973  46.749  0.00  0.00    +0.079 C 
ENDBRANCH   3  32
TORSDOF 5
ENDMDL
MODEL 5
REMARK VINA RESULT:    -8.211      2.113      7.474
REMARK INTER + INTRA:         -12.013
REMARK INTER:                 -11.126
REMARK INTRA:                  -0.887
REMARK UNBOUND:                -1.402
REMARK  Name = 
REMARK  13 active torsions:
REMARK  status: ('A' for Active; 'I' for Inactive)
REMARK    1  A    between atoms: C_1  and  O_2
REMARK    2  A    between atoms: O_2  and  C_3
REMARK    3  A    between atoms: C_5  and  O_6
REMARK    4  A    between atoms: O_6  and  C_7
REMARK    5  A    between atoms: C_10  and  C_11
REMARK    6  A    between atoms: C_14  and  O_24
REMARK    7  A    between atoms: C_18  and  C_19
REMARK    8  A    between atoms: C_21  and  O_22
REMARK    9  A    between atoms: O_22  and  C_23
REMARK   10  A    between atoms: O_24  and  C_25
REMARK   11  A    between atoms: C_27  and  C_32
REMARK   12  A    between atoms: N_28  and  C_31
REMARK   13  A    between atoms: C_29  and  C_30
REMARK                            x       y       z     vdW  Elec       q    Type
REMARK                         _______ _______ _______ _____ _____    ______ ____
ROOT
ATOM      1  C   UNL     1      88.719  51.180  42.188  0.00  0.00    +0.132 A 
ATOM      2  C   UNL     1      89.479  50.037  41.903  0.00  0.00    +0.023 A 
ATOM      3  C   UNL     1      88.943  48.743  42.053  0.00  0.00    +0.129 A 
ATOM      4  C   UNL     1      87.590  48.595  42.475  0.00  0.00    +0.015 A 
ATOM      5  C   UNL     1      86.853  49.746  42.819  0.00  0.00    -0.027 A 
ATOM      6  C   UNL     1      87.405  51.035  42.652  0.00  0.00    +0.028 A 
ATOM      7  C   UNL     1      85.463  49.536  43.370  0.00  0.00    -0.011 C 
ATOM      8  C   UNL     1      85.460  48.390  44.412  0.00  0.00    +0.012 C 
ATOM      9  N   UNL     1      86.262  47.192  44.007  0.00  0.00    -0.296 N 
ATOM     10  C   UNL     1      86.823  47.267  42.626  0.00  0.00    +0.037 C 
ATOM     11  C   UNL     1      87.618  46.001  42.248  0.00  0.00    -0.045 C 
ATOM     12  C   UNL     1      85.493  45.955  44.255  0.00  0.00    -0.012 C 
ATOM     13  C   UNL     1      85.987  48.892  45.761  0.00  0.00    -0.049 C 
ATOM     14  H   UNL     1      87.093  47.176  44.599  0.00  0.00    +0.000 HD
ENDROOT
BRANCH   6  15
ATOM     15  C   UNL     1      86.625  52.252  42.977  0.00  0.00    -0.006 A 
ATOM     16  C   UNL     1      86.072  52.978  41.922  0.00  0.00    -0.050 A 
ATOM     17  C   UNL     1      85.311  54.115  42.166  0.00  0.00    -0.019 A 
ATOM     18  C   UNL     1      85.072  54.558  43.478  0.00  0.00    +0.131 A 
ATOM     19  C   UNL     1      85.621  53.834  44.572  0.00  0.00    +0.066 A 
ATOM     20  C   UNL     1      86.412  52.676  44.312  0.00  0.00    -0.003 A 
ATOM     21  C   UNL     1      86.969  51.959  45.389  0.00  0.00    -0.050 A 
ATOM     22  C   UNL     1      86.752  52.360  46.707  0.00  0.00    -0.046 A 
ATOM     23  C   UNL     1      87.308  51.546  47.839  0.00  0.00    -0.040 C 
ATOM     24  C   UNL     1      85.957  53.478  46.967  0.00  0.00    -0.016 A 
ATOM     25  C   UNL     1      85.394  54.229  45.919  0.00  0.00    +0.132 A 
BRANCH  25  26
ATOM     26  O   UNL     1      84.607  55.362  46.194  0.00  0.00    -0.494 OA
ATOM     27  C   UNL     1      84.379  55.908  47.489  0.00  0.00    +0.079 C 
ENDBRANCH  25  26
BRANCH  18  28
ATOM     28  O   UNL     1      84.297  55.707  43.715  0.00  0.00    -0.494 OA
ATOM     29  C   UNL     1      84.596  57.011  43.225  0.00  0.00    +0.079 C 
ENDBRANCH  18  28
ENDBRANCH   6  15
BRANCH   1  31
ATOM     30  C   UNL     1      89.844  52.974  40.844  0.00  0.00    +0.079 C 
ATOM     31  O   UNL     1      89.241  52.477  42.034  0.00  0.00    -0.494 OA
ENDBRANCH   1  31
BRANCH   3  32
ATOM     32  O   UNL     1      89.743  47.617  41.806  0.00  0.00    -0.495 OA
ATOM     33  C   UNL     1      90.651  47.027  42.731  0.00  0.00    +0.079 C 
ENDBRANCH   3  32
TORSDOF 5
ENDMDL
MODEL 6
REMARK VINA RESULT:    -7.652      2.512      7.724
REMARK INTER + INTRA:         -11.291
REMARK INTER:                 -10.240
REMARK INTRA:                  -1.050
REMARK UNBOUND:                -1.402
REMARK  Name = 
REMARK  13 active torsions:
REMARK  status: ('A' for Active; 'I' for Inactive)
REMARK    1  A    between atoms: C_1  and  O_2
REMARK    2  A    between atoms: O_2  and  C_3
REMARK    3  A    between atoms: C_5  and  O_6
REMARK    4  A    between atoms: O_6  and  C_7
REMARK    5  A    between atoms: C_10  and  C_11
REMARK    6  A    between atoms: C_14  and  O_24
REMARK    7  A    between atoms: C_18  and  C_19
REMARK    8  A    between atoms: C_21  and  O_22
REMARK    9  A    between atoms: O_22  and  C_23
REMARK   10  A    between atoms: O_24  and  C_25
REMARK   11  A    between atoms: C_27  and  C_32
REMARK   12  A    between atoms: N_28  and  C_31
REMARK   13  A    between atoms: C_29  and  C_30
REMARK                            x       y       z     vdW  Elec       q    Type
REMARK                         _______ _______ _______ _____ _____    ______ ____
ROOT
ATOM      1  C   UNL     1      89.464  48.019  42.760  0.00  0.00    +0.132 A 
ATOM      2  C   UNL     1      89.784  46.654  42.802  0.00  0.00    +0.023 A 
ATOM      3  C   UNL     1      88.782  45.665  42.776  0.00  0.00    +0.129 A 
ATOM      4  C   UNL     1      87.417  46.058  42.674  0.00  0.00    +0.015 A 
ATOM      5  C   UNL     1      87.100  47.431  42.696  0.00  0.00    -0.027 A 
ATOM      6  C   UNL     1      88.120  48.409  42.712  0.00  0.00    +0.028 A 
ATOM      7  C   UNL     1      85.637  47.802  42.703  0.00  0.00    -0.011 C 
ATOM      8  C   UNL     1      84.856  46.908  43.698  0.00  0.00    +0.012 C 
ATOM      9  N   UNL     1      85.231  45.460  43.645  0.00  0.00    -0.296 N 
ATOM     10  C   UNL     1      86.203  45.117  42.565  0.00  0.00    +0.037 C 
ATOM     11  C   UNL     1      86.537  43.611  42.536  0.00  0.00    -0.045 C 
ATOM     12  C   UNL     1      84.016  44.618  43.623  0.00  0.00    -0.012 C 
ATOM     13  C   UNL     1      85.053  47.407  45.134  0.00  0.00    -0.049 C 
ATOM     14  H   UNL     1      85.746  45.254  44.501  0.00  0.00    +0.000 HD
ENDROOT
BRANCH   6  15
ATOM     15  C   UNL     1      87.796  49.855  42.699  0.00  0.00    -0.006 A 
ATOM     16  C   UNL     1      87.656  50.484  41.462  0.00  0.00    -0.050 A 
ATOM     17  C   UNL     1      87.331  51.833  41.385  0.00  0.00    -0.019 A 
ATOM     18  C   UNL     1      87.128  52.596  42.548  0.00  0.00    +0.131 A 
ATOM     19  C   UNL     1      87.262  51.978  43.822  0.00  0.00    +0.066 A 
ATOM     20  C   UNL     1      87.609  50.596  43.891  0.00  0.00    -0.003 A 
ATOM     21  C   UNL     1      87.754  49.979  45.149  0.00  0.00    -0.050 A 
ATOM     22  C   UNL     1      87.556  50.696  46.328  0.00  0.00    -0.046 A 
ATOM     23  C   UNL     1      87.660  50.001  47.655  0.00  0.00    -0.040 C 
ATOM     24  C   UNL     1      87.190  52.042  46.265  0.00  0.00    -0.016 A 
ATOM     25  C   UNL     1      87.049  52.699  45.028  0.00  0.00    +0.132 A 
BRANCH  25  26
ATOM     26  O   UNL     1      86.695  54.059  44.979  0.00  0.00    -0.494 OA
ATOM     27  C   UNL     1      86.388  54.870  46.109  0.00  0.00    +0.079 C 
ENDBRANCH  25  26
BRANCH  18  28
ATOM     28  O   UNL     1      86.795  53.958  42.460  0.00  0.00    -0.494 OA
ATOM     29  C   UNL     1      85.523  54.466  42.067  0.00  0.00    +0.079 C 
ENDBRANCH  18  28
ENDBRANCH   6  15
BRANCH   1  31
ATOM     30  C   UNL     1      91.672  48.938  43.513  0.00  0.00    +0.079 C 
ATOM     31  O   UNL     1      90.456  49.015  42.777  0.00  0.00    -0.494 OA
ENDBRANCH   1  31
BRANCH   3  32
ATOM     32  O   UNL     1      89.131  44.308  42.866  0.00  0.00    -0.495 OA
ATOM     33  C   UNL     1      89.219  43.555  44.072  0.00  0.00    +0.079 C 
ENDBRANCH   3  32
TORSDOF 5
ENDMDL
MODEL 7
REMARK VINA RESULT:    -7.292      2.591      7.390
REMARK INTER + INTRA:         -10.826
REMARK INTER:                  -9.468
REMARK INTRA:                  -1.358
REMARK UNBOUND:                -1.402
REMARK  Name = 
REMARK  13 active torsions:
REMARK  status: ('A' for Active; 'I' for Inactive)
REMARK    1  A    between atoms: C_1  and  O_2
REMARK    2  A    between atoms: O_2  and  C_3
REMARK    3  A    between atoms: C_5  and  O_6
REMARK    4  A    between atoms: O_6  and  C_7
REMARK    5  A    between atoms: C_10  and  C_11
REMARK    6  A    between atoms: C_14  and  O_24
REMARK    7  A    between atoms: C_18  and  C_19
REMARK    8  A    between atoms: C_21  and  O_22
REMARK    9  A    between atoms: O_22  and  C_23
REMARK   10  A    between atoms: O_24  and  C_25
REMARK   11  A    between atoms: C_27  and  C_32
REMARK   12  A    between atoms: N_28  and  C_31
REMARK   13  A    between atoms: C_29  and  C_30
REMARK                            x       y       z     vdW  Elec       q    Type
REMARK                         _______ _______ _______ _____ _____    ______ ____
ROOT
ATOM      1  C   UNL     1      86.345  49.526  44.091  0.00  0.00    +0.132 A 
ATOM      2  C   UNL     1      86.377  48.198  44.539  0.00  0.00    +0.023 A 
ATOM      3  C   UNL     1      85.244  47.367  44.453  0.00  0.00    +0.129 A 
ATOM      4  C   UNL     1      84.048  47.877  43.871  0.00  0.00    +0.015 A 
ATOM      5  C   UNL     1      84.005  49.231  43.480  0.00  0.00    -0.027 A 
ATOM      6  C   UNL     1      85.156  50.046  43.565  0.00  0.00    +0.028 A 
ATOM      7  C   UNL     1      82.685  49.761  42.974  0.00  0.00    -0.011 C 
ATOM      8  C   UNL     1      81.524  49.277  43.878  0.00  0.00    +0.012 C 
ATOM      9  N   UNL     1      81.617  47.836  44.274  0.00  0.00    -0.296 N 
ATOM     10  C   UNL     1      82.743  47.095  43.634  0.00  0.00    +0.037 C 
ATOM     11  C   UNL     1      82.779  45.611  44.054  0.00  0.00    -0.045 C 
ATOM     12  C   UNL     1      80.308  47.173  44.096  0.00  0.00    -0.012 C 
ATOM     13  C   UNL     1      81.449  50.126  45.153  0.00  0.00    -0.049 C 
ATOM     14  H   UNL     1      81.853  47.815  45.267  0.00  0.00    +0.000 HD
ENDROOT
BRANCH   6  15
ATOM     15  C   UNL     1      85.129  51.460  43.123  0.00  0.00    -0.006 A 
ATOM     16  C   UNL     1      85.285  51.724  41.762  0.00  0.00    -0.050 A 
ATOM     17  C   UNL     1      85.245  53.028  41.284  0.00  0.00    -0.019 A 
ATOM     18  C   UNL     1      85.042  54.112  42.156  0.00  0.00    +0.131 A 
ATOM     19  C   UNL     1      84.877  53.870  43.547  0.00  0.00    +0.066 A 
ATOM     20  C   UNL     1      84.932  52.529  44.030  0.00  0.00    -0.003 A 
ATOM     21  C   UNL     1      84.781  52.281  45.408  0.00  0.00    -0.050 A 
ATOM     22  C   UNL     1      84.571  53.326  46.308  0.00  0.00    -0.046 A 
ATOM     23  C   UNL     1      84.355  53.030  47.764  0.00  0.00    -0.040 C 
ATOM     24  C   UNL     1      84.490  54.638  45.836  0.00  0.00    -0.016 A 
ATOM     25  C   UNL     1      84.649  54.929  44.468  0.00  0.00    +0.132 A 
BRANCH  25  26
ATOM     26  O   UNL     1      84.581  56.256  44.008  0.00  0.00    -0.494 OA
ATOM     27  C   UNL     1      85.293  57.356  44.566  0.00  0.00    +0.079 C 
ENDBRANCH  25  26
BRANCH  18  28
ATOM     28  O   UNL     1      84.999  55.428  41.662  0.00  0.00    -0.494 OA
ATOM     29  C   UNL     1      84.309  55.839  40.485  0.00  0.00    +0.079 C 
ENDBRANCH  18  28
ENDBRANCH   6  15
BRANCH   1  31
ATOM     30  C   UNL     1      88.608  50.273  43.309  0.00  0.00    +0.079 C 
ATOM     31  O   UNL     1      87.473  50.362  44.164  0.00  0.00    -0.494 OA
ENDBRANCH   1  31
BRANCH   3  32
ATOM     32  O   UNL     1      85.292  46.056  44.954  0.00  0.00    -0.495 OA
ATOM     33  C   UNL     1      86.089  44.999  44.428  0.00  0.00    +0.079 C 
ENDBRANCH   3  32
TORSDOF 5
ENDMDL
MODEL 8
REMARK VINA RESULT:    -7.225      2.078      7.453
REMARK INTER + INTRA:         -10.738
REMARK INTER:                 -10.008
REMARK INTRA:                  -0.730
REMARK UNBOUND:                -1.402
REMARK  Name = 
REMARK  13 active torsions:
REMARK  status: ('A' for Active; 'I' for Inactive)
REMARK    1  A    between atoms: C_1  and  O_2
REMARK    2  A    between atoms: O_2  and  C_3
REMARK    3  A    between atoms: C_5  and  O_6
REMARK    4  A    between atoms: O_6  and  C_7
REMARK    5  A    between atoms: C_10  and  C_11
REMARK    6  A    between atoms: C_14  and  O_24
REMARK    7  A    between atoms: C_18  and  C_19
REMARK    8  A    between atoms: C_21  and  O_22
REMARK    9  A    between atoms: O_22  and  C_23
REMARK   10  A    between atoms: O_24  and  C_25
REMARK   11  A    between atoms: C_27  and  C_32
REMARK   12  A    between atoms: N_28  and  C_31
REMARK   13  A    between atoms: C_29  and  C_30
REMARK                            x       y       z     vdW  Elec       q    Type
REMARK                         _______ _______ _______ _____ _____    ______ ____
ROOT
ATOM      1  C   UNL     1      88.422  51.690  42.397  0.00  0.00    +0.132 A 
ATOM      2  C   UNL     1      88.939  50.547  41.772  0.00  0.00    +0.023 A 
ATOM      3  C   UNL     1      88.332  49.286  41.930  0.00  0.00    +0.129 A 
ATOM      4  C   UNL     1      87.151  49.176  42.718  0.00  0.00    +0.015 A 
ATOM      5  C   UNL     1      86.674  50.317  43.394  0.00  0.00    -0.027 A 
ATOM      6  C   UNL     1      87.291  51.575  43.215  0.00  0.00    +0.028 A 
ATOM      7  C   UNL     1      85.488  50.132  44.310  0.00  0.00    -0.011 C 
ATOM      8  C   UNL     1      85.662  48.855  45.170  0.00  0.00    +0.012 C 
ATOM      9  N   UNL     1      86.178  47.671  44.412  0.00  0.00    -0.296 N 
ATOM     10  C   UNL     1      86.321  47.898  42.944  0.00  0.00    +0.037 C 
ATOM     11  C   UNL     1      86.831  46.643  42.206  0.00  0.00    -0.045 C 
ATOM     12  C   UNL     1      85.383  46.469  44.740  0.00  0.00    -0.012 C 
ATOM     13  C   UNL     1      86.607  49.127  46.346  0.00  0.00    -0.049 C 
ATOM     14  H   UNL     1      87.137  47.514  44.722  0.00  0.00    +0.000 HD
ENDROOT
BRANCH   6  15
ATOM     15  C   UNL     1      86.775  52.787  43.893  0.00  0.00    -0.006 A 
ATOM     16  C   UNL     1      87.093  52.970  45.239  0.00  0.00    -0.050 A 
ATOM     17  C   UNL     1      86.657  54.098  45.924  0.00  0.00    -0.019 A 
ATOM     18  C   UNL     1      85.892  55.085  45.278  0.00  0.00    +0.131 A 
ATOM     19  C   UNL     1      85.556  54.924  43.906  0.00  0.00    +0.066 A 
ATOM     20  C   UNL     1      85.997  53.756  43.215  0.00  0.00    -0.003 A 
ATOM     21  C   UNL     1      85.659  53.584  41.859  0.00  0.00    -0.050 A 
ATOM     22  C   UNL     1      84.907  54.541  41.178  0.00  0.00    -0.046 A 
ATOM     23  C   UNL     1      84.610  54.361  39.717  0.00  0.00    -0.040 C 
ATOM     24  C   UNL     1      84.496  55.698  41.843  0.00  0.00    -0.016 A 
ATOM     25  C   UNL     1      84.801  55.901  43.202  0.00  0.00    +0.132 A 
BRANCH  25  26
ATOM     26  O   UNL     1      84.367  57.064  43.865  0.00  0.00    -0.494 OA
ATOM     27  C   UNL     1      85.103  58.280  43.955  0.00  0.00    +0.079 C 
ENDBRANCH  25  26
BRANCH  18  28
ATOM     28  O   UNL     1      85.459  56.226  45.978  0.00  0.00    -0.494 OA
ATOM     29  C   UNL     1      84.656  56.208  47.154  0.00  0.00    +0.079 C 
ENDBRANCH  18  28
ENDBRANCH   6  15
BRANCH   1  31
ATOM     30  C   UNL     1      89.783  53.358  41.110  0.00  0.00    +0.079 C 
ATOM     31  O   UNL     1      89.015  52.955  42.239  0.00  0.00    -0.494 OA
ENDBRANCH   1  31
BRANCH   3  32
ATOM     32  O   UNL     1      88.899  48.151  41.329  0.00  0.00    -0.495 OA
ATOM     33  C   UNL     1      90.187  47.617  41.621  0.00  0.00    +0.079 C 
ENDBRANCH   3  32
TORSDOF 5
ENDMDL
MODEL 9
REMARK VINA RESULT:    -6.722      2.702      7.160
REMARK INTER + INTRA:         -10.089
REMARK INTER:                  -8.687
REMARK INTRA:                  -1.402
REMARK UNBOUND:                -1.402
REMARK  Name = 
REMARK  13 active torsions:
REMARK  status: ('A' for Active; 'I' for Inactive)
REMARK    1  A    between atoms: C_1  and  O_2
REMARK    2  A    between atoms: O_2  and  C_3
REMARK    3  A    between atoms: C_5  and  O_6
REMARK    4  A    between atoms: O_6  and  C_7
REMARK    5  A    between atoms: C_10  and  C_11
REMARK    6  A    between atoms: C_14  and  O_24
REMARK    7  A    between atoms: C_18  and  C_19
REMARK    8  A    between atoms: C_21  and  O_22
REMARK    9  A    between atoms: O_22  and  C_23
REMARK   10  A    between atoms: O_24  and  C_25
REMARK   11  A    between atoms: C_27  and  C_32
REMARK   12  A    between atoms: N_28  and  C_31
REMARK   13  A    between atoms: C_29  and  C_30
REMARK                            x       y       z     vdW  Elec       q    Type
REMARK                         _______ _______ _______ _____ _____    ______ ____
ROOT
ATOM      1  C   UNL     1      85.878  49.820  44.971  0.00  0.00    +0.132 A 
ATOM      2  C   UNL     1      85.978  48.468  44.617  0.00  0.00    +0.023 A 
ATOM      3  C   UNL     1      84.887  47.772  44.061  0.00  0.00    +0.129 A 
ATOM      4  C   UNL     1      83.666  48.466  43.825  0.00  0.00    +0.015 A 
ATOM      5  C   UNL     1      83.554  49.807  44.242  0.00  0.00    -0.027 A 
ATOM      6  C   UNL     1      84.662  50.491  44.789  0.00  0.00    +0.028 A 
ATOM      7  C   UNL     1      82.207  50.470  44.079  0.00  0.00    -0.011 C 
ATOM      8  C   UNL     1      81.075  49.518  44.539  0.00  0.00    +0.012 C 
ATOM      9  N   UNL     1      81.241  48.103  44.081  0.00  0.00    -0.296 N 
ATOM     10  C   UNL     1      82.401  47.886  43.166  0.00  0.00    +0.037 C 
ATOM     11  C   UNL     1      82.513  46.419  42.702  0.00  0.00    -0.045 C 
ATOM     12  C   UNL     1      79.966  47.590  43.535  0.00  0.00    -0.012 C 
ATOM     13  C   UNL     1      80.962  49.521  46.069  0.00  0.00    -0.049 C 
ATOM     14  H   UNL     1      81.481  47.549  44.903  0.00  0.00    +0.000 HD
ENDROOT
BRANCH   6  15
ATOM     15  C   UNL     1      84.563  51.912  45.196  0.00  0.00    -0.006 A 
ATOM     16  C   UNL     1      84.335  52.193  46.544  0.00  0.00    -0.050 A 
ATOM     17  C   UNL     1      84.255  53.507  46.991  0.00  0.00    -0.019 A 
ATOM     18  C   UNL     1      84.408  54.584  46.101  0.00  0.00    +0.131 A 
ATOM     19  C   UNL     1      84.645  54.325  44.723  0.00  0.00    +0.066 A 
ATOM     20  C   UNL     1      84.712  52.973  44.271  0.00  0.00    -0.003 A 
ATOM     21  C   UNL     1      84.935  52.708  42.906  0.00  0.00    -0.050 A 
ATOM     22  C   UNL     1      85.099  53.747  41.990  0.00  0.00    -0.046 A 
ATOM     23  C   UNL     1      85.394  53.437  40.550  0.00  0.00    -0.040 C 
ATOM     24  C   UNL     1      85.060  55.071  42.431  0.00  0.00    -0.016 A 
ATOM     25  C   UNL     1      84.826  55.378  43.785  0.00  0.00    +0.132 A 
BRANCH  25  26
ATOM     26  O   UNL     1      84.774  56.716  44.214  0.00  0.00    -0.494 OA
ATOM     27  C   UNL     1      85.819  57.671  44.056  0.00  0.00    +0.079 C 
ENDBRANCH  25  26
BRANCH  18  28
ATOM     28  O   UNL     1      84.330  55.909  46.563  0.00  0.00    -0.494 OA
ATOM     29  C   UNL     1      83.547  56.345  47.670  0.00  0.00    +0.079 C 
ENDBRANCH  18  28
ENDBRANCH   6  15
BRANCH   1  31
ATOM     30  C   UNL     1      87.563  50.245  46.780  0.00  0.00    +0.079 C 
ATOM     31  O   UNL     1      86.963  50.527  45.520  0.00  0.00    -0.494 OA
ENDBRANCH   1  31
BRANCH   3  32
ATOM     32  O   UNL     1      85.004  46.406  43.759  0.00  0.00    -0.495 OA
ATOM     33  C   UNL     1      85.382  45.385  44.678  0.00  0.00    +0.079 C 
ENDBRANCH   3  32
TORSDOF 5
ENDMDL
