MODEL 1
REMARK VINA RESULT:    -8.387      0.000      0.000
REMARK INTER + INTRA:         -11.940
REMARK INTER:                 -10.584
REMARK INTRA:                  -1.357
REMARK UNBOUND:                -1.346
REMARK  Name = 
REMARK  12 active torsions:
REMARK  status: ('A' for Active; 'I' for Inactive)
REMARK    1  A    between atoms: C_1  and  O_2
REMARK    2  A    between atoms: O_2  and  C_3
REMARK    3  A    between atoms: C_5  and  O_6
REMARK    4  A    between atoms: C_7  and  C_17
REMARK    5  A    between atoms: C_10  and  C_11
REMARK    6  A    between atoms: N_12  and  C_13
REMARK    7  A    between atoms: C_14  and  C_16
REMARK    8  A    between atoms: C_20  and  O_30
REMARK    9  A    between atoms: C_24  and  C_25
REMARK   10  A    between atoms: C_27  and  O_28
REMARK   11  A    between atoms: O_28  and  C_29
REMARK   12  A    between atoms: O_30  and  C_31
REMARK                            x       y       z     vdW  Elec       q    Type
REMARK                         _______ _______ _______ _____ _____    ______ ____
ROOT
ATOM      1  C   UNL     1      86.240  54.196  44.757  0.00  0.00    +0.129 A 
ATOM      2  C   UNL     1      86.734  53.235  45.655  0.00  0.00    +0.022 A 
ATOM      3  C   UNL     1      86.553  51.874  45.422  0.00  0.00    +0.128 A 
ATOM      4  C   UNL     1      85.881  51.444  44.260  0.00  0.00    +0.028 A 
ATOM      5  C   UNL     1      85.393  52.400  43.337  0.00  0.00    -0.027 A 
ATOM      6  C   UNL     1      85.534  53.780  43.607  0.00  0.00    +0.015 A 
ATOM      7  C   UNL     1      84.933  54.834  42.669  0.00  0.00    +0.037 C 
ATOM      8  C   UNL     1      83.719  55.473  43.360  0.00  0.00    -0.045 C 
ATOM      9  N   UNL     1      84.487  54.309  41.346  0.00  0.00    -0.296 N 
ATOM     10  C   UNL     1      84.599  55.315  40.274  0.00  0.00    -0.012 C 
ATOM     11  C   UNL     1      85.030  52.993  40.946  0.00  0.00    +0.012 C 
ATOM     12  C   UNL     1      84.734  51.977  42.049  0.00  0.00    -0.011 C 
ATOM     13  C   UNL     1      86.534  53.034  40.589  0.00  0.00    -0.049 C 
ATOM     14  H   UNL     1      83.497  54.116  41.495  0.00  0.00    +0.000 HD
ENDROOT
BRANCH   4  15
ATOM     15  C   UNL     1      85.723  49.992  44.004  0.00  0.00    -0.006 A 
ATOM     16  C   UNL     1      84.514  49.392  44.357  0.00  0.00    -0.050 A 
ATOM     17  C   UNL     1      84.307  48.035  44.143  0.00  0.00    -0.019 A 
ATOM     18  C   UNL     1      85.308  47.233  43.566  0.00  0.00    +0.131 A 
ATOM     19  C   UNL     1      86.549  47.820  43.195  0.00  0.00    +0.066 A 
ATOM     20  C   UNL     1      86.752  49.214  43.420  0.00  0.00    -0.003 A 
ATOM     21  C   UNL     1      87.975  49.806  43.047  0.00  0.00    -0.050 A 
ATOM     22  C   UNL     1      88.983  49.053  42.447  0.00  0.00    -0.046 A 
ATOM     23  C   UNL     1      90.286  49.703  42.081  0.00  0.00    -0.040 C 
ATOM     24  C   UNL     1      88.799  47.683  42.248  0.00  0.00    -0.016 A 
ATOM     25  C   UNL     1      87.592  47.053  42.609  0.00  0.00    +0.132 A 
BRANCH  25  26
ATOM     26  O   UNL     1      87.414  45.675  42.396  0.00  0.00    -0.494 OA
ATOM     27  C   UNL     1      88.314  44.656  42.824  0.00  0.00    +0.079 C 
ENDBRANCH  25  26
BRANCH  18  28
ATOM     28  O   UNL     1      85.088  45.862  43.352  0.00  0.00    -0.494 OA
ATOM     29  C   UNL     1      84.603  44.947  44.329  0.00  0.00    +0.079 C 
ENDBRANCH  18  28
ENDBRANCH   4  15
BRANCH   1  31
ATOM     30  C   UNL     1      86.055  56.270  46.155  0.00  0.00    +0.079 C 
ATOM     31  O   UNL     1      86.437  55.571  44.975  0.00  0.00    -0.495 OA
ENDBRANCH   1  31
BRANCH   3  32
ATOM     32  O   UNL     1      87.064  50.971  46.356  0.00  0.00    -0.506 OA
ATOM     33  H   UNL     1      86.488  50.554  46.967  0.00  0.00    +0.000 HD
ENDBRANCH   3  32
TORSDOF 5
ENDMDL
MODEL 2
REMARK VINA RESULT:    -8.166      1.957      4.211
REMARK INTER + INTRA:         -11.661
REMARK INTER:                 -10.343
REMARK INTRA:                  -1.318
REMARK UNBOUND:                -1.346
REMARK  Name = 
REMARK  12 active torsions:
REMARK  status: ('A' for Active; 'I' for Inactive)
REMARK    1  A    between atoms: C_1  and  O_2
REMARK    2  A    between atoms: O_2  and  C_3
REMARK    3  A    between atoms: C_5  and  O_6
REMARK    4  A    between atoms: C_7  and  C_17
REMARK    5  A    between atoms: C_10  and  C_11
REMARK    6  A    between atoms: N_12  and  C_13
REMARK    7  A    between atoms: C_14  and  C_16
REMARK    8  A    between atoms: C_20  and  O_30
REMARK    9  A    between atoms: C_24  and  C_25
REMARK   10  A    between atoms: C_27  and  O_28
REMARK   11  A    between atoms: O_28  and  C_29
REMARK   12  A    between atoms: O_30  and  C_31
REMARK                            x       y       z     vdW  Elec       q    Type
REMARK                         _______ _______ _______ _____ _____    ______ ____
ROOT
ATOM      1  C   UNL     1      85.737  54.840  43.246  0.00  0.00    +0.129 A 
ATOM      2  C   UNL     1      85.930  54.177  42.022  0.00  0.00    +0.022 A 
ATOM      3  C   UNL     1      86.457  52.889  41.979  0.00  0.00    +0.128 A 
ATOM      4  C   UNL     1      86.788  52.225  43.177  0.00  0.00    +0.028 A 
ATOM      5  C   UNL     1      86.583  52.874  44.419  0.00  0.00    -0.027 A 
ATOM      6  C   UNL     1      86.097  54.201  44.452  0.00  0.00    +0.015 A 
ATOM      7  C   UNL     1      85.952  54.956  45.778  0.00  0.00    +0.037 C 
ATOM      8  C   UNL     1      87.047  56.032  45.853  0.00  0.00    -0.045 C 
ATOM      9  N   UNL     1      86.060  54.103  46.996  0.00  0.00    -0.296 N 
ATOM     10  C   UNL     1      85.259  54.623  48.121  0.00  0.00    -0.012 C 
ATOM     11  C   UNL     1      85.879  52.649  46.797  0.00  0.00    +0.012 C 
ATOM     12  C   UNL     1      86.856  52.170  45.723  0.00  0.00    -0.011 C 
ATOM     13  C   UNL     1      84.421  52.253  46.468  0.00  0.00    -0.049 C 
ATOM     14  H   UNL     1      87.045  54.182  47.249  0.00  0.00    +0.000 HD
ENDROOT
BRANCH   4  15
ATOM     15  C   UNL     1      87.318  50.842  43.122  0.00  0.00    -0.006 A 
ATOM     16  C   UNL     1      88.670  50.669  42.826  0.00  0.00    -0.050 A 
ATOM     17  C   UNL     1      89.224  49.396  42.759  0.00  0.00    -0.019 A 
ATOM     18  C   UNL     1      88.438  48.252  42.989  0.00  0.00    +0.131 A 
ATOM     19  C   UNL     1      87.058  48.401  43.295  0.00  0.00    +0.066 A 
ATOM     20  C   UNL     1      86.498  49.712  43.360  0.00  0.00    -0.003 A 
ATOM     21  C   UNL     1      85.133  49.869  43.672  0.00  0.00    -0.050 A 
ATOM     22  C   UNL     1      84.325  48.763  43.935  0.00  0.00    -0.046 A 
ATOM     23  C   UNL     1      82.868  48.957  44.241  0.00  0.00    -0.040 C 
ATOM     24  C   UNL     1      84.862  47.477  43.847  0.00  0.00    -0.016 A 
ATOM     25  C   UNL     1      86.220  47.278  43.535  0.00  0.00    +0.132 A 
BRANCH  25  26
ATOM     26  O   UNL     1      86.752  45.978  43.458  0.00  0.00    -0.494 OA
ATOM     27  C   UNL     1      86.248  44.843  44.157  0.00  0.00    +0.079 C 
ENDBRANCH  25  26
BRANCH  18  28
ATOM     28  O   UNL     1      89.008  46.969  42.921  0.00  0.00    -0.494 OA
ATOM     29  C   UNL     1      90.300  46.673  42.401  0.00  0.00    +0.079 C 
ENDBRANCH  18  28
ENDBRANCH   4  15
BRANCH   1  31
ATOM     30  C   UNL     1      83.793  56.425  43.241  0.00  0.00    +0.079 C 
ATOM     31  O   UNL     1      85.185  56.133  43.298  0.00  0.00    -0.495 OA
ENDBRANCH   1  31
BRANCH   3  32
ATOM     32  O   UNL     1      86.630  52.288  40.730  0.00  0.00    -0.506 OA
ATOM     33  H   UNL     1      86.579  52.805  39.950  0.00  0.00    +0.000 HD
ENDBRANCH   3  32
TORSDOF 5
ENDMDL
MODEL 3
REMARK VINA RESULT:    -7.934      2.173      3.610
REMARK INTER + INTRA:         -11.368
REMARK INTER:                 -10.133
REMARK INTRA:                  -1.235
REMARK UNBOUND:                -1.346
REMARK  Name = 
REMARK  12 active torsions:
REMARK  status: ('A' for Active; 'I' for Inactive)
REMARK    1  A    between atoms: C_1  and  O_2
REMARK    2  A    between atoms: O_2  and  C_3
REMARK    3  A    between atoms: C_5  and  O_6
REMARK    4  A    between atoms: C_7  and  C_17
REMARK    5  A    between atoms: C_10  and  C_11
REMARK    6  A    between atoms: N_12  and  C_13
REMARK    7  A    between atoms: C_14  and  C_16
REMARK    8  A    between atoms: C_20  and  O_30
REMARK    9  A    between atoms: C_24  and  C_25
REMARK   10  A    between atoms: C_27  and  O_28
REMARK   11  A    between atoms: O_28  and  C_29
REMARK   12  A    between atoms: O_30  and  C_31
REMARK                            x       y       z     vdW  Elec       q    Type
REMARK                         _______ _______ _______ _____ _____    ______ ____
ROOT
ATOM      1  C   UNL     1      84.576  54.902  44.086  0.00  0.00    +0.129 A 
ATOM      2  C   UNL     1      84.331  54.238  42.873  0.00  0.00    +0.022 A 
ATOM      3  C   UNL     1      84.741  52.921  42.679  0.00  0.00    +0.128 A 
ATOM      4  C   UNL     1      85.397  52.230  43.717  0.00  0.00    +0.028 A 
ATOM      5  C   UNL     1      85.635  52.880  44.952  0.00  0.00    -0.027 A 
ATOM      6  C   UNL     1      85.262  54.233  45.123  0.00  0.00    +0.015 A 
ATOM      7  C   UNL     1      85.591  54.985  46.417  0.00  0.00    +0.037 C 
ATOM      8  C   UNL     1      86.714  55.994  46.128  0.00  0.00    -0.045 C 
ATOM      9  N   UNL     1      86.031  54.118  47.548  0.00  0.00    -0.296 N 
ATOM     10  C   UNL     1      85.661  54.675  48.863  0.00  0.00    -0.012 C 
ATOM     11  C   UNL     1      85.711  52.679  47.434  0.00  0.00    +0.012 C 
ATOM     12  C   UNL     1      86.267  52.151  46.110  0.00  0.00    -0.011 C 
ATOM     13  C   UNL     1      84.204  52.371  47.589  0.00  0.00    -0.049 C 
ATOM     14  H   UNL     1      87.048  54.137  47.474  0.00  0.00    +0.000 HD
ENDROOT
BRANCH   4  15
ATOM     15  C   UNL     1      85.800  50.818  43.513  0.00  0.00    -0.006 A 
ATOM     16  C   UNL     1      84.944  49.818  43.978  0.00  0.00    -0.050 A 
ATOM     17  C   UNL     1      85.268  48.477  43.817  0.00  0.00    -0.019 A 
ATOM     18  C   UNL     1      86.463  48.092  43.182  0.00  0.00    +0.131 A 
ATOM     19  C   UNL     1      87.351  49.091  42.697  0.00  0.00    +0.066 A 
ATOM     20  C   UNL     1      87.010  50.466  42.868  0.00  0.00    -0.003 A 
ATOM     21  C   UNL     1      87.880  51.462  42.382  0.00  0.00    -0.050 A 
ATOM     22  C   UNL     1      89.061  51.124  41.722  0.00  0.00    -0.046 A 
ATOM     23  C   UNL     1      89.982  52.205  41.235  0.00  0.00    -0.040 C 
ATOM     24  C   UNL     1      89.411  49.780  41.575  0.00  0.00    -0.016 A 
ATOM     25  C   UNL     1      88.571  48.755  42.049  0.00  0.00    +0.132 A 
BRANCH  25  26
ATOM     26  O   UNL     1      88.930  47.405  41.888  0.00  0.00    -0.494 OA
ATOM     27  C   UNL     1      90.142  46.817  42.353  0.00  0.00    +0.079 C 
ENDBRANCH  25  26
BRANCH  18  28
ATOM     28  O   UNL     1      86.780  46.732  43.023  0.00  0.00    -0.494 OA
ATOM     29  C   UNL     1      86.077  45.651  43.625  0.00  0.00    +0.079 C 
ENDBRANCH  18  28
ENDBRANCH   4  15
BRANCH   1  31
ATOM     30  C   UNL     1      84.601  57.353  43.559  0.00  0.00    +0.079 C 
ATOM     31  O   UNL     1      84.146  56.224  44.296  0.00  0.00    -0.495 OA
ENDBRANCH   1  31
BRANCH   3  32
ATOM     32  O   UNL     1      84.473  52.320  41.447  0.00  0.00    -0.506 OA
ATOM     33  H   UNL     1      83.688  52.535  40.982  0.00  0.00    +0.000 HD
ENDBRANCH   3  32
TORSDOF 5
ENDMDL
MODEL 4
REMARK VINA RESULT:    -7.806      2.126      7.272
REMARK INTER + INTRA:         -11.205
REMARK INTER:                  -9.798
REMARK INTRA:                  -1.408
REMARK UNBOUND:                -1.346
REMARK  Name = 
REMARK  12 active torsions:
REMARK  status: ('A' for Active; 'I' for Inactive)
REMARK    1  A    between atoms: C_1  and  O_2
REMARK    2  A    between atoms: O_2  and  C_3
REMARK    3  A    between atoms: C_5  and  O_6
REMARK    4  A    between atoms: C_7  and  C_17
REMARK    5  A    between atoms: C_10  and  C_11
REMARK    6  A    between atoms: N_12  and  C_13
REMARK    7  A    between atoms: C_14  and  C_16
REMARK    8  A    between atoms: C_20  and  O_30
REMARK    9  A    between atoms: C_24  and  C_25
REMARK   10  A    between atoms: C_27  and  O_28
REMARK   11  A    between atoms: O_28  and  C_29
REMARK   12  A    between atoms: O_30  and  C_31
REMARK                            x       y       z     vdW  Elec       q    Type
REMARK                         _______ _______ _______ _____ _____    ______ ____
ROOT
ATOM      1  C   UNL     1      86.913  46.866  42.803  0.00  0.00    +0.129 A 
ATOM      2  C   UNL     1      85.742  47.087  43.547  0.00  0.00    +0.022 A 
ATOM      3  C   UNL     1      85.585  48.239  44.313  0.00  0.00    +0.128 A 
ATOM      4  C   UNL     1      86.603  49.213  44.333  0.00  0.00    +0.028 A 
ATOM      5  C   UNL     1      87.781  49.013  43.575  0.00  0.00    -0.027 A 
ATOM      6  C   UNL     1      87.957  47.817  42.842  0.00  0.00    +0.015 A 
ATOM      7  C   UNL     1      89.261  47.536  42.087  0.00  0.00    +0.037 C 
ATOM      8  C   UNL     1      90.037  46.441  42.836  0.00  0.00    -0.045 C 
ATOM      9  N   UNL     1      90.160  48.716  41.937  0.00  0.00    -0.296 N 
ATOM     10  C   UNL     1      90.966  48.657  40.702  0.00  0.00    -0.012 C 
ATOM     11  C   UNL     1      89.541  50.043  42.144  0.00  0.00    +0.012 C 
ATOM     12  C   UNL     1      88.860  50.064  43.513  0.00  0.00    -0.011 C 
ATOM     13  C   UNL     1      88.571  50.451  41.012  0.00  0.00    -0.049 C 
ATOM     14  H   UNL     1      90.794  48.628  42.731  0.00  0.00    +0.000 HD
ENDROOT
BRANCH   4  15
ATOM     15  C   UNL     1      86.412  50.452  45.125  0.00  0.00    -0.006 A 
ATOM     16  C   UNL     1      86.888  50.472  46.436  0.00  0.00    -0.050 A 
ATOM     17  C   UNL     1      86.737  51.604  47.228  0.00  0.00    -0.019 A 
ATOM     18  C   UNL     1      86.103  52.756  46.728  0.00  0.00    +0.131 A 
ATOM     19  C   UNL     1      85.611  52.763  45.395  0.00  0.00    +0.066 A 
ATOM     20  C   UNL     1      85.770  51.595  44.590  0.00  0.00    -0.003 A 
ATOM     21  C   UNL     1      85.293  51.597  43.264  0.00  0.00    -0.050 A 
ATOM     22  C   UNL     1      84.684  52.727  42.721  0.00  0.00    -0.046 A 
ATOM     23  C   UNL     1      84.163  52.694  41.313  0.00  0.00    -0.040 C 
ATOM     24  C   UNL     1      84.503  53.863  43.513  0.00  0.00    -0.016 A 
ATOM     25  C   UNL     1      84.963  53.902  44.844  0.00  0.00    +0.132 A 
BRANCH  25  26
ATOM     26  O   UNL     1      84.783  55.055  45.628  0.00  0.00    -0.494 OA
ATOM     27  C   UNL     1      84.475  56.351  45.123  0.00  0.00    +0.079 C 
ENDBRANCH  25  26
BRANCH  18  28
ATOM     28  O   UNL     1      85.957  53.897  47.537  0.00  0.00    -0.494 OA
ATOM     29  C   UNL     1      85.339  53.919  48.819  0.00  0.00    +0.079 C 
ENDBRANCH  18  28
ENDBRANCH   4  15
BRANCH   1  31
ATOM     30  C   UNL     1      87.002  44.378  42.498  0.00  0.00    +0.079 C 
ATOM     31  O   UNL     1      87.070  45.714  42.011  0.00  0.00    -0.495 OA
ENDBRANCH   1  31
BRANCH   3  32
ATOM     32  O   UNL     1      84.399  48.396  45.034  0.00  0.00    -0.506 OA
ATOM     33  H   UNL     1      84.009  49.245  45.115  0.00  0.00    +0.000 HD
ENDBRANCH   3  32
TORSDOF 5
ENDMDL
MODEL 5
REMARK VINA RESULT:    -7.789      1.947      7.205
REMARK INTER + INTRA:         -11.184
REMARK INTER:                 -10.355
REMARK INTRA:                  -0.830
REMARK UNBOUND:                -1.346
REMARK  Name = 
REMARK  12 active torsions:
REMARK  status: ('A' for Active; 'I' for Inactive)
REMARK    1  A    between atoms: C_1  and  O_2
REMARK    2  A    between atoms: O_2  and  C_3
REMARK    3  A    between atoms: C_5  and  O_6
REMARK    4  A    between atoms: C_7  and  C_17
REMARK    5  A    between atoms: C_10  and  C_11
REMARK    6  A    between atoms: N_12  and  C_13
REMARK    7  A    between atoms: C_14  and  C_16
REMARK    8  A    between atoms: C_20  and  O_30
REMARK    9  A    between atoms: C_24  and  C_25
REMARK   10  A    between atoms: C_27  and  O_28
REMARK   11  A    between atoms: O_28  and  C_29
REMARK   12  A    between atoms: O_30  and  C_31
REMARK                            x       y       z     vdW  Elec       q    Type
REMARK                         _______ _______ _______ _____ _____    ______ ____
ROOT
ATOM      1  C   UNL     1      87.074  48.710  42.579  0.00  0.00    +0.129 A 
ATOM      2  C   UNL     1      86.031  48.717  43.520  0.00  0.00    +0.022 A 
ATOM      3  C   UNL     1      85.727  49.865  44.246  0.00  0.00    +0.128 A 
ATOM      4  C   UNL     1      86.459  51.049  44.027  0.00  0.00    +0.028 A 
ATOM      5  C   UNL     1      87.501  51.063  43.069  0.00  0.00    -0.027 A 
ATOM      6  C   UNL     1      87.839  49.879  42.374  0.00  0.00    +0.015 A 
ATOM      7  C   UNL     1      89.022  49.845  41.399  0.00  0.00    +0.037 C 
ATOM      8  C   UNL     1      90.162  49.036  42.038  0.00  0.00    -0.045 C 
ATOM      9  N   UNL     1      89.560  51.184  41.025  0.00  0.00    -0.296 N 
ATOM     10  C   UNL     1      90.129  51.203  39.665  0.00  0.00    -0.012 C 
ATOM     11  C   UNL     1      88.676  52.341  41.284  0.00  0.00    +0.012 C 
ATOM     12  C   UNL     1      88.258  52.327  42.754  0.00  0.00    -0.011 C 
ATOM     13  C   UNL     1      87.455  52.404  40.338  0.00  0.00    -0.049 C 
ATOM     14  H   UNL     1      90.323  51.321  41.688  0.00  0.00    +0.000 HD
ENDROOT
BRANCH   4  15
ATOM     15  C   UNL     1      86.106  52.276  44.781  0.00  0.00    -0.006 A 
ATOM     16  C   UNL     1      86.446  52.335  46.133  0.00  0.00    -0.050 A 
ATOM     17  C   UNL     1      86.140  53.457  46.893  0.00  0.00    -0.019 A 
ATOM     18  C   UNL     1      85.482  54.561  46.319  0.00  0.00    +0.131 A 
ATOM     19  C   UNL     1      85.127  54.527  44.943  0.00  0.00    +0.066 A 
ATOM     20  C   UNL     1      85.444  53.369  44.172  0.00  0.00    -0.003 A 
ATOM     21  C   UNL     1      85.104  53.331  42.805  0.00  0.00    -0.050 A 
ATOM     22  C   UNL     1      84.477  54.415  42.191  0.00  0.00    -0.046 A 
ATOM     23  C   UNL     1      84.103  54.339  40.739  0.00  0.00    -0.040 C 
ATOM     24  C   UNL     1      84.141  55.539  42.948  0.00  0.00    -0.016 A 
ATOM     25  C   UNL     1      84.461  55.616  44.317  0.00  0.00    +0.132 A 
BRANCH  25  26
ATOM     26  O   UNL     1      84.125  56.757  45.067  0.00  0.00    -0.494 OA
ATOM     27  C   UNL     1      84.680  58.056  44.876  0.00  0.00    +0.079 C 
ENDBRANCH  25  26
BRANCH  18  28
ATOM     28  O   UNL     1      85.179  55.692  47.096  0.00  0.00    -0.494 OA
ATOM     29  C   UNL     1      84.194  55.742  48.122  0.00  0.00    +0.079 C 
ENDBRANCH  18  28
ENDBRANCH   4  15
BRANCH   1  31
ATOM     30  C   UNL     1      87.661  46.280  42.379  0.00  0.00    +0.079 C 
ATOM     31  O   UNL     1      87.373  47.560  41.827  0.00  0.00    -0.495 OA
ENDBRANCH   1  31
BRANCH   3  32
ATOM     32  O   UNL     1      84.682  49.804  45.172  0.00  0.00    -0.506 OA
ATOM     33  H   UNL     1      84.222  48.999  45.305  0.00  0.00    +0.000 HD
ENDBRANCH   3  32
TORSDOF 5
ENDMDL
MODEL 6
REMARK VINA RESULT:    -7.631      2.192      3.625
REMARK INTER + INTRA:         -10.985
REMARK INTER:                 -10.436
REMARK INTRA:                  -0.549
REMARK UNBOUND:                -1.346
REMARK  Name = 
REMARK  12 active torsions:
REMARK  status: ('A' for Active; 'I' for Inactive)
REMARK    1  A    between atoms: C_1  and  O_2
REMARK    2  A    between atoms: O_2  and  C_3
REMARK    3  A    between atoms: C_5  and  O_6
REMARK    4  A    between atoms: C_7  and  C_17
REMARK    5  A    between atoms: C_10  and  C_11
REMARK    6  A    between atoms: N_12  and  C_13
REMARK    7  A    between atoms: C_14  and  C_16
REMARK    8  A    between atoms: C_20  and  O_30
REMARK    9  A    between atoms: C_24  and  C_25
REMARK   10  A    between atoms: C_27  and  O_28
REMARK   11  A    between atoms: O_28  and  C_29
REMARK   12  A    between atoms: O_30  and  C_31
REMARK                            x       y       z     vdW  Elec       q    Type
REMARK                         _______ _______ _______ _____ _____    ______ ____
ROOT
ATOM      1  C   UNL     1      84.619  55.148  42.966  0.00  0.00    +0.129 A 
ATOM      2  C   UNL     1      83.921  54.365  42.031  0.00  0.00    +0.022 A 
ATOM      3  C   UNL     1      83.703  53.008  42.252  0.00  0.00    +0.128 A 
ATOM      4  C   UNL     1      84.170  52.405  43.437  0.00  0.00    +0.028 A 
ATOM      5  C   UNL     1      84.858  53.185  44.397  0.00  0.00    -0.027 A 
ATOM      6  C   UNL     1      85.122  54.550  44.142  0.00  0.00    +0.015 A 
ATOM      7  C   UNL     1      85.945  55.392  45.123  0.00  0.00    +0.037 C 
ATOM      8  C   UNL     1      87.323  55.668  44.500  0.00  0.00    -0.045 C 
ATOM      9  N   UNL     1      86.161  54.762  46.457  0.00  0.00    -0.296 N 
ATOM     10  C   UNL     1      86.281  55.758  47.539  0.00  0.00    -0.012 C 
ATOM     11  C   UNL     1      85.253  53.650  46.812  0.00  0.00    +0.012 C 
ATOM     12  C   UNL     1      85.308  52.593  45.708  0.00  0.00    -0.011 C 
ATOM     13  C   UNL     1      83.804  54.109  47.097  0.00  0.00    -0.049 C 
ATOM     14  H   UNL     1      87.064  54.300  46.353  0.00  0.00    +0.000 HD
ENDROOT
BRANCH   4  15
ATOM     15  C   UNL     1      83.903  50.966  43.678  0.00  0.00    -0.006 A 
ATOM     16  C   UNL     1      82.608  50.591  44.034  0.00  0.00    -0.050 A 
ATOM     17  C   UNL     1      82.297  49.258  44.274  0.00  0.00    -0.019 A 
ATOM     18  C   UNL     1      83.278  48.256  44.163  0.00  0.00    +0.131 A 
ATOM     19  C   UNL     1      84.605  48.611  43.799  0.00  0.00    +0.066 A 
ATOM     20  C   UNL     1      84.914  49.983  43.556  0.00  0.00    -0.003 A 
ATOM     21  C   UNL     1      86.225  50.343  43.186  0.00  0.00    -0.050 A 
ATOM     22  C   UNL     1      87.220  49.378  43.037  0.00  0.00    -0.046 A 
ATOM     23  C   UNL     1      88.615  49.791  42.665  0.00  0.00    -0.040 C 
ATOM     24  C   UNL     1      86.929  48.037  43.299  0.00  0.00    -0.016 A 
ATOM     25  C   UNL     1      85.632  47.636  43.674  0.00  0.00    +0.132 A 
BRANCH  25  26
ATOM     26  O   UNL     1      85.348  46.283  43.927  0.00  0.00    -0.494 OA
ATOM     27  C   UNL     1      85.667  45.201  43.056  0.00  0.00    +0.079 C 
ENDBRANCH  25  26
BRANCH  18  28
ATOM     28  O   UNL     1      82.952  46.910  44.406  0.00  0.00    -0.494 OA
ATOM     29  C   UNL     1      81.638  46.363  44.363  0.00  0.00    +0.079 C 
ENDBRANCH  18  28
ENDBRANCH   4  15
BRANCH   1  31
ATOM     30  C   UNL     1      84.373  57.553  43.634  0.00  0.00    +0.079 C 
ATOM     31  O   UNL     1      84.824  56.524  42.760  0.00  0.00    -0.495 OA
ENDBRANCH   1  31
BRANCH   3  32
ATOM     32  O   UNL     1      83.008  52.284  41.280  0.00  0.00    -0.506 OA
ATOM     33  H   UNL     1      82.804  51.381  41.426  0.00  0.00    +0.000 HD
ENDBRANCH   3  32
TORSDOF 5
ENDMDL
MODEL 7
REMARK VINA RESULT:    -7.580      2.276      7.479
REMARK INTER + INTRA:         -10.920
REMARK INTER:                  -9.807
REMARK INTRA:                  -1.113
REMARK UNBOUND:                -1.346
REMARK  Name = 
REMARK  12 active torsions:
REMARK  status: ('A' for Active; 'I' for Inactive)
REMARK    1  A    between atoms: C_1  and  O_2
REMARK    2  A    between atoms: O_2  and  C_3
REMARK    3  A    between atoms: C_5  and  O_6
REMARK    4  A    between atoms: C_7  and  C_17
REMARK    5  A    between atoms: C_10  and  C_11
REMARK    6  A    between atoms: N_12  and  C_13
REMARK    7  A    between atoms: C_14  and  C_16
REMARK    8  A    between atoms: C_20  and  O_30
REMARK    9  A    between atoms: C_24  and  C_25
REMARK   10  A    between atoms: C_27  and  O_28
REMARK   11  A    between atoms: O_28  and  C_29
REMARK   12  A    between atoms: O_30  and  C_31
REMARK                            x       y       z     vdW  Elec       q    Type
REMARK                         _______ _______ _______ _____ _____    ______ ____
ROOT
ATOM      1  C   UNL     1      86.162  48.176  43.530  0.00  0.00    +0.129 A 
ATOM      2  C   UNL     1      84.890  48.580  43.968  0.00  0.00    +0.022 A 
ATOM      3  C   UNL     1      84.600  49.924  44.190  0.00  0.00    +0.128 A 
ATOM      4  C   UNL     1      85.587  50.903  43.957  0.00  0.00    +0.028 A 
ATOM      5  C   UNL     1      86.868  50.512  43.499  0.00  0.00    -0.027 A 
ATOM      6  C   UNL     1      87.171  49.142  43.326  0.00  0.00    +0.015 A 
ATOM      7  C   UNL     1      88.578  48.689  42.920  0.00  0.00    +0.037 C 
ATOM      8  C   UNL     1      89.253  48.030  44.133  0.00  0.00    -0.045 C 
ATOM      9  N   UNL     1      89.469  49.782  42.435  0.00  0.00    -0.296 N 
ATOM     10  C   UNL     1      90.450  49.309  41.440  0.00  0.00    -0.012 C 
ATOM     11  C   UNL     1      88.804  51.035  42.020  0.00  0.00    +0.012 C 
ATOM     12  C   UNL     1      87.926  51.534  43.169  0.00  0.00    -0.011 C 
ATOM     13  C   UNL     1      88.005  50.900  40.703  0.00  0.00    -0.049 C 
ATOM     14  H   UNL     1      89.980  50.055  43.274  0.00  0.00    +0.000 HD
ENDROOT
BRANCH   4  15
ATOM     15  C   UNL     1      85.259  52.334  44.164  0.00  0.00    -0.006 A 
ATOM     16  C   UNL     1      84.888  53.088  43.051  0.00  0.00    -0.050 A 
ATOM     17  C   UNL     1      84.571  54.435  43.181  0.00  0.00    -0.019 A 
ATOM     18  C   UNL     1      84.613  55.070  44.435  0.00  0.00    +0.131 A 
ATOM     19  C   UNL     1      84.986  54.323  45.586  0.00  0.00    +0.066 A 
ATOM     20  C   UNL     1      85.311  52.941  45.442  0.00  0.00    -0.003 A 
ATOM     21  C   UNL     1      85.672  52.191  46.579  0.00  0.00    -0.050 A 
ATOM     22  C   UNL     1      85.700  52.774  47.845  0.00  0.00    -0.046 A 
ATOM     23  C   UNL     1      86.112  51.958  49.036  0.00  0.00    -0.040 C 
ATOM     24  C   UNL     1      85.407  54.132  47.987  0.00  0.00    -0.016 A 
ATOM     25  C   UNL     1      85.045  54.917  46.876  0.00  0.00    +0.132 A 
BRANCH  25  26
ATOM     26  O   UNL     1      84.744  56.282  47.033  0.00  0.00    -0.494 OA
ATOM     27  C   UNL     1      83.563  56.796  47.642  0.00  0.00    +0.079 C 
ENDBRANCH  25  26
BRANCH  18  28
ATOM     28  O   UNL     1      84.288  56.432  44.557  0.00  0.00    -0.494 OA
ATOM     29  C   UNL     1      84.974  57.499  43.911  0.00  0.00    +0.079 C 
ENDBRANCH  18  28
ENDBRANCH   4  15
BRANCH   1  31
ATOM     30  C   UNL     1      86.046  45.739  44.112  0.00  0.00    +0.079 C 
ATOM     31  O   UNL     1      86.455  46.823  43.284  0.00  0.00    -0.495 OA
ENDBRANCH   1  31
BRANCH   3  32
ATOM     32  O   UNL     1      83.318  50.260  44.630  0.00  0.00    -0.506 OA
ATOM     33  H   UNL     1      82.579  49.758  44.345  0.00  0.00    +0.000 HD
ENDBRANCH   3  32
TORSDOF 5
ENDMDL
MODEL 8
REMARK VINA RESULT:    -7.444      1.135      3.072
REMARK INTER + INTRA:         -10.748
REMARK INTER:                  -9.559
REMARK INTRA:                  -1.189
REMARK UNBOUND:                -1.346
REMARK  Name = 
REMARK  12 active torsions:
REMARK  status: ('A' for Active; 'I' for Inactive)
REMARK    1  A    between atoms: C_1  and  O_2
REMARK    2  A    between atoms: O_2  and  C_3
REMARK    3  A    between atoms: C_5  and  O_6
REMARK    4  A    between atoms: C_7  and  C_17
REMARK    5  A    between atoms: C_10  and  C_11
REMARK    6  A    between atoms: N_12  and  C_13
REMARK    7  A    between atoms: C_14  and  C_16
REMARK    8  A    between atoms: C_20  and  O_30
REMARK    9  A    between atoms: C_24  and  C_25
REMARK   10  A    between atoms: C_27  and  O_28
REMARK   11  A    between atoms: O_28  and  C_29
REMARK   12  A    between atoms: O_30  and  C_31
REMARK                            x       y       z     vdW  Elec       q    Type
REMARK                         _______ _______ _______ _____ _____    ______ ____
ROOT
ATOM      1  C   UNL     1      85.093  54.252  44.835  0.00  0.00    +0.129 A 
ATOM      2  C   UNL     1      85.537  53.378  45.840  0.00  0.00    +0.022 A 
ATOM      3  C   UNL     1      85.780  52.034  45.567  0.00  0.00    +0.128 A 
ATOM      4  C   UNL     1      85.599  51.539  44.261  0.00  0.00    +0.028 A 
ATOM      5  C   UNL     1      85.169  52.412  43.233  0.00  0.00    -0.027 A 
ATOM      6  C   UNL     1      84.874  53.763  43.528  0.00  0.00    +0.015 A 
ATOM      7  C   UNL     1      84.320  54.704  42.453  0.00  0.00    +0.037 C 
ATOM      8  C   UNL     1      82.838  54.979  42.755  0.00  0.00    -0.045 C 
ATOM      9  N   UNL     1      84.417  54.184  41.059  0.00  0.00    -0.296 N 
ATOM     10  C   UNL     1      84.573  55.263  40.065  0.00  0.00    -0.012 C 
ATOM     11  C   UNL     1      85.366  53.072  40.839  0.00  0.00    +0.012 C 
ATOM     12  C   UNL     1      85.034  51.937  41.809  0.00  0.00    -0.011 C 
ATOM     13  C   UNL     1      86.849  53.501  40.940  0.00  0.00    -0.049 C 
ATOM     14  H   UNL     1      83.508  53.747  40.910  0.00  0.00    +0.000 HD
ENDROOT
BRANCH   4  15
ATOM     15  C   UNL     1      85.893  50.114  43.973  0.00  0.00    -0.006 A 
ATOM     16  C   UNL     1      87.223  49.749  43.765  0.00  0.00    -0.050 A 
ATOM     17  C   UNL     1      87.561  48.430  43.489  0.00  0.00    -0.019 A 
ATOM     18  C   UNL     1      86.573  47.431  43.414  0.00  0.00    +0.131 A 
ATOM     19  C   UNL     1      85.211  47.776  43.624  0.00  0.00    +0.066 A 
ATOM     20  C   UNL     1      84.874  49.134  43.906  0.00  0.00    -0.003 A 
ATOM     21  C   UNL     1      83.526  49.483  44.124  0.00  0.00    -0.050 A 
ATOM     22  C   UNL     1      82.519  48.520  44.087  0.00  0.00    -0.046 A 
ATOM     23  C   UNL     1      81.089  48.923  44.300  0.00  0.00    -0.040 C 
ATOM     24  C   UNL     1      82.841  47.194  43.787  0.00  0.00    -0.016 A 
ATOM     25  C   UNL     1      84.175  46.805  43.559  0.00  0.00    +0.132 A 
BRANCH  25  26
ATOM     26  O   UNL     1      84.488  45.465  43.266  0.00  0.00    -0.494 OA
ATOM     27  C   UNL     1      84.373  44.378  44.180  0.00  0.00    +0.079 C 
ENDBRANCH  25  26
BRANCH  18  28
ATOM     28  O   UNL     1      86.926  46.099  43.137  0.00  0.00    -0.494 OA
ATOM     29  C   UNL     1      88.054  45.692  42.370  0.00  0.00    +0.079 C 
ENDBRANCH  18  28
ENDBRANCH   4  15
BRANCH   1  31
ATOM     30  C   UNL     1      84.398  56.136  46.338  0.00  0.00    +0.079 C 
ATOM     31  O   UNL     1      84.866  55.615  45.098  0.00  0.00    -0.495 OA
ENDBRANCH   1  31
BRANCH   3  32
ATOM     32  O   UNL     1      86.214  51.215  46.613  0.00  0.00    -0.506 OA
ATOM     33  H   UNL     1      86.908  50.602  46.470  0.00  0.00    +0.000 HD
ENDBRANCH   3  32
TORSDOF 5
ENDMDL
MODEL 9
REMARK VINA RESULT:    -7.073      1.415      3.066
REMARK INTER + INTRA:         -10.280
REMARK INTER:                  -8.933
REMARK INTRA:                  -1.346
REMARK UNBOUND:                -1.346
REMARK  Name = 
REMARK  12 active torsions:
REMARK  status: ('A' for Active; 'I' for Inactive)
REMARK    1  A    between atoms: C_1  and  O_2
REMARK    2  A    between atoms: O_2  and  C_3
REMARK    3  A    between atoms: C_5  and  O_6
REMARK    4  A    between atoms: C_7  and  C_17
REMARK    5  A    between atoms: C_10  and  C_11
REMARK    6  A    between atoms: N_12  and  C_13
REMARK    7  A    between atoms: C_14  and  C_16
REMARK    8  A    between atoms: C_20  and  O_30
REMARK    9  A    between atoms: C_24  and  C_25
REMARK   10  A    between atoms: C_27  and  O_28
REMARK   11  A    between atoms: O_28  and  C_29
REMARK   12  A    between atoms: O_30  and  C_31
REMARK                            x       y       z     vdW  Elec       q    Type
REMARK                         _______ _______ _______ _____ _____    ______ ____
ROOT
ATOM      1  C   UNL     1      85.009  52.784  45.429  0.00  0.00    +0.129 A 
ATOM      2  C   UNL     1      85.584  51.837  46.292  0.00  0.00    +0.022 A 
ATOM      3  C   UNL     1      86.262  50.728  45.793  0.00  0.00    +0.128 A 
ATOM      4  C   UNL     1      86.396  50.555  44.401  0.00  0.00    +0.028 A 
ATOM      5  C   UNL     1      85.838  51.510  43.518  0.00  0.00    -0.027 A 
ATOM      6  C   UNL     1      85.105  52.605  44.031  0.00  0.00    +0.015 A 
ATOM      7  C   UNL     1      84.413  53.601  43.094  0.00  0.00    +0.037 C 
ATOM      8  C   UNL     1      82.895  53.372  43.165  0.00  0.00    -0.045 C 
ATOM      9  N   UNL     1      84.827  53.504  41.665  0.00  0.00    -0.296 N 
ATOM     10  C   UNL     1      84.753  54.801  40.967  0.00  0.00    -0.012 C 
ATOM     11  C   UNL     1      86.094  52.790  41.397  0.00  0.00    +0.012 C 
ATOM     12  C   UNL     1      86.022  51.398  42.026  0.00  0.00    -0.011 C 
ATOM     13  C   UNL     1      87.347  53.568  41.861  0.00  0.00    -0.049 C 
ATOM     14  H   UNL     1      84.122  52.888  41.260  0.00  0.00    +0.000 HD
ENDROOT
BRANCH   4  15
ATOM     15  C   UNL     1      87.150  49.389  43.880  0.00  0.00    -0.006 A 
ATOM     16  C   UNL     1      88.521  49.537  43.668  0.00  0.00    -0.050 A 
ATOM     17  C   UNL     1      89.281  48.482  43.180  0.00  0.00    -0.019 A 
ATOM     18  C   UNL     1      88.689  47.239  42.888  0.00  0.00    +0.131 A 
ATOM     19  C   UNL     1      87.294  47.061  43.097  0.00  0.00    +0.066 A 
ATOM     20  C   UNL     1      86.522  48.152  43.598  0.00  0.00    -0.003 A 
ATOM     21  C   UNL     1      85.141  47.982  43.816  0.00  0.00    -0.050 A 
ATOM     22  C   UNL     1      84.520  46.759  43.567  0.00  0.00    -0.046 A 
ATOM     23  C   UNL     1      83.042  46.611  43.785  0.00  0.00    -0.040 C 
ATOM     24  C   UNL     1      85.266  45.696  43.052  0.00  0.00    -0.016 A 
ATOM     25  C   UNL     1      86.648  45.826  42.817  0.00  0.00    +0.132 A 
BRANCH  25  26
ATOM     26  O   UNL     1      87.391  44.747  42.307  0.00  0.00    -0.494 OA
ATOM     27  C   UNL     1      87.265  43.392  42.730  0.00  0.00    +0.079 C 
ENDBRANCH  25  26
BRANCH  18  28
ATOM     28  O   UNL     1      89.467  46.177  42.396  0.00  0.00    -0.494 OA
ATOM     29  C   UNL     1      90.585  46.314  41.525  0.00  0.00    +0.079 C 
ENDBRANCH  18  28
ENDBRANCH   4  15
BRANCH   1  31
ATOM     30  C   UNL     1      84.973  55.013  46.577  0.00  0.00    +0.079 C 
ATOM     31  O   UNL     1      84.340  53.916  45.926  0.00  0.00    -0.495 OA
ENDBRANCH   1  31
BRANCH   3  32
ATOM     32  O   UNL     1      86.806  49.820  46.705  0.00  0.00    -0.506 OA
ATOM     33  H   UNL     1      87.701  49.902  46.970  0.00  0.00    +0.000 HD
ENDBRANCH   3  32
TORSDOF 5
ENDMDL
