MODEL 1
REMARK VINA RESULT:    -9.417      0.000      0.000
REMARK INTER + INTRA:         -12.359
REMARK INTER:                 -11.495
REMARK INTRA:                  -0.864
REMARK UNBOUND:                -0.464
REMARK  Name = 
REMARK  11 active torsions:
REMARK  status: ('A' for Active; 'I' for Inactive)
REMARK    1  A    between atoms: C_1  and  O_2
REMARK    2  A    between atoms: O_2  and  C_3
REMARK    3  A    between atoms: C_5  and  C_6
REMARK    4  A    between atoms: C_8  and  C_30
REMARK    5  A    between atoms: C_12  and  O_29
REMARK    6  A    between atoms: C_13  and  C_14
REMARK    7  A    between atoms: C_15  and  C_16
REMARK    8  A    between atoms: C_18  and  O_27
REMARK    9  A    between atoms: C_24  and  O_25
REMARK   10  A    between atoms: O_25  and  C_26
REMARK   11  A    between atoms: O_27  and  C_28
REMARK                            x       y       z     vdW  Elec       q    Type
REMARK                         _______ _______ _______ _____ _____    ______ ____
ROOT
ATOM      1  C   UNL     1      86.076  48.454  43.977  0.00  0.00    +0.136 A 
ATOM      2  C   UNL     1      86.321  47.143  43.498  0.00  0.00    +0.015 A 
ATOM      3  C   UNL     1      85.276  46.037  43.703  0.00  0.00    +0.034 C 
ATOM      4  C   UNL     1      83.998  46.360  42.915  0.00  0.00    -0.045 C 
ATOM      5  N   UNL     1      85.722  44.694  43.272  0.00  0.00    -0.307 N 
ATOM      6  C   UNL     1      87.163  44.472  43.425  0.00  0.00    +0.009 C 
ATOM      7  C   UNL     1      87.905  45.442  42.505  0.00  0.00    -0.012 C 
ATOM      8  C   UNL     1      87.550  46.853  42.872  0.00  0.00    -0.034 A 
ATOM      9  C   UNL     1      88.462  47.876  42.606  0.00  0.00    -0.016 A 
ATOM     10  C   UNL     1      88.214  49.180  43.024  0.00  0.00    +0.128 A 
ATOM     11  C   UNL     1      87.026  49.484  43.724  0.00  0.00    +0.066 A 
ATOM     12  C   UNL     1      87.515  43.026  43.060  0.00  0.00    -0.049 C 
ATOM     13  H   UNL     1      85.481  44.575  42.288  0.00  0.00    +0.000 HD
ATOM     14  H   UNL     1      85.251  44.017  43.873  0.00  0.00    +0.000 HD
ENDROOT
BRANCH  11  15
ATOM     15  C   UNL     1      86.844  50.860  44.252  0.00  0.00    +0.000 A 
ATOM     16  C   UNL     1      87.189  51.139  45.593  0.00  0.00    -0.038 A 
ATOM     17  C   UNL     1      87.713  50.061  46.511  0.00  0.00    -0.039 C 
ATOM     18  C   UNL     1      86.992  52.423  46.105  0.00  0.00    -0.016 A 
ATOM     19  C   UNL     1      86.475  53.460  45.311  0.00  0.00    +0.132 A 
ATOM     20  C   UNL     1      86.121  53.201  43.962  0.00  0.00    +0.066 A 
ATOM     21  C   UNL     1      86.298  51.886  43.436  0.00  0.00    -0.003 A 
ATOM     22  C   UNL     1      85.929  51.624  42.101  0.00  0.00    -0.053 A 
ATOM     23  C   UNL     1      85.407  52.628  41.295  0.00  0.00    -0.058 A 
ATOM     24  C   UNL     1      85.238  53.913  41.796  0.00  0.00    -0.019 A 
ATOM     25  C   UNL     1      85.588  54.220  43.123  0.00  0.00    +0.131 A 
BRANCH  25  26
ATOM     26  O   UNL     1      85.411  55.523  43.623  0.00  0.00    -0.494 OA
ATOM     27  C   UNL     1      84.429  56.448  43.170  0.00  0.00    +0.079 C 
ENDBRANCH  25  26
BRANCH  19  28
ATOM     28  O   UNL     1      86.301  54.749  45.847  0.00  0.00    -0.494 OA
ATOM     29  C   UNL     1      86.042  55.043  47.216  0.00  0.00    +0.079 C 
ENDBRANCH  19  28
ENDBRANCH  11  15
BRANCH   1  31
ATOM     30  C   UNL     1      83.764  49.406  44.348  0.00  0.00    +0.079 C 
ATOM     31  O   UNL     1      84.909  48.656  44.740  0.00  0.00    -0.494 OA
ENDBRANCH   1  31
BRANCH  10  32
ATOM     32  O   UNL     1      89.186  50.148  42.757  0.00  0.00    -0.506 OA
ATOM     33  H   UNL     1      90.015  50.113  43.193  0.00  0.00    +0.000 HD
ENDBRANCH  10  32
TORSDOF 5
ENDMDL
MODEL 2
REMARK VINA RESULT:    -9.111      1.197      3.077
REMARK INTER + INTRA:         -11.972
REMARK INTER:                 -11.204
REMARK INTRA:                  -0.768
REMARK UNBOUND:                -0.464
REMARK  Name = 
REMARK  11 active torsions:
REMARK  status: ('A' for Active; 'I' for Inactive)
REMARK    1  A    between atoms: C_1  and  O_2
REMARK    2  A    between atoms: O_2  and  C_3
REMARK    3  A    between atoms: C_5  and  C_6
REMARK    4  A    between atoms: C_8  and  C_30
REMARK    5  A    between atoms: C_12  and  O_29
REMARK    6  A    between atoms: C_13  and  C_14
REMARK    7  A    between atoms: C_15  and  C_16
REMARK    8  A    between atoms: C_18  and  O_27
REMARK    9  A    between atoms: C_24  and  O_25
REMARK   10  A    between atoms: O_25  and  C_26
REMARK   11  A    between atoms: O_27  and  C_28
REMARK                            x       y       z     vdW  Elec       q    Type
REMARK                         _______ _______ _______ _____ _____    ______ ____
ROOT
ATOM      1  C   UNL     1      85.630  48.318  43.987  0.00  0.00    +0.136 A 
ATOM      2  C   UNL     1      86.068  47.064  43.495  0.00  0.00    +0.015 A 
ATOM      3  C   UNL     1      85.133  45.845  43.544  0.00  0.00    +0.034 C 
ATOM      4  C   UNL     1      83.922  46.067  42.627  0.00  0.00    -0.045 C 
ATOM      5  N   UNL     1      85.768  44.577  43.122  0.00  0.00    -0.307 N 
ATOM      6  C   UNL     1      87.200  44.501  43.430  0.00  0.00    +0.009 C 
ATOM      7  C   UNL     1      87.928  45.585  42.633  0.00  0.00    -0.012 C 
ATOM      8  C   UNL     1      87.382  46.932  43.004  0.00  0.00    -0.034 A 
ATOM      9  C   UNL     1      88.200  48.056  42.877  0.00  0.00    -0.016 A 
ATOM     10  C   UNL     1      87.767  49.306  43.307  0.00  0.00    +0.128 A 
ATOM     11  C   UNL     1      86.483  49.452  43.877  0.00  0.00    +0.066 A 
ATOM     12  C   UNL     1      87.745  43.118  43.060  0.00  0.00    -0.049 C 
ATOM     13  H   UNL     1      85.651  44.478  42.113  0.00  0.00    +0.000 HD
ATOM     14  H   UNL     1      85.312  43.829  43.643  0.00  0.00    +0.000 HD
ENDROOT
BRANCH  11  15
ATOM     15  C   UNL     1      86.096  50.777  44.426  0.00  0.00    +0.000 A 
ATOM     16  C   UNL     1      85.605  51.772  43.554  0.00  0.00    -0.038 A 
ATOM     17  C   UNL     1      85.490  51.530  42.068  0.00  0.00    -0.039 C 
ATOM     18  C   UNL     1      85.268  53.030  44.060  0.00  0.00    -0.016 A 
ATOM     19  C   UNL     1      85.386  53.329  45.427  0.00  0.00    +0.132 A 
ATOM     20  C   UNL     1      85.878  52.343  46.320  0.00  0.00    +0.066 A 
ATOM     21  C   UNL     1      86.246  51.062  45.809  0.00  0.00    -0.003 A 
ATOM     22  C   UNL     1      86.753  50.088  46.694  0.00  0.00    -0.053 A 
ATOM     23  C   UNL     1      86.889  50.359  48.051  0.00  0.00    -0.058 A 
ATOM     24  C   UNL     1      86.527  51.600  48.558  0.00  0.00    -0.019 A 
ATOM     25  C   UNL     1      86.021  52.604  47.713  0.00  0.00    +0.131 A 
BRANCH  25  26
ATOM     26  O   UNL     1      85.658  53.859  48.235  0.00  0.00    -0.494 OA
ATOM     27  C   UNL     1      84.573  54.092  49.126  0.00  0.00    +0.079 C 
ENDBRANCH  25  26
BRANCH  19  28
ATOM     28  O   UNL     1      85.025  54.598  45.913  0.00  0.00    -0.494 OA
ATOM     29  C   UNL     1      85.370  55.840  45.308  0.00  0.00    +0.079 C 
ENDBRANCH  19  28
ENDBRANCH  11  15
BRANCH   1  31
ATOM     30  C   UNL     1      83.221  49.065  44.159  0.00  0.00    +0.079 C 
ATOM     31  O   UNL     1      84.371  48.362  44.618  0.00  0.00    -0.494 OA
ENDBRANCH   1  31
BRANCH  10  32
ATOM     32  O   UNL     1      88.651  50.383  43.184  0.00  0.00    -0.506 OA
ATOM     33  H   UNL     1      88.946  50.651  42.336  0.00  0.00    +0.000 HD
ENDBRANCH  10  32
TORSDOF 5
ENDMDL
MODEL 3
REMARK VINA RESULT:    -8.985      2.903      7.757
REMARK INTER + INTRA:         -11.813
REMARK INTER:                 -10.770
REMARK INTRA:                  -1.043
REMARK UNBOUND:                -0.464
REMARK  Name = 
REMARK  11 active torsions:
REMARK  status: ('A' for Active; 'I' for Inactive)
REMARK    1  A    between atoms: C_1  and  O_2
REMARK    2  A    between atoms: O_2  and  C_3
REMARK    3  A    between atoms: C_5  and  C_6
REMARK    4  A    between atoms: C_8  and  C_30
REMARK    5  A    between atoms: C_12  and  O_29
REMARK    6  A    between atoms: C_13  and  C_14
REMARK    7  A    between atoms: C_15  and  C_16
REMARK    8  A    between atoms: C_18  and  O_27
REMARK    9  A    between atoms: C_24  and  O_25
REMARK   10  A    between atoms: O_25  and  C_26
REMARK   11  A    between atoms: O_27  and  C_28
REMARK                            x       y       z     vdW  Elec       q    Type
REMARK                         _______ _______ _______ _____ _____    ______ ____
ROOT
ATOM      1  C   UNL     1      85.285  52.805  43.356  0.00  0.00    +0.136 A 
ATOM      2  C   UNL     1      85.101  54.153  43.751  0.00  0.00    +0.015 A 
ATOM      3  C   UNL     1      84.704  55.215  42.715  0.00  0.00    +0.034 C 
ATOM      4  C   UNL     1      83.303  54.921  42.162  0.00  0.00    -0.045 C 
ATOM      5  N   UNL     1      84.679  56.597  43.243  0.00  0.00    -0.307 N 
ATOM      6  C   UNL     1      85.659  56.842  44.306  0.00  0.00    +0.009 C 
ATOM      7  C   UNL     1      85.307  55.961  45.505  0.00  0.00    -0.012 C 
ATOM      8  C   UNL     1      85.331  54.519  45.093  0.00  0.00    -0.034 A 
ATOM      9  C   UNL     1      85.604  53.542  46.050  0.00  0.00    -0.016 A 
ATOM     10  C   UNL     1      85.736  52.205  45.689  0.00  0.00    +0.128 A 
ATOM     11  C   UNL     1      85.590  51.820  44.338  0.00  0.00    +0.066 A 
ATOM     12  C   UNL     1      85.637  58.320  44.712  0.00  0.00    -0.049 C 
ATOM     13  H   UNL     1      83.748  56.783  43.616  0.00  0.00    +0.000 HD
ATOM     14  H   UNL     1      84.920  57.215  42.468  0.00  0.00    +0.000 HD
ENDROOT
BRANCH  11  15
ATOM     15  C   UNL     1      85.848  50.404  43.970  0.00  0.00    +0.000 A 
ATOM     16  C   UNL     1      87.160  50.002  43.640  0.00  0.00    -0.038 A 
ATOM     17  C   UNL     1      88.305  50.986  43.626  0.00  0.00    -0.039 C 
ATOM     18  C   UNL     1      87.403  48.680  43.263  0.00  0.00    -0.016 A 
ATOM     19  C   UNL     1      86.374  47.725  43.222  0.00  0.00    +0.132 A 
ATOM     20  C   UNL     1      85.048  48.109  43.548  0.00  0.00    +0.066 A 
ATOM     21  C   UNL     1      84.786  49.463  43.913  0.00  0.00    -0.003 A 
ATOM     22  C   UNL     1      83.464  49.849  44.220  0.00  0.00    -0.053 A 
ATOM     23  C   UNL     1      82.425  48.928  44.180  0.00  0.00    -0.058 A 
ATOM     24  C   UNL     1      82.672  47.606  43.833  0.00  0.00    -0.019 A 
ATOM     25  C   UNL     1      83.972  47.176  43.514  0.00  0.00    +0.131 A 
BRANCH  25  26
ATOM     26  O   UNL     1      84.214  45.836  43.162  0.00  0.00    -0.494 OA
ATOM     27  C   UNL     1      84.067  44.721  44.035  0.00  0.00    +0.079 C 
ENDBRANCH  25  26
BRANCH  19  28
ATOM     28  O   UNL     1      86.648  46.395  42.854  0.00  0.00    -0.494 OA
ATOM     29  C   UNL     1      87.922  45.897  42.457  0.00  0.00    +0.079 C 
ENDBRANCH  19  28
ENDBRANCH  11  15
BRANCH   1  31
ATOM     30  C   UNL     1      86.250  52.676  41.023  0.00  0.00    +0.079 C 
ATOM     31  O   UNL     1      85.207  52.518  41.979  0.00  0.00    -0.494 OA
ENDBRANCH   1  31
BRANCH  10  32
ATOM     32  O   UNL     1      86.046  51.283  46.693  0.00  0.00    -0.506 OA
ATOM     33  H   UNL     1      85.362  50.911  47.214  0.00  0.00    +0.000 HD
ENDBRANCH  10  32
TORSDOF 5
ENDMDL
MODEL 4
REMARK VINA RESULT:    -8.905      3.111      7.685
REMARK INTER + INTRA:         -11.712
REMARK INTER:                 -10.941
REMARK INTRA:                  -0.771
REMARK UNBOUND:                -0.464
REMARK  Name = 
REMARK  11 active torsions:
REMARK  status: ('A' for Active; 'I' for Inactive)
REMARK    1  A    between atoms: C_1  and  O_2
REMARK    2  A    between atoms: O_2  and  C_3
REMARK    3  A    between atoms: C_5  and  C_6
REMARK    4  A    between atoms: C_8  and  C_30
REMARK    5  A    between atoms: C_12  and  O_29
REMARK    6  A    between atoms: C_13  and  C_14
REMARK    7  A    between atoms: C_15  and  C_16
REMARK    8  A    between atoms: C_18  and  O_27
REMARK    9  A    between atoms: C_24  and  O_25
REMARK   10  A    between atoms: O_25  and  C_26
REMARK   11  A    between atoms: O_27  and  C_28
REMARK                            x       y       z     vdW  Elec       q    Type
REMARK                         _______ _______ _______ _____ _____    ______ ____
ROOT
ATOM      1  C   UNL     1      85.146  53.031  45.570  0.00  0.00    +0.136 A 
ATOM      2  C   UNL     1      85.351  54.432  45.526  0.00  0.00    +0.015 A 
ATOM      3  C   UNL     1      85.116  55.287  46.780  0.00  0.00    +0.034 C 
ATOM      4  C   UNL     1      86.130  54.919  47.872  0.00  0.00    -0.045 C 
ATOM      5  N   UNL     1      85.238  56.744  46.552  0.00  0.00    -0.307 N 
ATOM      6  C   UNL     1      84.836  57.168  45.207  0.00  0.00    +0.009 C 
ATOM      7  C   UNL     1      85.787  56.534  44.191  0.00  0.00    -0.012 C 
ATOM      8  C   UNL     1      85.726  55.039  44.311  0.00  0.00    -0.034 A 
ATOM      9  C   UNL     1      86.025  54.254  43.196  0.00  0.00    -0.016 A 
ATOM     10  C   UNL     1      85.879  52.871  43.237  0.00  0.00    +0.128 A 
ATOM     11  C   UNL     1      85.428  52.243  44.419  0.00  0.00    +0.066 A 
ATOM     12  C   UNL     1      84.890  58.695  45.098  0.00  0.00    -0.049 C 
ATOM     13  H   UNL     1      86.212  57.013  46.694  0.00  0.00    +0.000 HD
ATOM     14  H   UNL     1      84.607  57.202  47.209  0.00  0.00    +0.000 HD
ENDROOT
BRANCH  11  15
ATOM     15  C   UNL     1      85.178  50.778  44.394  0.00  0.00    +0.000 A 
ATOM     16  C   UNL     1      86.220  49.891  44.741  0.00  0.00    -0.038 A 
ATOM     17  C   UNL     1      87.593  50.397  45.111  0.00  0.00    -0.039 C 
ATOM     18  C   UNL     1      86.000  48.513  44.690  0.00  0.00    -0.016 A 
ATOM     19  C   UNL     1      84.754  47.980  44.319  0.00  0.00    +0.132 A 
ATOM     20  C   UNL     1      83.694  48.854  43.966  0.00  0.00    +0.066 A 
ATOM     21  C   UNL     1      83.916  50.264  43.994  0.00  0.00    -0.003 A 
ATOM     22  C   UNL     1      82.869  51.132  43.624  0.00  0.00    -0.053 A 
ATOM     23  C   UNL     1      81.628  50.633  43.245  0.00  0.00    -0.058 A 
ATOM     24  C   UNL     1      81.401  49.263  43.222  0.00  0.00    -0.019 A 
ATOM     25  C   UNL     1      82.417  48.358  43.578  0.00  0.00    +0.131 A 
BRANCH  25  26
ATOM     26  O   UNL     1      82.179  46.972  43.550  0.00  0.00    -0.494 OA
ATOM     27  C   UNL     1      81.099  46.314  44.202  0.00  0.00    +0.079 C 
ENDBRANCH  25  26
BRANCH  19  28
ATOM     28  O   UNL     1      84.554  46.588  44.291  0.00  0.00    -0.494 OA
ATOM     29  C   UNL     1      85.520  45.610  44.663  0.00  0.00    +0.079 C 
ENDBRANCH  19  28
ENDBRANCH  11  15
BRANCH   1  31
ATOM     30  C   UNL     1      85.347  51.862  47.803  0.00  0.00    +0.079 C 
ATOM     31  O   UNL     1      84.613  52.492  46.758  0.00  0.00    -0.494 OA
ENDBRANCH   1  31
BRANCH  10  32
ATOM     32  O   UNL     1      86.161  52.149  42.074  0.00  0.00    -0.506 OA
ATOM     33  H   UNL     1      86.911  51.588  42.042  0.00  0.00    +0.000 HD
ENDBRANCH  10  32
TORSDOF 5
ENDMDL
MODEL 5
REMARK VINA RESULT:    -8.832      2.902      7.757
REMARK INTER + INTRA:         -11.620
REMARK INTER:                 -10.537
REMARK INTRA:                  -1.083
REMARK UNBOUND:                -0.464
REMARK  Name = 
REMARK  11 active torsions:
REMARK  status: ('A' for Active; 'I' for Inactive)
REMARK    1  A    between atoms: C_1  and  O_2
REMARK    2  A    between atoms: O_2  and  C_3
REMARK    3  A    between atoms: C_5  and  C_6
REMARK    4  A    between atoms: C_8  and  C_30
REMARK    5  A    between atoms: C_12  and  O_29
REMARK    6  A    between atoms: C_13  and  C_14
REMARK    7  A    between atoms: C_15  and  C_16
REMARK    8  A    between atoms: C_18  and  O_27
REMARK    9  A    between atoms: C_24  and  O_25
REMARK   10  A    between atoms: O_25  and  C_26
REMARK   11  A    between atoms: O_27  and  C_28
REMARK                            x       y       z     vdW  Elec       q    Type
REMARK                         _______ _______ _______ _____ _____    ______ ____
ROOT
ATOM      1  C   UNL     1      85.013  52.820  43.381  0.00  0.00    +0.136 A 
ATOM      2  C   UNL     1      84.972  54.190  43.737  0.00  0.00    +0.015 A 
ATOM      3  C   UNL     1      84.601  55.250  42.690  0.00  0.00    +0.034 C 
ATOM      4  C   UNL     1      83.146  55.064  42.236  0.00  0.00    -0.045 C 
ATOM      5  N   UNL     1      84.729  56.645  43.167  0.00  0.00    -0.307 N 
ATOM      6  C   UNL     1      85.794  56.835  44.157  0.00  0.00    +0.009 C 
ATOM      7  C   UNL     1      85.447  56.027  45.408  0.00  0.00    -0.012 C 
ATOM      8  C   UNL     1      85.319  54.575  45.048  0.00  0.00    -0.034 A 
ATOM      9  C   UNL     1      85.568  53.608  46.021  0.00  0.00    -0.016 A 
ATOM     10  C   UNL     1      85.562  52.254  45.701  0.00  0.00    +0.128 A 
ATOM     11  C   UNL     1      85.295  51.843  44.377  0.00  0.00    +0.066 A 
ATOM     12  C   UNL     1      85.925  58.321  44.510  0.00  0.00    -0.049 C 
ATOM     13  H   UNL     1      83.844  56.924  43.590  0.00  0.00    +0.000 HD
ATOM     14  H   UNL     1      84.971  57.215  42.357  0.00  0.00    +0.000 HD
ENDROOT
BRANCH  11  15
ATOM     15  C   UNL     1      85.405  50.398  44.045  0.00  0.00    +0.000 A 
ATOM     16  C   UNL     1      84.266  49.572  44.160  0.00  0.00    -0.038 A 
ATOM     17  C   UNL     1      82.942  50.118  44.639  0.00  0.00    -0.039 C 
ATOM     18  C   UNL     1      84.371  48.209  43.879  0.00  0.00    -0.016 A 
ATOM     19  C   UNL     1      85.583  47.634  43.463  0.00  0.00    +0.132 A 
ATOM     20  C   UNL     1      86.739  48.446  43.343  0.00  0.00    +0.066 A 
ATOM     21  C   UNL     1      86.648  49.837  43.649  0.00  0.00    -0.003 A 
ATOM     22  C   UNL     1      87.802  50.641  43.548  0.00  0.00    -0.053 A 
ATOM     23  C   UNL     1      89.017  50.098  43.146  0.00  0.00    -0.058 A 
ATOM     24  C   UNL     1      89.113  48.746  42.840  0.00  0.00    -0.019 A 
ATOM     25  C   UNL     1      87.990  47.905  42.931  0.00  0.00    +0.131 A 
BRANCH  25  26
ATOM     26  O   UNL     1      88.097  46.537  42.620  0.00  0.00    -0.494 OA
ATOM     27  C   UNL     1      89.316  45.803  42.567  0.00  0.00    +0.079 C 
ENDBRANCH  25  26
BRANCH  19  28
ATOM     28  O   UNL     1      85.657  46.260  43.172  0.00  0.00    -0.494 OA
ATOM     29  C   UNL     1      84.554  45.433  42.816  0.00  0.00    +0.079 C 
ENDBRANCH  19  28
ENDBRANCH  11  15
BRANCH   1  31
ATOM     30  C   UNL     1      85.802  52.564  40.992  0.00  0.00    +0.079 C 
ATOM     31  O   UNL     1      84.820  52.498  42.022  0.00  0.00    -0.494 OA
ENDBRANCH   1  31
BRANCH  10  32
ATOM     32  O   UNL     1      85.856  51.340  46.717  0.00  0.00    -0.506 OA
ATOM     33  H   UNL     1      85.166  50.849  47.119  0.00  0.00    +0.000 HD
ENDBRANCH  10  32
TORSDOF 5
ENDMDL
MODEL 6
REMARK VINA RESULT:    -8.380      1.656      4.052
REMARK INTER + INTRA:         -11.049
REMARK INTER:                 -10.141
REMARK INTRA:                  -0.908
REMARK UNBOUND:                -0.464
REMARK  Name = 
REMARK  11 active torsions:
REMARK  status: ('A' for Active; 'I' for Inactive)
REMARK    1  A    between atoms: C_1  and  O_2
REMARK    2  A    between atoms: O_2  and  C_3
REMARK    3  A    between atoms: C_5  and  C_6
REMARK    4  A    between atoms: C_8  and  C_30
REMARK    5  A    between atoms: C_12  and  O_29
REMARK    6  A    between atoms: C_13  and  C_14
REMARK    7  A    between atoms: C_15  and  C_16
REMARK    8  A    between atoms: C_18  and  O_27
REMARK    9  A    between atoms: C_24  and  O_25
REMARK   10  A    between atoms: O_25  and  C_26
REMARK   11  A    between atoms: O_27  and  C_28
REMARK                            x       y       z     vdW  Elec       q    Type
REMARK                         _______ _______ _______ _____ _____    ______ ____
ROOT
ATOM      1  C   UNL     1      86.958  50.428  43.674  0.00  0.00    +0.136 A 
ATOM      2  C   UNL     1      87.273  49.054  43.538  0.00  0.00    +0.015 A 
ATOM      3  C   UNL     1      88.700  48.621  43.168  0.00  0.00    +0.034 C 
ATOM      4  C   UNL     1      89.677  48.994  44.291  0.00  0.00    -0.045 C 
ATOM      5  N   UNL     1      88.850  47.168  42.930  0.00  0.00    -0.307 N 
ATOM      6  C   UNL     1      87.650  46.533  42.375  0.00  0.00    +0.009 C 
ATOM      7  C   UNL     1      86.521  46.645  43.399  0.00  0.00    -0.012 C 
ATOM      8  C   UNL     1      86.257  48.091  43.700  0.00  0.00    -0.034 A 
ATOM      9  C   UNL     1      84.985  48.477  44.123  0.00  0.00    -0.016 A 
ATOM     10  C   UNL     1      84.671  49.819  44.312  0.00  0.00    +0.128 A 
ATOM     11  C   UNL     1      85.649  50.812  44.080  0.00  0.00    +0.066 A 
ATOM     12  C   UNL     1      87.933  45.060  42.059  0.00  0.00    -0.049 C 
ATOM     13  H   UNL     1      89.070  46.717  43.817  0.00  0.00    +0.000 HD
ATOM     14  H   UNL     1      89.592  47.055  42.240  0.00  0.00    +0.000 HD
ENDROOT
BRANCH  11  15
ATOM     15  C   UNL     1      85.250  52.240  44.183  0.00  0.00    +0.000 A 
ATOM     16  C   UNL     1      84.789  52.915  43.032  0.00  0.00    -0.038 A 
ATOM     17  C   UNL     1      84.717  52.226  41.691  0.00  0.00    -0.039 C 
ATOM     18  C   UNL     1      84.442  54.265  43.116  0.00  0.00    -0.016 A 
ATOM     19  C   UNL     1      84.521  54.972  44.328  0.00  0.00    +0.132 A 
ATOM     20  C   UNL     1      84.983  54.312  45.495  0.00  0.00    +0.066 A 
ATOM     21  C   UNL     1      85.361  52.938  45.415  0.00  0.00    -0.003 A 
ATOM     22  C   UNL     1      85.838  52.287  46.571  0.00  0.00    -0.053 A 
ATOM     23  C   UNL     1      85.934  52.963  47.782  0.00  0.00    -0.058 A 
ATOM     24  C   UNL     1      85.562  54.298  47.870  0.00  0.00    -0.019 A 
ATOM     25  C   UNL     1      85.085  54.990  46.743  0.00  0.00    +0.131 A 
BRANCH  25  26
ATOM     26  O   UNL     1      84.712  56.343  46.842  0.00  0.00    -0.494 OA
ATOM     27  C   UNL     1      83.525  56.821  47.464  0.00  0.00    +0.079 C 
ENDBRANCH  25  26
BRANCH  19  28
ATOM     28  O   UNL     1      84.151  56.327  44.388  0.00  0.00    -0.494 OA
ATOM     29  C   UNL     1      84.747  57.378  43.634  0.00  0.00    +0.079 C 
ENDBRANCH  19  28
ENDBRANCH  11  15
BRANCH   1  31
ATOM     30  C   UNL     1      88.256  51.855  42.039  0.00  0.00    +0.079 C 
ATOM     31  O   UNL     1      87.963  51.359  43.342  0.00  0.00    -0.494 OA
ENDBRANCH   1  31
BRANCH  10  32
ATOM     32  O   UNL     1      83.367  50.139  44.701  0.00  0.00    -0.506 OA
ATOM     33  H   UNL     1      83.109  51.036  44.780  0.00  0.00    +0.000 HD
ENDBRANCH  10  32
TORSDOF 5
ENDMDL
MODEL 7
REMARK VINA RESULT:    -7.910      2.843      7.866
REMARK INTER + INTRA:         -10.456
REMARK INTER:                  -9.630
REMARK INTRA:                  -0.826
REMARK UNBOUND:                -0.464
REMARK  Name = 
REMARK  11 active torsions:
REMARK  status: ('A' for Active; 'I' for Inactive)
REMARK    1  A    between atoms: C_1  and  O_2
REMARK    2  A    between atoms: O_2  and  C_3
REMARK    3  A    between atoms: C_5  and  C_6
REMARK    4  A    between atoms: C_8  and  C_30
REMARK    5  A    between atoms: C_12  and  O_29
REMARK    6  A    between atoms: C_13  and  C_14
REMARK    7  A    between atoms: C_15  and  C_16
REMARK    8  A    between atoms: C_18  and  O_27
REMARK    9  A    between atoms: C_24  and  O_25
REMARK   10  A    between atoms: O_25  and  C_26
REMARK   11  A    between atoms: O_27  and  C_28
REMARK                            x       y       z     vdW  Elec       q    Type
REMARK                         _______ _______ _______ _____ _____    ______ ____
ROOT
ATOM      1  C   UNL     1      85.394  53.106  45.206  0.00  0.00    +0.136 A 
ATOM      2  C   UNL     1      85.387  54.522  45.259  0.00  0.00    +0.015 A 
ATOM      3  C   UNL     1      85.464  55.246  46.612  0.00  0.00    +0.034 C 
ATOM      4  C   UNL     1      86.818  54.975  47.283  0.00  0.00    -0.045 C 
ATOM      5  N   UNL     1      85.311  56.715  46.523  0.00  0.00    -0.307 N 
ATOM      6  C   UNL     1      84.441  57.154  45.428  0.00  0.00    +0.009 C 
ATOM      7  C   UNL     1      85.084  56.748  44.102  0.00  0.00    -0.012 C 
ATOM      8  C   UNL     1      85.262  55.259  44.064  0.00  0.00    -0.034 A 
ATOM      9  C   UNL     1      85.282  54.606  42.831  0.00  0.00    -0.016 A 
ATOM     10  C   UNL     1      85.342  53.218  42.759  0.00  0.00    +0.128 A 
ATOM     11  C   UNL     1      85.387  52.450  43.943  0.00  0.00    +0.066 A 
ATOM     12  C   UNL     1      84.254  58.674  45.481  0.00  0.00    -0.049 C 
ATOM     13  H   UNL     1      86.234  57.127  46.384  0.00  0.00    +0.000 HD
ATOM     14  H   UNL     1      84.874  57.021  47.392  0.00  0.00    +0.000 HD
ENDROOT
BRANCH  11  15
ATOM     15  C   UNL     1      85.338  50.970  43.832  0.00  0.00    +0.000 A 
ATOM     16  C   UNL     1      84.106  50.303  44.007  0.00  0.00    -0.038 A 
ATOM     17  C   UNL     1      82.840  51.059  44.331  0.00  0.00    -0.039 C 
ATOM     18  C   UNL     1      84.058  48.909  43.935  0.00  0.00    -0.016 A 
ATOM     19  C   UNL     1      85.208  48.146  43.672  0.00  0.00    +0.132 A 
ATOM     20  C   UNL     1      86.456  48.797  43.494  0.00  0.00    +0.066 A 
ATOM     21  C   UNL     1      86.518  50.219  43.588  0.00  0.00    -0.003 A 
ATOM     22  C   UNL     1      87.762  50.865  43.431  0.00  0.00    -0.053 A 
ATOM     23  C   UNL     1      88.917  50.135  43.177  0.00  0.00    -0.058 A 
ATOM     24  C   UNL     1      88.864  48.751  43.077  0.00  0.00    -0.019 A 
ATOM     25  C   UNL     1      87.647  48.063  43.232  0.00  0.00    +0.131 A 
BRANCH  25  26
ATOM     26  O   UNL     1      87.603  46.661  43.131  0.00  0.00    -0.494 OA
ATOM     27  C   UNL     1      88.550  45.860  42.433  0.00  0.00    +0.079 C 
ENDBRANCH  25  26
BRANCH  19  28
ATOM     28  O   UNL     1      85.129  46.744  43.589  0.00  0.00    -0.494 OA
ATOM     29  C   UNL     1      84.181  46.017  42.815  0.00  0.00    +0.079 C 
ENDBRANCH  19  28
ENDBRANCH  11  15
BRANCH   1  31
ATOM     30  C   UNL     1      86.393  51.611  46.984  0.00  0.00    +0.079 C 
ATOM     31  O   UNL     1      85.354  52.413  46.432  0.00  0.00    -0.494 OA
ENDBRANCH   1  31
BRANCH  10  32
ATOM     32  O   UNL     1      85.322  52.628  41.492  0.00  0.00    -0.506 OA
ATOM     33  H   UNL     1      84.729  52.943  40.838  0.00  0.00    +0.000 HD
ENDBRANCH  10  32
TORSDOF 5
ENDMDL
MODEL 8
REMARK VINA RESULT:    -7.895      1.253      2.623
REMARK INTER + INTRA:         -10.436
REMARK INTER:                  -9.483
REMARK INTRA:                  -0.953
REMARK UNBOUND:                -0.464
REMARK  Name = 
REMARK  11 active torsions:
REMARK  status: ('A' for Active; 'I' for Inactive)
REMARK    1  A    between atoms: C_1  and  O_2
REMARK    2  A    between atoms: O_2  and  C_3
REMARK    3  A    between atoms: C_5  and  C_6
REMARK    4  A    between atoms: C_8  and  C_30
REMARK    5  A    between atoms: C_12  and  O_29
REMARK    6  A    between atoms: C_13  and  C_14
REMARK    7  A    between atoms: C_15  and  C_16
REMARK    8  A    between atoms: C_18  and  O_27
REMARK    9  A    between atoms: C_24  and  O_25
REMARK   10  A    between atoms: O_25  and  C_26
REMARK   11  A    between atoms: O_27  and  C_28
REMARK                            x       y       z     vdW  Elec       q    Type
REMARK                         _______ _______ _______ _____ _____    ______ ____
ROOT
ATOM      1  C   UNL     1      87.869  49.453  43.651  0.00  0.00    +0.136 A 
ATOM      2  C   UNL     1      87.892  48.055  43.422  0.00  0.00    +0.015 A 
ATOM      3  C   UNL     1      89.102  47.404  42.736  0.00  0.00    +0.034 C 
ATOM      4  C   UNL     1      90.349  47.534  43.623  0.00  0.00    -0.045 C 
ATOM      5  N   UNL     1      88.930  45.964  42.442  0.00  0.00    -0.307 N 
ATOM      6  C   UNL     1      87.545  45.581  42.153  0.00  0.00    +0.009 C 
ATOM      7  C   UNL     1      86.701  45.826  43.405  0.00  0.00    -0.012 C 
ATOM      8  C   UNL     1      86.775  47.275  43.785  0.00  0.00    -0.034 A 
ATOM      9  C   UNL     1      85.715  47.850  44.487  0.00  0.00    -0.016 A 
ATOM     10  C   UNL     1      85.700  49.213  44.767  0.00  0.00    +0.128 A 
ATOM     11  C   UNL     1      86.769  50.033  44.344  0.00  0.00    +0.066 A 
ATOM     12  C   UNL     1      87.480  44.103  41.754  0.00  0.00    -0.049 C 
ATOM     13  H   UNL     1      89.249  45.429  43.250  0.00  0.00    +0.000 HD
ATOM     14  H   UNL     1      89.475  45.765  41.603  0.00  0.00    +0.000 HD
ENDROOT
BRANCH  11  15
ATOM     15  C   UNL     1      86.669  51.500  44.561  0.00  0.00    +0.000 A 
ATOM     16  C   UNL     1      87.089  52.048  45.793  0.00  0.00    -0.038 A 
ATOM     17  C   UNL     1      87.613  51.173  46.906  0.00  0.00    -0.039 C 
ATOM     18  C   UNL     1      86.969  53.421  46.014  0.00  0.00    -0.016 A 
ATOM     19  C   UNL     1      86.456  54.283  45.031  0.00  0.00    +0.132 A 
ATOM     20  C   UNL     1      86.027  53.752  43.788  0.00  0.00    +0.066 A 
ATOM     21  C   UNL     1      86.125  52.347  43.560  0.00  0.00    -0.003 A 
ATOM     22  C   UNL     1      85.681  51.817  42.331  0.00  0.00    -0.053 A 
ATOM     23  C   UNL     1      85.162  52.644  41.343  0.00  0.00    -0.058 A 
ATOM     24  C   UNL     1      85.069  54.014  41.553  0.00  0.00    -0.019 A 
ATOM     25  C   UNL     1      85.495  54.588  42.765  0.00  0.00    +0.131 A 
BRANCH  25  26
ATOM     26  O   UNL     1      85.395  55.976  42.970  0.00  0.00    -0.494 OA
ATOM     27  C   UNL     1      84.177  56.696  43.119  0.00  0.00    +0.079 C 
ENDBRANCH  25  26
BRANCH  19  28
ATOM     28  O   UNL     1      86.360  55.665  45.274  0.00  0.00    -0.494 OA
ATOM     29  C   UNL     1      85.872  56.259  46.473  0.00  0.00    +0.079 C 
ENDBRANCH  19  28
ENDBRANCH  11  15
BRANCH   1  31
ATOM     30  C   UNL     1      89.035  50.708  41.792  0.00  0.00    +0.079 C 
ATOM     31  O   UNL     1      88.931  50.213  43.123  0.00  0.00    -0.494 OA
ENDBRANCH   1  31
BRANCH  10  32
ATOM     32  O   UNL     1      84.590  49.730  45.441  0.00  0.00    -0.506 OA
ATOM     33  H   UNL     1      84.217  49.258  46.159  0.00  0.00    +0.000 HD
ENDBRANCH  10  32
TORSDOF 5
ENDMDL
MODEL 9
REMARK VINA RESULT:    -7.714      3.203      8.029
REMARK INTER + INTRA:         -10.208
REMARK INTER:                  -9.743
REMARK INTRA:                  -0.464
REMARK UNBOUND:                -0.464
REMARK  Name = 
REMARK  11 active torsions:
REMARK  status: ('A' for Active; 'I' for Inactive)
REMARK    1  A    between atoms: C_1  and  O_2
REMARK    2  A    between atoms: O_2  and  C_3
REMARK    3  A    between atoms: C_5  and  C_6
REMARK    4  A    between atoms: C_8  and  C_30
REMARK    5  A    between atoms: C_12  and  O_29
REMARK    6  A    between atoms: C_13  and  C_14
REMARK    7  A    between atoms: C_15  and  C_16
REMARK    8  A    between atoms: C_18  and  O_27
REMARK    9  A    between atoms: C_24  and  O_25
REMARK   10  A    between atoms: O_25  and  C_26
REMARK   11  A    between atoms: O_27  and  C_28
REMARK                            x       y       z     vdW  Elec       q    Type
REMARK                         _______ _______ _______ _____ _____    ______ ____
ROOT
ATOM      1  C   UNL     1      84.498  53.118  44.960  0.00  0.00    +0.136 A 
ATOM      2  C   UNL     1      85.008  54.440  44.986  0.00  0.00    +0.015 A 
ATOM      3  C   UNL     1      85.095  55.209  46.313  0.00  0.00    +0.034 C 
ATOM      4  C   UNL     1      86.101  54.532  47.254  0.00  0.00    -0.045 C 
ATOM      5  N   UNL     1      85.518  56.619  46.169  0.00  0.00    -0.307 N 
ATOM      6  C   UNL     1      85.093  57.239  44.911  0.00  0.00    +0.009 C 
ATOM      7  C   UNL     1      85.774  56.509  43.753  0.00  0.00    -0.012 C 
ATOM      8  C   UNL     1      85.390  55.059  43.779  0.00  0.00    -0.034 A 
ATOM      9  C   UNL     1      85.395  54.332  42.588  0.00  0.00    -0.016 A 
ATOM     10  C   UNL     1      84.947  53.015  42.553  0.00  0.00    +0.128 A 
ATOM     11  C   UNL     1      84.483  52.395  43.734  0.00  0.00    +0.066 A 
ATOM     12  C   UNL     1      85.478  58.723  44.898  0.00  0.00    -0.049 C 
ATOM     13  H   UNL     1      86.537  56.657  46.217  0.00  0.00    +0.000 HD
ATOM     14  H   UNL     1      85.073  57.142  46.924  0.00  0.00    +0.000 HD
ENDROOT
BRANCH  11  15
ATOM     15  C   UNL     1      83.908  51.028  43.641  0.00  0.00    +0.000 A 
ATOM     16  C   UNL     1      82.567  50.867  43.232  0.00  0.00    -0.038 A 
ATOM     17  C   UNL     1      81.693  52.056  42.912  0.00  0.00    -0.039 C 
ATOM     18  C   UNL     1      82.012  49.587  43.172  0.00  0.00    -0.016 A 
ATOM     19  C   UNL     1      82.762  48.443  43.492  0.00  0.00    +0.132 A 
ATOM     20  C   UNL     1      84.112  48.584  43.906  0.00  0.00    +0.066 A 
ATOM     21  C   UNL     1      84.681  49.889  43.991  0.00  0.00    -0.003 A 
ATOM     22  C   UNL     1      86.017  50.030  44.422  0.00  0.00    -0.053 A 
ATOM     23  C   UNL     1      86.781  48.918  44.752  0.00  0.00    -0.058 A 
ATOM     24  C   UNL     1      86.237  47.643  44.664  0.00  0.00    -0.019 A 
ATOM     25  C   UNL     1      84.908  47.453  44.245  0.00  0.00    +0.131 A 
BRANCH  25  26
ATOM     26  O   UNL     1      84.365  46.159  44.162  0.00  0.00    -0.494 OA
ATOM     27  C   UNL     1      84.915  44.998  44.776  0.00  0.00    +0.079 C 
ENDBRANCH  25  26
BRANCH  19  28
ATOM     28  O   UNL     1      82.184  47.164  43.408  0.00  0.00    -0.494 OA
ATOM     29  C   UNL     1      80.919  46.796  43.949  0.00  0.00    +0.079 C 
ENDBRANCH  19  28
ENDBRANCH  11  15
BRANCH   1  31
ATOM     30  C   UNL     1      84.693  51.863  47.147  0.00  0.00    +0.079 C 
ATOM     31  O   UNL     1      83.976  52.603  46.163  0.00  0.00    -0.494 OA
ENDBRANCH   1  31
BRANCH  10  32
ATOM     32  O   UNL     1      84.945  52.357  41.320  0.00  0.00    -0.506 OA
ATOM     33  H   UNL     1      85.749  52.228  40.856  0.00  0.00    +0.000 HD
ENDBRANCH  10  32
TORSDOF 5
ENDMDL
