MODEL 1
REMARK VINA RESULT:    -9.649      0.000      0.000
REMARK INTER + INTRA:         -12.979
REMARK INTER:                 -11.668
REMARK INTRA:                  -1.311
REMARK UNBOUND:                -0.792
REMARK  Name = 
REMARK  11 active torsions:
REMARK  status: ('A' for Active; 'I' for Inactive)
REMARK    1  A    between atoms: C_1  and  O_2
REMARK    2  A    between atoms: O_2  and  C_3
REMARK    3  A    between atoms: C_5  and  O_6
REMARK    4  A    between atoms: O_6  and  C_7
REMARK    5  A    between atoms: C_10  and  C_11
REMARK    6  A    between atoms: C_12  and  C_13
REMARK    7  A    between atoms: C_17  and  O_18
REMARK    8  A    between atoms: C_19  and  O_20
REMARK    9  A    between atoms: O_20  and  C_21
REMARK   10  A    between atoms: C_26  and  C_30
REMARK   11  A    between atoms: C_28  and  C_29
REMARK                            x       y       z     vdW  Elec       q    Type
REMARK                         _______ _______ _______ _____ _____    ______ ____
ROOT
ATOM      1  C   UNL     1      87.926  49.260  43.088  0.00  0.00    +0.132 A 
ATOM      2  C   UNL     1      87.987  47.946  42.598  0.00  0.00    +0.023 A 
ATOM      3  C   UNL     1      86.865  47.100  42.644  0.00  0.00    +0.133 A 
ATOM      4  C   UNL     1      85.657  47.577  43.207  0.00  0.00    +0.041 A 
ATOM      5  C   UNL     1      85.575  48.920  43.647  0.00  0.00    -0.022 A 
ATOM      6  C   UNL     1      86.719  49.748  43.611  0.00  0.00    +0.032 A 
ATOM      7  C   UNL     1      84.266  49.420  44.227  0.00  0.00    -0.004 C 
ATOM      8  C   UNL     1      83.085  48.731  43.527  0.00  0.00    +0.052 C 
ATOM      9  N   UNL     1      83.275  47.282  43.536  0.00  0.00    -0.284 NA
ATOM     10  C   UNL     1      84.436  46.721  43.351  0.00  0.00    +0.044 C 
ATOM     11  C   UNL     1      84.501  45.222  43.386  0.00  0.00    -0.022 C 
ATOM     12  C   UNL     1      81.760  49.079  44.204  0.00  0.00    -0.042 C 
ENDROOT
BRANCH   6  13
ATOM     13  C   UNL     1      86.675  51.137  44.133  0.00  0.00    +0.031 A 
ATOM     14  C   UNL     1      87.016  51.391  45.477  0.00  0.00    -0.039 A 
ATOM     15  C   UNL     1      87.428  50.273  46.402  0.00  0.00    -0.039 C 
ATOM     16  C   UNL     1      86.972  52.702  45.965  0.00  0.00    -0.050 A 
ATOM     17  C   UNL     1      86.603  53.765  45.134  0.00  0.00    -0.011 A 
ATOM     18  C   UNL     1      86.263  53.530  43.775  0.00  0.00    +0.066 A 
ATOM     19  C   UNL     1      86.299  52.202  43.279  0.00  0.00    +0.136 A 
ATOM     20  C   UNL     1      85.894  54.633  42.957  0.00  0.00    +0.131 A 
ATOM     21  C   UNL     1      85.874  55.929  43.511  0.00  0.00    -0.019 A 
ATOM     22  C   UNL     1      86.211  56.139  44.846  0.00  0.00    -0.058 A 
ATOM     23  C   UNL     1      86.573  55.067  45.654  0.00  0.00    -0.054 A 
BRANCH  19  24
ATOM     24  O   UNL     1      85.961  51.945  41.945  0.00  0.00    -0.505 OA
ATOM     25  H   UNL     1      86.635  51.866  41.299  0.00  0.00    +0.000 HD
ENDBRANCH  19  24
BRANCH  20  26
ATOM     26  O   UNL     1      85.555  54.425  41.608  0.00  0.00    -0.494 OA
ATOM     27  C   UNL     1      84.435  55.006  40.948  0.00  0.00    +0.079 C 
ENDBRANCH  20  26
ENDBRANCH   6  13
BRANCH   1  29
ATOM     28  C   UNL     1      89.665  50.610  41.886  0.00  0.00    +0.079 C 
ATOM     29  O   UNL     1      89.045  50.111  43.067  0.00  0.00    -0.494 OA
ENDBRANCH   1  29
BRANCH   3  30
ATOM     30  O   UNL     1      86.919  45.797  42.121  0.00  0.00    -0.494 OA
ATOM     31  C   UNL     1      87.996  44.884  42.311  0.00  0.00    +0.079 C 
ENDBRANCH   3  30
TORSDOF 5
ENDMDL
MODEL 2
REMARK VINA RESULT:    -9.219      2.597      7.125
REMARK INTER + INTRA:         -12.436
REMARK INTER:                 -11.191
REMARK INTRA:                  -1.244
REMARK UNBOUND:                -0.792
REMARK  Name = 
REMARK  11 active torsions:
REMARK  status: ('A' for Active; 'I' for Inactive)
REMARK    1  A    between atoms: C_1  and  O_2
REMARK    2  A    between atoms: O_2  and  C_3
REMARK    3  A    between atoms: C_5  and  O_6
REMARK    4  A    between atoms: O_6  and  C_7
REMARK    5  A    between atoms: C_10  and  C_11
REMARK    6  A    between atoms: C_12  and  C_13
REMARK    7  A    between atoms: C_17  and  O_18
REMARK    8  A    between atoms: C_19  and  O_20
REMARK    9  A    between atoms: O_20  and  C_21
REMARK   10  A    between atoms: C_26  and  C_30
REMARK   11  A    between atoms: C_28  and  C_29
REMARK                            x       y       z     vdW  Elec       q    Type
REMARK                         _______ _______ _______ _____ _____    ______ ____
ROOT
ATOM      1  C   UNL     1      85.282  53.309  42.691  0.00  0.00    +0.132 A 
ATOM      2  C   UNL     1      85.181  54.709  42.732  0.00  0.00    +0.023 A 
ATOM      3  C   UNL     1      84.981  55.387  43.947  0.00  0.00    +0.133 A 
ATOM      4  C   UNL     1      84.864  54.646  45.147  0.00  0.00    +0.041 A 
ATOM      5  C   UNL     1      85.024  53.240  45.116  0.00  0.00    -0.022 A 
ATOM      6  C   UNL     1      85.205  52.574  43.883  0.00  0.00    +0.032 A 
ATOM      7  C   UNL     1      84.918  52.464  46.415  0.00  0.00    -0.004 C 
ATOM      8  C   UNL     1      85.461  53.309  47.577  0.00  0.00    +0.052 C 
ATOM      9  N   UNL     1      84.837  54.631  47.569  0.00  0.00    -0.284 NA
ATOM     10  C   UNL     1      84.587  55.288  46.472  0.00  0.00    +0.044 C 
ATOM     11  C   UNL     1      83.939  56.636  46.597  0.00  0.00    -0.022 C 
ATOM     12  C   UNL     1      85.208  52.631  48.922  0.00  0.00    -0.042 C 
ENDROOT
BRANCH   6  13
ATOM     13  C   UNL     1      85.304  51.095  43.820  0.00  0.00    +0.031 A 
ATOM     14  C   UNL     1      86.565  50.472  43.932  0.00  0.00    -0.039 A 
ATOM     15  C   UNL     1      87.822  51.285  44.115  0.00  0.00    -0.039 C 
ATOM     16  C   UNL     1      86.654  49.077  43.871  0.00  0.00    -0.050 A 
ATOM     17  C   UNL     1      85.509  48.291  43.710  0.00  0.00    -0.011 A 
ATOM     18  C   UNL     1      84.229  48.899  43.603  0.00  0.00    +0.066 A 
ATOM     19  C   UNL     1      84.136  50.313  43.657  0.00  0.00    +0.136 A 
ATOM     20  C   UNL     1      83.085  48.070  43.443  0.00  0.00    +0.131 A 
ATOM     21  C   UNL     1      83.246  46.670  43.394  0.00  0.00    -0.019 A 
ATOM     22  C   UNL     1      84.508  46.094  43.500  0.00  0.00    -0.058 A 
ATOM     23  C   UNL     1      85.633  46.895  43.657  0.00  0.00    -0.054 A 
BRANCH  19  24
ATOM     24  O   UNL     1      82.886  50.934  43.547  0.00  0.00    -0.505 OA
ATOM     25  H   UNL     1      82.694  51.693  44.062  0.00  0.00    +0.000 HD
ENDBRANCH  19  24
BRANCH  20  26
ATOM     26  O   UNL     1      81.808  48.649  43.337  0.00  0.00    -0.494 OA
ATOM     27  C   UNL     1      80.654  48.223  44.055  0.00  0.00    +0.079 C 
ENDBRANCH  20  26
ENDBRANCH   6  13
BRANCH   1  29
ATOM     28  C   UNL     1      86.678  52.573  40.741  0.00  0.00    +0.079 C 
ATOM     29  O   UNL     1      85.463  52.614  41.481  0.00  0.00    -0.494 OA
ENDBRANCH   1  29
BRANCH   3  30
ATOM     30  O   UNL     1      84.915  56.790  43.989  0.00  0.00    -0.494 OA
ATOM     31  C   UNL     1      86.041  57.663  43.990  0.00  0.00    +0.079 C 
ENDBRANCH   3  30
TORSDOF 5
ENDMDL
MODEL 3
REMARK VINA RESULT:    -9.208      1.989      2.931
REMARK INTER + INTRA:         -12.422
REMARK INTER:                 -11.138
REMARK INTRA:                  -1.284
REMARK UNBOUND:                -0.792
REMARK  Name = 
REMARK  11 active torsions:
REMARK  status: ('A' for Active; 'I' for Inactive)
REMARK    1  A    between atoms: C_1  and  O_2
REMARK    2  A    between atoms: O_2  and  C_3
REMARK    3  A    between atoms: C_5  and  O_6
REMARK    4  A    between atoms: O_6  and  C_7
REMARK    5  A    between atoms: C_10  and  C_11
REMARK    6  A    between atoms: C_12  and  C_13
REMARK    7  A    between atoms: C_17  and  O_18
REMARK    8  A    between atoms: C_19  and  O_20
REMARK    9  A    between atoms: O_20  and  C_21
REMARK   10  A    between atoms: C_26  and  C_30
REMARK   11  A    between atoms: C_28  and  C_29
REMARK                            x       y       z     vdW  Elec       q    Type
REMARK                         _______ _______ _______ _____ _____    ______ ____
ROOT
ATOM      1  C   UNL     1      86.833  49.258  43.810  0.00  0.00    +0.132 A 
ATOM      2  C   UNL     1      86.666  47.869  43.679  0.00  0.00    +0.023 A 
ATOM      3  C   UNL     1      85.388  47.303  43.533  0.00  0.00    +0.133 A 
ATOM      4  C   UNL     1      84.249  48.143  43.533  0.00  0.00    +0.041 A 
ATOM      5  C   UNL     1      84.418  49.547  43.605  0.00  0.00    -0.022 A 
ATOM      6  C   UNL     1      85.709  50.096  43.772  0.00  0.00    +0.032 A 
ATOM      7  C   UNL     1      83.188  50.433  43.581  0.00  0.00    -0.004 C 
ATOM      8  C   UNL     1      82.103  49.800  42.698  0.00  0.00    +0.052 C 
ATOM      9  N   UNL     1      81.881  48.410  43.096  0.00  0.00    -0.284 NA
ATOM     10  C   UNL     1      82.850  47.613  43.445  0.00  0.00    +0.044 C 
ATOM     11  C   UNL     1      82.493  46.209  43.836  0.00  0.00    -0.022 C 
ATOM     12  C   UNL     1      80.790  50.575  42.792  0.00  0.00    -0.042 C 
ENDROOT
BRANCH   6  13
ATOM     13  C   UNL     1      85.904  51.560  43.921  0.00  0.00    +0.031 A 
ATOM     14  C   UNL     1      86.127  52.357  42.779  0.00  0.00    -0.039 A 
ATOM     15  C   UNL     1      86.173  51.747  41.400  0.00  0.00    -0.039 C 
ATOM     16  C   UNL     1      86.311  53.736  42.924  0.00  0.00    -0.050 A 
ATOM     17  C   UNL     1      86.266  54.338  44.186  0.00  0.00    -0.011 A 
ATOM     18  C   UNL     1      86.035  53.553  45.348  0.00  0.00    +0.066 A 
ATOM     19  C   UNL     1      85.856  52.154  45.205  0.00  0.00    +0.136 A 
ATOM     20  C   UNL     1      85.994  54.196  46.615  0.00  0.00    +0.131 A 
ATOM     21  C   UNL     1      86.182  55.591  46.690  0.00  0.00    -0.019 A 
ATOM     22  C   UNL     1      86.408  56.342  45.540  0.00  0.00    -0.058 A 
ATOM     23  C   UNL     1      86.451  55.723  44.296  0.00  0.00    -0.054 A 
BRANCH  19  24
ATOM     24  O   UNL     1      85.634  51.360  46.337  0.00  0.00    -0.505 OA
ATOM     25  H   UNL     1      86.243  50.684  46.562  0.00  0.00    +0.000 HD
ENDBRANCH  19  24
BRANCH  20  26
ATOM     26  O   UNL     1      85.764  53.440  47.779  0.00  0.00    -0.494 OA
ATOM     27  C   UNL     1      84.787  53.741  48.770  0.00  0.00    +0.079 C 
ENDBRANCH  20  26
ENDBRANCH   6  13
BRANCH   1  29
ATOM     28  C   UNL     1      89.248  49.529  43.190  0.00  0.00    +0.079 C 
ATOM     29  O   UNL     1      88.103  49.838  43.977  0.00  0.00    -0.494 OA
ENDBRANCH   1  29
BRANCH   3  30
ATOM     30  O   UNL     1      85.227  45.916  43.367  0.00  0.00    -0.494 OA
ATOM     31  C   UNL     1      85.931  44.917  44.098  0.00  0.00    +0.079 C 
ENDBRANCH   3  30
TORSDOF 5
ENDMDL
MODEL 4
REMARK VINA RESULT:    -9.197      2.531      7.129
REMARK INTER + INTRA:         -12.408
REMARK INTER:                 -11.148
REMARK INTRA:                  -1.260
REMARK UNBOUND:                -0.792
REMARK  Name = 
REMARK  11 active torsions:
REMARK  status: ('A' for Active; 'I' for Inactive)
REMARK    1  A    between atoms: C_1  and  O_2
REMARK    2  A    between atoms: O_2  and  C_3
REMARK    3  A    between atoms: C_5  and  O_6
REMARK    4  A    between atoms: O_6  and  C_7
REMARK    5  A    between atoms: C_10  and  C_11
REMARK    6  A    between atoms: C_12  and  C_13
REMARK    7  A    between atoms: C_17  and  O_18
REMARK    8  A    between atoms: C_19  and  O_20
REMARK    9  A    between atoms: O_20  and  C_21
REMARK   10  A    between atoms: C_26  and  C_30
REMARK   11  A    between atoms: C_28  and  C_29
REMARK                            x       y       z     vdW  Elec       q    Type
REMARK                         _______ _______ _______ _____ _____    ______ ____
ROOT
ATOM      1  C   UNL     1      86.304  51.661  46.147  0.00  0.00    +0.132 A 
ATOM      2  C   UNL     1      86.331  52.944  46.719  0.00  0.00    +0.023 A 
ATOM      3  C   UNL     1      86.203  54.096  45.924  0.00  0.00    +0.133 A 
ATOM      4  C   UNL     1      86.058  53.963  44.523  0.00  0.00    +0.041 A 
ATOM      5  C   UNL     1      85.970  52.671  43.950  0.00  0.00    -0.022 A 
ATOM      6  C   UNL     1      86.121  51.525  44.763  0.00  0.00    +0.032 A 
ATOM      7  C   UNL     1      85.792  52.548  42.449  0.00  0.00    -0.004 C 
ATOM      8  C   UNL     1      84.948  53.718  41.923  0.00  0.00    +0.052 C 
ATOM      9  N   UNL     1      85.499  54.986  42.399  0.00  0.00    -0.284 NA
ATOM     10  C   UNL     1      85.978  55.141  43.600  0.00  0.00    +0.044 C 
ATOM     11  C   UNL     1      86.519  56.492  43.967  0.00  0.00    -0.022 C 
ATOM     12  C   UNL     1      84.896  53.722  40.396  0.00  0.00    -0.042 C 
ENDROOT
BRANCH   6  13
ATOM     13  C   UNL     1      86.103  50.163  44.174  0.00  0.00    +0.031 A 
ATOM     14  C   UNL     1      87.294  49.603  43.666  0.00  0.00    -0.039 A 
ATOM     15  C   UNL     1      88.594  50.367  43.710  0.00  0.00    -0.039 C 
ATOM     16  C   UNL     1      87.272  48.320  43.111  0.00  0.00    -0.050 A 
ATOM     17  C   UNL     1      86.086  47.579  43.062  0.00  0.00    -0.011 A 
ATOM     18  C   UNL     1      84.878  48.122  43.574  0.00  0.00    +0.066 A 
ATOM     19  C   UNL     1      84.895  49.426  44.131  0.00  0.00    +0.136 A 
ATOM     20  C   UNL     1      83.691  47.342  43.510  0.00  0.00    +0.131 A 
ATOM     21  C   UNL     1      83.740  46.053  42.942  0.00  0.00    -0.019 A 
ATOM     22  C   UNL     1      84.934  45.538  42.444  0.00  0.00    -0.058 A 
ATOM     23  C   UNL     1      86.100  46.293  42.502  0.00  0.00    -0.054 A 
BRANCH  19  24
ATOM     24  O   UNL     1      83.715  49.985  44.636  0.00  0.00    -0.505 OA
ATOM     25  H   UNL     1      83.647  50.913  44.746  0.00  0.00    +0.000 HD
ENDBRANCH  19  24
BRANCH  20  26
ATOM     26  O   UNL     1      82.483  47.858  44.013  0.00  0.00    -0.494 OA
ATOM     27  C   UNL     1      81.242  47.161  44.033  0.00  0.00    +0.079 C 
ENDBRANCH  20  26
ENDBRANCH   6  13
BRANCH   1  29
ATOM     28  C   UNL     1      87.596  50.188  47.712  0.00  0.00    +0.079 C 
ATOM     29  O   UNL     1      86.451  50.500  46.926  0.00  0.00    -0.494 OA
ENDBRANCH   1  29
BRANCH   3  30
ATOM     30  O   UNL     1      86.197  55.377  46.504  0.00  0.00    -0.494 OA
ATOM     31  C   UNL     1      85.162  55.894  47.335  0.00  0.00    +0.079 C 
ENDBRANCH   3  30
TORSDOF 5
ENDMDL
MODEL 5
REMARK VINA RESULT:    -9.092      2.402      7.170
REMARK INTER + INTRA:         -12.276
REMARK INTER:                 -10.967
REMARK INTRA:                  -1.309
REMARK UNBOUND:                -0.792
REMARK  Name = 
REMARK  11 active torsions:
REMARK  status: ('A' for Active; 'I' for Inactive)
REMARK    1  A    between atoms: C_1  and  O_2
REMARK    2  A    between atoms: O_2  and  C_3
REMARK    3  A    between atoms: C_5  and  O_6
REMARK    4  A    between atoms: O_6  and  C_7
REMARK    5  A    between atoms: C_10  and  C_11
REMARK    6  A    between atoms: C_12  and  C_13
REMARK    7  A    between atoms: C_17  and  O_18
REMARK    8  A    between atoms: C_19  and  O_20
REMARK    9  A    between atoms: O_20  and  C_21
REMARK   10  A    between atoms: C_26  and  C_30
REMARK   11  A    between atoms: C_28  and  C_29
REMARK                            x       y       z     vdW  Elec       q    Type
REMARK                         _______ _______ _______ _____ _____    ______ ____
ROOT
ATOM      1  C   UNL     1      86.100  51.922  46.035  0.00  0.00    +0.132 A 
ATOM      2  C   UNL     1      85.946  53.190  46.617  0.00  0.00    +0.023 A 
ATOM      3  C   UNL     1      85.776  54.338  45.823  0.00  0.00    +0.133 A 
ATOM      4  C   UNL     1      85.776  54.216  44.413  0.00  0.00    +0.041 A 
ATOM      5  C   UNL     1      85.871  52.932  43.825  0.00  0.00    -0.022 A 
ATOM      6  C   UNL     1      86.061  51.792  44.638  0.00  0.00    +0.032 A 
ATOM      7  C   UNL     1      85.846  52.817  42.313  0.00  0.00    -0.004 C 
ATOM      8  C   UNL     1      84.941  53.907  41.719  0.00  0.00    +0.052 C 
ATOM      9  N   UNL     1      85.315  55.215  42.255  0.00  0.00    -0.284 NA
ATOM     10  C   UNL     1      85.663  55.396  43.497  0.00  0.00    +0.044 C 
ATOM     11  C   UNL     1      86.029  56.787  43.924  0.00  0.00    -0.022 C 
ATOM     12  C   UNL     1      85.030  53.933  40.194  0.00  0.00    -0.042 C 
ENDROOT
BRANCH   6  13
ATOM     13  C   UNL     1      86.235  50.445  44.039  0.00  0.00    +0.031 A 
ATOM     14  C   UNL     1      85.110  49.620  43.835  0.00  0.00    -0.039 A 
ATOM     15  C   UNL     1      83.725  50.081  44.216  0.00  0.00    -0.039 C 
ATOM     16  C   UNL     1      85.278  48.350  43.272  0.00  0.00    -0.050 A 
ATOM     17  C   UNL     1      86.546  47.892  42.898  0.00  0.00    -0.011 A 
ATOM     18  C   UNL     1      87.691  48.712  43.090  0.00  0.00    +0.066 A 
ATOM     19  C   UNL     1      87.525  49.997  43.668  0.00  0.00    +0.136 A 
ATOM     20  C   UNL     1      88.964  48.218  42.698  0.00  0.00    +0.131 A 
ATOM     21  C   UNL     1      89.063  46.930  42.131  0.00  0.00    -0.019 A 
ATOM     22  C   UNL     1      87.929  46.142  41.953  0.00  0.00    -0.058 A 
ATOM     23  C   UNL     1      86.679  46.617  42.333  0.00  0.00    -0.054 A 
BRANCH  19  24
ATOM     24  O   UNL     1      88.639  50.819  43.872  0.00  0.00    -0.505 OA
ATOM     25  H   UNL     1      88.567  51.577  44.418  0.00  0.00    +0.000 HD
ENDBRANCH  19  24
BRANCH  20  26
ATOM     26  O   UNL     1      90.112  49.012  42.875  0.00  0.00    -0.494 OA
ATOM     27  C   UNL     1      91.322  48.575  43.484  0.00  0.00    +0.079 C 
ENDBRANCH  20  26
ENDBRANCH   6  13
BRANCH   1  29
ATOM     28  C   UNL     1      87.474  50.467  47.546  0.00  0.00    +0.079 C 
ATOM     29  O   UNL     1      86.291  50.767  46.814  0.00  0.00    -0.494 OA
ENDBRANCH   1  29
BRANCH   3  30
ATOM     30  O   UNL     1      85.588  55.601  46.410  0.00  0.00    -0.494 OA
ATOM     31  C   UNL     1      84.448  55.988  47.171  0.00  0.00    +0.079 C 
ENDBRANCH   3  30
TORSDOF 5
ENDMDL
MODEL 6
REMARK VINA RESULT:    -9.090      2.170      7.027
REMARK INTER + INTRA:         -12.273
REMARK INTER:                 -11.350
REMARK INTRA:                  -0.924
REMARK UNBOUND:                -0.792
REMARK  Name = 
REMARK  11 active torsions:
REMARK  status: ('A' for Active; 'I' for Inactive)
REMARK    1  A    between atoms: C_1  and  O_2
REMARK    2  A    between atoms: O_2  and  C_3
REMARK    3  A    between atoms: C_5  and  O_6
REMARK    4  A    between atoms: O_6  and  C_7
REMARK    5  A    between atoms: C_10  and  C_11
REMARK    6  A    between atoms: C_12  and  C_13
REMARK    7  A    between atoms: C_17  and  O_18
REMARK    8  A    between atoms: C_19  and  O_20
REMARK    9  A    between atoms: O_20  and  C_21
REMARK   10  A    between atoms: C_26  and  C_30
REMARK   11  A    between atoms: C_28  and  C_29
REMARK                            x       y       z     vdW  Elec       q    Type
REMARK                         _______ _______ _______ _____ _____    ______ ____
ROOT
ATOM      1  C   UNL     1      87.349  51.611  41.928  0.00  0.00    +0.132 A 
ATOM      2  C   UNL     1      87.066  52.969  42.144  0.00  0.00    +0.023 A 
ATOM      3  C   UNL     1      86.818  53.463  43.437  0.00  0.00    +0.133 A 
ATOM      4  C   UNL     1      86.839  52.574  44.538  0.00  0.00    +0.041 A 
ATOM      5  C   UNL     1      87.182  51.216  44.331  0.00  0.00    -0.022 A 
ATOM      6  C   UNL     1      87.408  50.734  43.022  0.00  0.00    +0.032 A 
ATOM      7  C   UNL     1      87.221  50.282  45.525  0.00  0.00    -0.004 C 
ATOM      8  C   UNL     1      87.686  51.047  46.773  0.00  0.00    +0.052 C 
ATOM      9  N   UNL     1      86.893  52.264  46.939  0.00  0.00    -0.284 NA
ATOM     10  C   UNL     1      86.523  53.008  45.937  0.00  0.00    +0.044 C 
ATOM     11  C   UNL     1      85.708  54.231  46.238  0.00  0.00    -0.022 C 
ATOM     12  C   UNL     1      87.569  50.183  48.028  0.00  0.00    -0.042 C 
ENDROOT
BRANCH   6  13
ATOM     13  C   UNL     1      87.700  49.300  42.775  0.00  0.00    +0.031 A 
ATOM     14  C   UNL     1      89.025  48.888  42.525  0.00  0.00    -0.039 A 
ATOM     15  C   UNL     1      90.159  49.881  42.504  0.00  0.00    -0.039 C 
ATOM     16  C   UNL     1      89.295  47.535  42.291  0.00  0.00    -0.050 A 
ATOM     17  C   UNL     1      88.269  46.584  42.311  0.00  0.00    -0.011 A 
ATOM     18  C   UNL     1      86.929  46.979  42.568  0.00  0.00    +0.066 A 
ATOM     19  C   UNL     1      86.650  48.350  42.798  0.00  0.00    +0.136 A 
ATOM     20  C   UNL     1      85.910  45.987  42.583  0.00  0.00    +0.131 A 
ATOM     21  C   UNL     1      86.252  44.640  42.344  0.00  0.00    -0.019 A 
ATOM     22  C   UNL     1      87.572  44.274  42.094  0.00  0.00    -0.058 A 
ATOM     23  C   UNL     1      88.575  45.236  42.077  0.00  0.00    -0.054 A 
BRANCH  19  24
ATOM     24  O   UNL     1      85.336  48.763  43.046  0.00  0.00    -0.505 OA
ATOM     25  H   UNL     1      84.887  48.461  43.811  0.00  0.00    +0.000 HD
ENDBRANCH  19  24
BRANCH  20  26
ATOM     26  O   UNL     1      84.576  46.353  42.837  0.00  0.00    -0.494 OA
ATOM     27  C   UNL     1      83.693  45.666  43.717  0.00  0.00    +0.079 C 
ENDBRANCH  20  26
ENDBRANCH   6  13
BRANCH   1  29
ATOM     28  C   UNL     1      88.458  51.676  39.680  0.00  0.00    +0.079 C 
ATOM     29  O   UNL     1      87.580  51.098  40.639  0.00  0.00    -0.494 OA
ENDBRANCH   1  29
BRANCH   3  30
ATOM     30  O   UNL     1      86.569  54.829  43.654  0.00  0.00    -0.494 OA
ATOM     31  C   UNL     1      85.548  55.587  43.012  0.00  0.00    +0.079 C 
ENDBRANCH   3  30
TORSDOF 5
ENDMDL
MODEL 7
REMARK VINA RESULT:    -9.078      1.686      3.485
REMARK INTER + INTRA:         -12.259
REMARK INTER:                 -10.934
REMARK INTRA:                  -1.324
REMARK UNBOUND:                -0.792
REMARK  Name = 
REMARK  11 active torsions:
REMARK  status: ('A' for Active; 'I' for Inactive)
REMARK    1  A    between atoms: C_1  and  O_2
REMARK    2  A    between atoms: O_2  and  C_3
REMARK    3  A    between atoms: C_5  and  O_6
REMARK    4  A    between atoms: O_6  and  C_7
REMARK    5  A    between atoms: C_10  and  C_11
REMARK    6  A    between atoms: C_12  and  C_13
REMARK    7  A    between atoms: C_17  and  O_18
REMARK    8  A    between atoms: C_19  and  O_20
REMARK    9  A    between atoms: O_20  and  C_21
REMARK   10  A    between atoms: C_26  and  C_30
REMARK   11  A    between atoms: C_28  and  C_29
REMARK                            x       y       z     vdW  Elec       q    Type
REMARK                         _______ _______ _______ _____ _____    ______ ____
ROOT
ATOM      1  C   UNL     1      85.308  48.912  44.062  0.00  0.00    +0.132 A 
ATOM      2  C   UNL     1      85.246  47.570  43.655  0.00  0.00    +0.023 A 
ATOM      3  C   UNL     1      86.360  46.934  43.080  0.00  0.00    +0.133 A 
ATOM      4  C   UNL     1      87.560  47.662  42.896  0.00  0.00    +0.041 A 
ATOM      5  C   UNL     1      87.643  48.997  43.360  0.00  0.00    -0.022 A 
ATOM      6  C   UNL     1      86.507  49.625  43.916  0.00  0.00    +0.032 A 
ATOM      7  C   UNL     1      88.944  49.754  43.175  0.00  0.00    -0.004 C 
ATOM      8  C   UNL     1      90.134  48.789  43.287  0.00  0.00    +0.052 C 
ATOM      9  N   UNL     1      89.932  47.641  42.404  0.00  0.00    -0.284 NA
ATOM     10  C   UNL     1      88.770  47.076  42.235  0.00  0.00    +0.044 C 
ATOM     11  C   UNL     1      88.693  45.906  41.299  0.00  0.00    -0.022 C 
ATOM     12  C   UNL     1      91.447  49.485  42.931  0.00  0.00    -0.042 C 
ENDROOT
BRANCH   6  13
ATOM     13  C   UNL     1      86.552  51.046  44.344  0.00  0.00    +0.031 A 
ATOM     14  C   UNL     1      86.956  51.370  45.656  0.00  0.00    -0.039 A 
ATOM     15  C   UNL     1      87.347  50.294  46.639  0.00  0.00    -0.039 C 
ATOM     16  C   UNL     1      86.996  52.710  46.055  0.00  0.00    -0.050 A 
ATOM     17  C   UNL     1      86.649  53.734  45.168  0.00  0.00    -0.011 A 
ATOM     18  C   UNL     1      86.245  53.429  43.841  0.00  0.00    +0.066 A 
ATOM     19  C   UNL     1      86.197  52.071  43.434  0.00  0.00    +0.136 A 
ATOM     20  C   UNL     1      85.901  54.493  42.964  0.00  0.00    +0.131 A 
ATOM     21  C   UNL     1      85.967  55.822  43.430  0.00  0.00    -0.019 A 
ATOM     22  C   UNL     1      86.364  56.101  44.734  0.00  0.00    -0.058 A 
ATOM     23  C   UNL     1      86.703  55.067  45.600  0.00  0.00    -0.054 A 
BRANCH  19  24
ATOM     24  O   UNL     1      85.796  51.745  42.133  0.00  0.00    -0.505 OA
ATOM     25  H   UNL     1      85.883  52.376  41.446  0.00  0.00    +0.000 HD
ENDBRANCH  19  24
BRANCH  20  26
ATOM     26  O   UNL     1      85.500  54.216  41.644  0.00  0.00    -0.494 OA
ATOM     27  C   UNL     1      84.407  54.834  40.975  0.00  0.00    +0.079 C 
ENDBRANCH  20  26
ENDBRANCH   6  13
BRANCH   1  29
ATOM     28  C   UNL     1      82.991  49.863  43.922  0.00  0.00    +0.079 C 
ATOM     29  O   UNL     1      84.196  49.569  44.620  0.00  0.00    -0.494 OA
ENDBRANCH   1  29
BRANCH   3  30
ATOM     30  O   UNL     1      86.306  45.580  42.705  0.00  0.00    -0.494 OA
ATOM     31  C   UNL     1      86.078  44.493  43.596  0.00  0.00    +0.079 C 
ENDBRANCH   3  30
TORSDOF 5
ENDMDL
MODEL 8
REMARK VINA RESULT:    -8.835      2.252      6.980
REMARK INTER + INTRA:         -11.952
REMARK INTER:                 -10.751
REMARK INTRA:                  -1.201
REMARK UNBOUND:                -0.792
REMARK  Name = 
REMARK  11 active torsions:
REMARK  status: ('A' for Active; 'I' for Inactive)
REMARK    1  A    between atoms: C_1  and  O_2
REMARK    2  A    between atoms: O_2  and  C_3
REMARK    3  A    between atoms: C_5  and  O_6
REMARK    4  A    between atoms: O_6  and  C_7
REMARK    5  A    between atoms: C_10  and  C_11
REMARK    6  A    between atoms: C_12  and  C_13
REMARK    7  A    between atoms: C_17  and  O_18
REMARK    8  A    between atoms: C_19  and  O_20
REMARK    9  A    between atoms: O_20  and  C_21
REMARK   10  A    between atoms: C_26  and  C_30
REMARK   11  A    between atoms: C_28  and  C_29
REMARK                            x       y       z     vdW  Elec       q    Type
REMARK                         _______ _______ _______ _____ _____    ______ ____
ROOT
ATOM      1  C   UNL     1      85.191  52.942  42.805  0.00  0.00    +0.132 A 
ATOM      2  C   UNL     1      84.871  54.280  43.085  0.00  0.00    +0.023 A 
ATOM      3  C   UNL     1      84.783  54.744  44.409  0.00  0.00    +0.133 A 
ATOM      4  C   UNL     1      85.005  53.844  45.478  0.00  0.00    +0.041 A 
ATOM      5  C   UNL     1      85.385  52.509  45.199  0.00  0.00    -0.022 A 
ATOM      6  C   UNL     1      85.449  52.057  43.862  0.00  0.00    +0.032 A 
ATOM      7  C   UNL     1      85.642  51.565  46.357  0.00  0.00    -0.004 C 
ATOM      8  C   UNL     1      86.239  52.338  47.542  0.00  0.00    +0.052 C 
ATOM      9  N   UNL     1      85.415  53.509  47.842  0.00  0.00    -0.284 NA
ATOM     10  C   UNL     1      84.868  54.244  46.916  0.00  0.00    +0.044 C 
ATOM     11  C   UNL     1      84.041  55.417  47.353  0.00  0.00    -0.022 C 
ATOM     12  C   UNL     1      86.345  51.455  48.784  0.00  0.00    -0.042 C 
ENDROOT
BRANCH   6  13
ATOM     13  C   UNL     1      85.777  50.644  43.548  0.00  0.00    +0.031 A 
ATOM     14  C   UNL     1      84.762  49.665  43.585  0.00  0.00    -0.039 A 
ATOM     15  C   UNL     1      83.342  50.027  43.938  0.00  0.00    -0.039 C 
ATOM     16  C   UNL     1      85.076  48.334  43.289  0.00  0.00    -0.050 A 
ATOM     17  C   UNL     1      86.381  47.962  42.949  0.00  0.00    -0.011 A 
ATOM     18  C   UNL     1      87.415  48.934  42.900  0.00  0.00    +0.066 A 
ATOM     19  C   UNL     1      87.103  50.283  43.206  0.00  0.00    +0.136 A 
ATOM     20  C   UNL     1      88.730  48.524  42.548  0.00  0.00    +0.131 A 
ATOM     21  C   UNL     1      88.977  47.166  42.258  0.00  0.00    -0.019 A 
ATOM     22  C   UNL     1      87.950  46.228  42.312  0.00  0.00    -0.058 A 
ATOM     23  C   UNL     1      86.660  46.620  42.655  0.00  0.00    -0.054 A 
BRANCH  19  24
ATOM     24  O   UNL     1      88.107  51.258  43.171  0.00  0.00    -0.505 OA
ATOM     25  H   UNL     1      87.880  52.160  43.056  0.00  0.00    +0.000 HD
ENDBRANCH  19  24
BRANCH  20  26
ATOM     26  O   UNL     1      89.770  49.469  42.491  0.00  0.00    -0.494 OA
ATOM     27  C   UNL     1      91.157  49.165  42.593  0.00  0.00    +0.079 C 
ENDBRANCH  20  26
ENDBRANCH   6  13
BRANCH   1  29
ATOM     28  C   UNL     1      86.247  52.843  40.532  0.00  0.00    +0.079 C 
ATOM     29  O   UNL     1      85.264  52.458  41.486  0.00  0.00    -0.494 OA
ENDBRANCH   1  29
BRANCH   3  30
ATOM     30  O   UNL     1      84.497  56.092  44.685  0.00  0.00    -0.494 OA
ATOM     31  C   UNL     1      84.760  57.181  43.806  0.00  0.00    +0.079 C 
ENDBRANCH   3  30
TORSDOF 5
ENDMDL
MODEL 9
REMARK VINA RESULT:    -8.384      2.437      7.144
REMARK INTER + INTRA:         -11.381
REMARK INTER:                 -10.589
REMARK INTRA:                  -0.792
REMARK UNBOUND:                -0.792
REMARK  Name = 
REMARK  11 active torsions:
REMARK  status: ('A' for Active; 'I' for Inactive)
REMARK    1  A    between atoms: C_1  and  O_2
REMARK    2  A    between atoms: O_2  and  C_3
REMARK    3  A    between atoms: C_5  and  O_6
REMARK    4  A    between atoms: O_6  and  C_7
REMARK    5  A    between atoms: C_10  and  C_11
REMARK    6  A    between atoms: C_12  and  C_13
REMARK    7  A    between atoms: C_17  and  O_18
REMARK    8  A    between atoms: C_19  and  O_20
REMARK    9  A    between atoms: O_20  and  C_21
REMARK   10  A    between atoms: C_26  and  C_30
REMARK   11  A    between atoms: C_28  and  C_29
REMARK                            x       y       z     vdW  Elec       q    Type
REMARK                         _______ _______ _______ _____ _____    ______ ____
ROOT
ATOM      1  C   UNL     1      87.064  52.525  45.373  0.00  0.00    +0.132 A 
ATOM      2  C   UNL     1      86.621  53.692  46.016  0.00  0.00    +0.023 A 
ATOM      3  C   UNL     1      85.906  54.680  45.317  0.00  0.00    +0.133 A 
ATOM      4  C   UNL     1      85.641  54.503  43.938  0.00  0.00    +0.041 A 
ATOM      5  C   UNL     1      86.034  53.302  43.301  0.00  0.00    -0.022 A 
ATOM      6  C   UNL     1      86.769  52.329  44.015  0.00  0.00    +0.032 A 
ATOM      7  C   UNL     1      85.721  53.119  41.828  0.00  0.00    -0.004 C 
ATOM      8  C   UNL     1      84.396  53.814  41.484  0.00  0.00    +0.052 C 
ATOM      9  N   UNL     1      84.414  55.194  41.967  0.00  0.00    -0.284 NA
ATOM     10  C   UNL     1      84.942  55.536  43.108  0.00  0.00    +0.044 C 
ATOM     11  C   UNL     1      84.900  56.986  43.490  0.00  0.00    -0.022 C 
ATOM     12  C   UNL     1      84.139  53.802  39.977  0.00  0.00    -0.042 C 
ENDROOT
BRANCH   6  13
ATOM     13  C   UNL     1      87.253  51.094  43.349  0.00  0.00    +0.031 A 
ATOM     14  C   UNL     1      88.344  51.160  42.458  0.00  0.00    -0.039 A 
ATOM     15  C   UNL     1      89.034  52.469  42.167  0.00  0.00    -0.039 C 
ATOM     16  C   UNL     1      88.795  49.994  41.831  0.00  0.00    -0.050 A 
ATOM     17  C   UNL     1      88.185  48.760  42.084  0.00  0.00    -0.011 A 
ATOM     18  C   UNL     1      87.089  48.672  42.984  0.00  0.00    +0.066 A 
ATOM     19  C   UNL     1      86.624  49.854  43.615  0.00  0.00    +0.136 A 
ATOM     20  C   UNL     1      86.493  47.403  43.220  0.00  0.00    +0.131 A 
ATOM     21  C   UNL     1      87.001  46.267  42.558  0.00  0.00    -0.019 A 
ATOM     22  C   UNL     1      88.075  46.374  41.680  0.00  0.00    -0.058 A 
ATOM     23  C   UNL     1      88.665  47.610  41.442  0.00  0.00    -0.054 A 
BRANCH  19  24
ATOM     24  O   UNL     1      85.541  49.792  44.500  0.00  0.00    -0.505 OA
ATOM     25  H   UNL     1      84.959  49.058  44.477  0.00  0.00    +0.000 HD
ENDBRANCH  19  24
BRANCH  20  26
ATOM     26  O   UNL     1      85.408  47.291  44.108  0.00  0.00    -0.494 OA
ATOM     27  C   UNL     1      84.668  46.098  44.347  0.00  0.00    +0.079 C 
ENDBRANCH  20  26
ENDBRANCH   6  13
BRANCH   1  29
ATOM     28  C   UNL     1      87.365  50.873  47.236  0.00  0.00    +0.079 C 
ATOM     29  O   UNL     1      87.797  51.537  46.054  0.00  0.00    -0.494 OA
ENDBRANCH   1  29
BRANCH   3  30
ATOM     30  O   UNL     1      85.435  55.831  45.972  0.00  0.00    -0.494 OA
ATOM     31  C   UNL     1      84.514  55.835  47.058  0.00  0.00    +0.079 C 
ENDBRANCH   3  30
TORSDOF 5
ENDMDL
