MODEL 1
REMARK VINA RESULT:    -7.213      0.000      0.000
REMARK INTER + INTRA:          -7.213
REMARK INTER:                  -7.213
REMARK INTRA:                   0.000
REMARK UNBOUND:                 0.000
REMARK  Name = 
REMARK  3 active torsions:
REMARK  status: ('A' for Active; 'I' for Inactive)
REMARK    1  A    between atoms: C_1  and  C_2
REMARK    2  A    between atoms: C_9  and  C_10
REMARK    3  A    between atoms: C_9  and  C_11
REMARK                            x       y       z     vdW  Elec       q    Type
REMARK                         _______ _______ _______ _____ _____    ______ ____
ROOT
ATOM      1  C   UNL     1      85.687  53.654  42.266  0.00  0.00    -0.062 C 
ATOM      2  C   UNL     1      84.503  54.085  43.151  0.00  0.00    -0.040 C 
ATOM      3  C   UNL     1      83.653  55.158  42.445  0.00  0.00    -0.050 C 
ATOM      4  C   UNL     1      83.890  56.482  43.178  0.00  0.00    -0.046 C 
ATOM      5  C   UNL     1      85.021  56.220  44.169  0.00  0.00    -0.017 C 
ATOM      6  C   UNL     1      84.901  54.734  44.492  0.00  0.00    -0.028 C 
ATOM      7  C   UNL     1      86.205  54.209  45.136  0.00  0.00    -0.029 C 
ATOM      8  C   UNL     1      86.622  54.814  46.495  0.00  0.00    -0.032 C 
ATOM      9  C   UNL     1      86.182  53.337  46.399  0.00  0.00    -0.028 C 
ATOM     10  C   UNL     1      84.817  52.860  46.930  0.00  0.00    -0.059 C 
ATOM     11  C   UNL     1      87.310  52.298  46.450  0.00  0.00    -0.059 C 
ATOM     12  C   UNL     1      85.760  55.751  47.390  0.00  0.00    -0.046 C 
ATOM     13  C   UNL     1      84.617  56.567  46.755  0.00  0.00    -0.031 C 
ATOM     14  C   UNL     1      84.963  57.123  45.388  0.00  0.00    -0.073 C 
ATOM     15  C   UNL     1      85.282  58.421  45.257  0.00  0.00    -0.099 C 
ENDROOT
TORSDOF 0
ENDMDL
MODEL 2
REMARK VINA RESULT:    -7.169      2.417      5.612
REMARK INTER + INTRA:          -7.169
REMARK INTER:                  -7.169
REMARK INTRA:                   0.000
REMARK UNBOUND:                 0.000
REMARK  Name = 
REMARK  3 active torsions:
REMARK  status: ('A' for Active; 'I' for Inactive)
REMARK    1  A    between atoms: C_1  and  C_2
REMARK    2  A    between atoms: C_9  and  C_10
REMARK    3  A    between atoms: C_9  and  C_11
REMARK                            x       y       z     vdW  Elec       q    Type
REMARK                         _______ _______ _______ _____ _____    ______ ____
ROOT
ATOM      1  C   UNL     1      85.746  54.997  47.368  0.00  0.00    -0.062 C 
ATOM      2  C   UNL     1      85.089  53.604  47.364  0.00  0.00    -0.040 C 
ATOM      3  C   UNL     1      84.930  53.069  48.800  0.00  0.00    -0.050 C 
ATOM      4  C   UNL     1      85.932  51.922  48.971  0.00  0.00    -0.046 C 
ATOM      5  C   UNL     1      86.801  51.929  47.717  0.00  0.00    -0.017 C 
ATOM      6  C   UNL     1      85.896  52.511  46.635  0.00  0.00    -0.028 C 
ATOM      7  C   UNL     1      86.731  52.983  45.423  0.00  0.00    -0.029 C 
ATOM      8  C   UNL     1      87.530  51.912  44.648  0.00  0.00    -0.032 C 
ATOM      9  C   UNL     1      86.332  52.624  43.984  0.00  0.00    -0.028 C 
ATOM     10  C   UNL     1      84.986  51.909  43.760  0.00  0.00    -0.059 C 
ATOM     11  C   UNL     1      86.682  53.710  42.959  0.00  0.00    -0.059 C 
ATOM     12  C   UNL     1      87.424  50.370  44.831  0.00  0.00    -0.046 C 
ATOM     13  C   UNL     1      86.886  49.800  46.158  0.00  0.00    -0.031 C 
ATOM     14  C   UNL     1      87.365  50.560  47.378  0.00  0.00    -0.073 C 
ATOM     15  C   UNL     1      88.345  50.049  48.141  0.00  0.00    -0.099 C 
ENDROOT
TORSDOF 0
ENDMDL
MODEL 3
REMARK VINA RESULT:    -7.076      4.429      7.003
REMARK INTER + INTRA:          -7.076
REMARK INTER:                  -7.076
REMARK INTRA:                   0.000
REMARK UNBOUND:                 0.000
REMARK  Name = 
REMARK  3 active torsions:
REMARK  status: ('A' for Active; 'I' for Inactive)
REMARK    1  A    between atoms: C_1  and  C_2
REMARK    2  A    between atoms: C_9  and  C_10
REMARK    3  A    between atoms: C_9  and  C_11
REMARK                            x       y       z     vdW  Elec       q    Type
REMARK                         _______ _______ _______ _____ _____    ______ ____
ROOT
ATOM      1  C   UNL     1      86.546  48.950  45.414  0.00  0.00    -0.062 C 
ATOM      2  C   UNL     1      87.691  49.975  45.314  0.00  0.00    -0.040 C 
ATOM      3  C   UNL     1      87.193  51.389  45.669  0.00  0.00    -0.050 C 
ATOM      4  C   UNL     1      87.171  52.203  44.371  0.00  0.00    -0.046 C 
ATOM      5  C   UNL     1      87.456  51.213  43.246  0.00  0.00    -0.017 C 
ATOM      6  C   UNL     1      88.300  50.127  43.905  0.00  0.00    -0.028 C 
ATOM      7  C   UNL     1      88.320  48.848  43.037  0.00  0.00    -0.029 C 
ATOM      8  C   UNL     1      88.950  48.953  41.630  0.00  0.00    -0.032 C 
ATOM      9  C   UNL     1      89.628  48.106  42.729  0.00  0.00    -0.028 C 
ATOM     10  C   UNL     1      90.914  48.575  43.436  0.00  0.00    -0.059 C 
ATOM     11  C   UNL     1      89.459  46.587  42.603  0.00  0.00    -0.059 C 
ATOM     12  C   UNL     1      89.756  50.160  41.069  0.00  0.00    -0.046 C 
ATOM     13  C   UNL     1      89.557  51.558  41.684  0.00  0.00    -0.031 C 
ATOM     14  C   UNL     1      88.115  51.858  42.040  0.00  0.00    -0.073 C 
ATOM     15  C   UNL     1      87.385  52.659  41.247  0.00  0.00    -0.099 C 
ENDROOT
TORSDOF 0
ENDMDL
MODEL 4
REMARK VINA RESULT:    -7.053      1.235      4.108
REMARK INTER + INTRA:          -7.053
REMARK INTER:                  -7.053
REMARK INTRA:                   0.000
REMARK UNBOUND:                 0.000
REMARK  Name = 
REMARK  3 active torsions:
REMARK  status: ('A' for Active; 'I' for Inactive)
REMARK    1  A    between atoms: C_1  and  C_2
REMARK    2  A    between atoms: C_9  and  C_10
REMARK    3  A    between atoms: C_9  and  C_11
REMARK                            x       y       z     vdW  Elec       q    Type
REMARK                         _______ _______ _______ _____ _____    ______ ____
ROOT
ATOM      1  C   UNL     1      85.820  52.018  43.325  0.00  0.00    -0.062 C 
ATOM      2  C   UNL     1      86.861  52.681  44.245  0.00  0.00    -0.040 C 
ATOM      3  C   UNL     1      87.510  51.641  45.178  0.00  0.00    -0.050 C 
ATOM      4  C   UNL     1      86.988  51.910  46.593  0.00  0.00    -0.046 C 
ATOM      5  C   UNL     1      85.895  52.964  46.447  0.00  0.00    -0.017 C 
ATOM      6  C   UNL     1      86.292  53.749  45.201  0.00  0.00    -0.028 C 
ATOM      7  C   UNL     1      85.094  54.565  44.665  0.00  0.00    -0.029 C 
ATOM      8  C   UNL     1      84.514  55.666  45.582  0.00  0.00    -0.032 C 
ATOM      9  C   UNL     1      85.239  56.042  44.271  0.00  0.00    -0.028 C 
ATOM     10  C   UNL     1      86.650  56.660  44.274  0.00  0.00    -0.059 C 
ATOM     11  C   UNL     1      84.337  56.460  43.103  0.00  0.00    -0.059 C 
ATOM     12  C   UNL     1      85.140  56.183  46.910  0.00  0.00    -0.046 C 
ATOM     13  C   UNL     1      86.122  55.285  47.686  0.00  0.00    -0.031 C 
ATOM     14  C   UNL     1      85.727  53.823  47.689  0.00  0.00    -0.073 C 
ATOM     15  C   UNL     1      85.163  53.286  48.783  0.00  0.00    -0.099 C 
ENDROOT
TORSDOF 0
ENDMDL
MODEL 5
REMARK VINA RESULT:    -6.799      1.298      3.588
REMARK INTER + INTRA:          -6.799
REMARK INTER:                  -6.799
REMARK INTRA:                   0.000
REMARK UNBOUND:                 0.000
REMARK  Name = 
REMARK  3 active torsions:
REMARK  status: ('A' for Active; 'I' for Inactive)
REMARK    1  A    between atoms: C_1  and  C_2
REMARK    2  A    between atoms: C_9  and  C_10
REMARK    3  A    between atoms: C_9  and  C_11
REMARK                            x       y       z     vdW  Elec       q    Type
REMARK                         _______ _______ _______ _____ _____    ______ ____
ROOT
ATOM      1  C   UNL     1      85.717  56.658  46.767  0.00  0.00    -0.062 C 
ATOM      2  C   UNL     1      86.422  55.903  45.625  0.00  0.00    -0.040 C 
ATOM      3  C   UNL     1      86.332  56.694  44.306  0.00  0.00    -0.050 C 
ATOM      4  C   UNL     1      85.366  55.938  43.388  0.00  0.00    -0.046 C 
ATOM      5  C   UNL     1      84.749  54.834  44.240  0.00  0.00    -0.017 C 
ATOM      6  C   UNL     1      85.814  54.527  45.288  0.00  0.00    -0.028 C 
ATOM      7  C   UNL     1      85.203  53.749  46.476  0.00  0.00    -0.029 C 
ATOM      8  C   UNL     1      84.610  52.353  46.184  0.00  0.00    -0.032 C 
ATOM      9  C   UNL     1      85.880  52.496  47.050  0.00  0.00    -0.028 C 
ATOM     10  C   UNL     1      87.273  52.114  46.516  0.00  0.00    -0.059 C 
ATOM     11  C   UNL     1      85.682  52.328  48.562  0.00  0.00    -0.059 C 
ATOM     12  C   UNL     1      84.747  51.553  44.856  0.00  0.00    -0.046 C 
ATOM     13  C   UNL     1      85.049  52.305  43.545  0.00  0.00    -0.031 C 
ATOM     14  C   UNL     1      84.318  53.626  43.427  0.00  0.00    -0.073 C 
ATOM     15  C   UNL     1      83.235  53.721  42.638  0.00  0.00    -0.099 C 
ENDROOT
TORSDOF 0
ENDMDL
MODEL 6
REMARK VINA RESULT:    -6.627      2.125      4.796
REMARK INTER + INTRA:          -6.627
REMARK INTER:                  -6.627
REMARK INTRA:                   0.000
REMARK UNBOUND:                 0.000
REMARK  Name = 
REMARK  3 active torsions:
REMARK  status: ('A' for Active; 'I' for Inactive)
REMARK    1  A    between atoms: C_1  and  C_2
REMARK    2  A    between atoms: C_9  and  C_10
REMARK    3  A    between atoms: C_9  and  C_11
REMARK                            x       y       z     vdW  Elec       q    Type
REMARK                         _______ _______ _______ _____ _____    ______ ____
ROOT
ATOM      1  C   UNL     1      87.963  50.226  47.364  0.00  0.00    -0.062 C 
ATOM      2  C   UNL     1      86.863  50.212  46.286  0.00  0.00    -0.040 C 
ATOM      3  C   UNL     1      87.262  49.303  45.108  0.00  0.00    -0.050 C 
ATOM      4  C   UNL     1      87.566  50.213  43.914  0.00  0.00    -0.046 C 
ATOM      5  C   UNL     1      87.542  51.641  44.453  0.00  0.00    -0.017 C 
ATOM      6  C   UNL     1      86.579  51.580  45.634  0.00  0.00    -0.028 C 
ATOM      7  C   UNL     1      86.760  52.814  46.549  0.00  0.00    -0.029 C 
ATOM      8  C   UNL     1      86.455  54.202  45.941  0.00  0.00    -0.032 C 
ATOM      9  C   UNL     1      85.556  53.622  47.054  0.00  0.00    -0.028 C 
ATOM     10  C   UNL     1      84.143  53.085  46.758  0.00  0.00    -0.059 C 
ATOM     11  C   UNL     1      85.757  54.216  48.454  0.00  0.00    -0.059 C 
ATOM     12  C   UNL     1      85.786  54.477  44.563  0.00  0.00    -0.046 C 
ATOM     13  C   UNL     1      85.837  53.397  43.465  0.00  0.00    -0.031 C 
ATOM     14  C   UNL     1      87.163  52.667  43.400  0.00  0.00    -0.073 C 
ATOM     15  C   UNL     1      88.045  52.971  42.435  0.00  0.00    -0.099 C 
ENDROOT
TORSDOF 0
ENDMDL
MODEL 7
REMARK VINA RESULT:    -6.572      4.444      6.578
REMARK INTER + INTRA:          -6.572
REMARK INTER:                  -6.572
REMARK INTRA:                   0.000
REMARK UNBOUND:                 0.000
REMARK  Name = 
REMARK  3 active torsions:
REMARK  status: ('A' for Active; 'I' for Inactive)
REMARK    1  A    between atoms: C_1  and  C_2
REMARK    2  A    between atoms: C_9  and  C_10
REMARK    3  A    between atoms: C_9  and  C_11
REMARK                            x       y       z     vdW  Elec       q    Type
REMARK                         _______ _______ _______ _____ _____    ______ ____
ROOT
ATOM      1  C   UNL     1      90.836  48.561  44.035  0.00  0.00    -0.062 C 
ATOM      2  C   UNL     1      89.606  48.393  43.125  0.00  0.00    -0.040 C 
ATOM      3  C   UNL     1      90.018  48.398  41.640  0.00  0.00    -0.050 C 
ATOM      4  C   UNL     1      89.523  49.715  41.035  0.00  0.00    -0.046 C 
ATOM      5  C   UNL     1      89.010  50.551  42.204  0.00  0.00    -0.017 C 
ATOM      6  C   UNL     1      88.560  49.521  43.235  0.00  0.00    -0.028 C 
ATOM      7  C   UNL     1      88.415  50.172  44.629  0.00  0.00    -0.029 C 
ATOM      8  C   UNL     1      87.356  51.286  44.788  0.00  0.00    -0.032 C 
ATOM      9  C   UNL     1      87.176  49.930  45.503  0.00  0.00    -0.028 C 
ATOM     10  C   UNL     1      86.141  48.893  45.027  0.00  0.00    -0.059 C 
ATOM     11  C   UNL     1      87.476  49.922  47.007  0.00  0.00    -0.059 C 
ATOM     12  C   UNL     1      86.273  51.684  43.743  0.00  0.00    -0.046 C 
ATOM     13  C   UNL     1      86.492  51.344  42.256  0.00  0.00    -0.031 C 
ATOM     14  C   UNL     1      87.924  51.533  41.800  0.00  0.00    -0.073 C 
ATOM     15  C   UNL     1      88.258  52.616  41.079  0.00  0.00    -0.099 C 
ENDROOT
TORSDOF 0
ENDMDL
MODEL 8
REMARK VINA RESULT:    -6.407      5.692      8.355
REMARK INTER + INTRA:          -6.407
REMARK INTER:                  -6.407
REMARK INTRA:                   0.000
REMARK UNBOUND:                 0.000
REMARK  Name = 
REMARK  3 active torsions:
REMARK  status: ('A' for Active; 'I' for Inactive)
REMARK    1  A    between atoms: C_1  and  C_2
REMARK    2  A    between atoms: C_9  and  C_10
REMARK    3  A    between atoms: C_9  and  C_11
REMARK                            x       y       z     vdW  Elec       q    Type
REMARK                         _______ _______ _______ _____ _____    ______ ____
ROOT
ATOM      1  C   UNL     1      90.045  48.678  41.437  0.00  0.00    -0.062 C 
ATOM      2  C   UNL     1      89.715  47.901  42.725  0.00  0.00    -0.040 C 
ATOM      3  C   UNL     1      89.844  46.383  42.498  0.00  0.00    -0.050 C 
ATOM      4  C   UNL     1      88.428  45.798  42.511  0.00  0.00    -0.046 C 
ATOM      5  C   UNL     1      87.478  46.992  42.541  0.00  0.00    -0.017 C 
ATOM      6  C   UNL     1      88.274  48.088  43.242  0.00  0.00    -0.028 C 
ATOM      7  C   UNL     1      87.639  49.474  42.982  0.00  0.00    -0.029 C 
ATOM      8  C   UNL     1      86.206  49.711  43.511  0.00  0.00    -0.032 C 
ATOM      9  C   UNL     1      87.401  50.475  44.122  0.00  0.00    -0.028 C 
ATOM     10  C   UNL     1      87.955  50.133  45.518  0.00  0.00    -0.059 C 
ATOM     11  C   UNL     1      87.548  51.941  43.694  0.00  0.00    -0.059 C 
ATOM     12  C   UNL     1      85.408  48.772  44.461  0.00  0.00    -0.046 C 
ATOM     13  C   UNL     1      85.782  47.280  44.544  0.00  0.00    -0.031 C 
ATOM     14  C   UNL     1      86.149  46.676  43.204  0.00  0.00    -0.073 C 
ATOM     15  C   UNL     1      85.265  45.898  42.558  0.00  0.00    -0.099 C 
ENDROOT
TORSDOF 0
ENDMDL
MODEL 9
REMARK VINA RESULT:    -6.364      1.642      3.809
REMARK INTER + INTRA:          -6.364
REMARK INTER:                  -6.364
REMARK INTRA:                   0.000
REMARK UNBOUND:                 0.000
REMARK  Name = 
REMARK  3 active torsions:
REMARK  status: ('A' for Active; 'I' for Inactive)
REMARK    1  A    between atoms: C_1  and  C_2
REMARK    2  A    between atoms: C_9  and  C_10
REMARK    3  A    between atoms: C_9  and  C_11
REMARK                            x       y       z     vdW  Elec       q    Type
REMARK                         _______ _______ _______ _____ _____    ______ ____
ROOT
ATOM      1  C   UNL     1      84.577  53.550  48.126  0.00  0.00    -0.062 C 
ATOM      2  C   UNL     1      85.732  54.034  47.230  0.00  0.00    -0.040 C 
ATOM      3  C   UNL     1      86.107  55.491  47.559  0.00  0.00    -0.050 C 
ATOM      4  C   UNL     1      85.644  56.357  46.382  0.00  0.00    -0.046 C 
ATOM      5  C   UNL     1      84.829  55.438  45.477  0.00  0.00    -0.017 C 
ATOM      6  C   UNL     1      85.415  54.052  45.721  0.00  0.00    -0.028 C 
ATOM      7  C   UNL     1      84.447  52.954  45.221  0.00  0.00    -0.029 C 
ATOM      8  C   UNL     1      84.128  52.920  43.710  0.00  0.00    -0.032 C 
ATOM      9  C   UNL     1      84.939  51.780  44.363  0.00  0.00    -0.028 C 
ATOM     10  C   UNL     1      86.455  51.629  44.137  0.00  0.00    -0.059 C 
ATOM     11  C   UNL     1      84.175  50.473  44.612  0.00  0.00    -0.059 C 
ATOM     12  C   UNL     1      84.840  53.747  42.599  0.00  0.00    -0.046 C 
ATOM     13  C   UNL     1      85.575  55.047  42.975  0.00  0.00    -0.031 C 
ATOM     14  C   UNL     1      84.849  55.868  44.021  0.00  0.00    -0.073 C 
ATOM     15  C   UNL     1      84.161  56.961  43.652  0.00  0.00    -0.099 C 
ENDROOT
TORSDOF 0
ENDMDL
