MODEL 1
REMARK VINA RESULT:    -4.995      0.000      0.000
REMARK INTER + INTRA:          -6.574
REMARK INTER:                  -6.374
REMARK INTRA:                  -0.200
REMARK UNBOUND:                -0.266
REMARK  Name = 
REMARK  6 active torsions:
REMARK  status: ('A' for Active; 'I' for Inactive)
REMARK    1  A    between atoms: O_1  and  C_2
REMARK    2  A    between atoms: C_2  and  C_3
REMARK    3  A    between atoms: C_3  and  C_5
REMARK    4  A    between atoms: C_5  and  C_6
REMARK    5  A    between atoms: C_5  and  O_8
REMARK    6  A    between atoms: C_6  and  O_7
REMARK                            x       y       z     vdW  Elec       q    Type
REMARK                         _______ _______ _______ _____ _____    ______ ____
ROOT
ATOM      1  C   UNL     1      88.601  52.533  39.258  0.00  0.00    +0.101 C 
ENDROOT
BRANCH   1   2
ATOM      2  C   UNL     1      89.872  52.747  40.057  0.00  0.00    -0.021 C 
ATOM      3  C   UNL     1      90.038  52.127  41.237  0.00  0.00    -0.095 C 
BRANCH   2   4
ATOM      4  C   UNL     1      90.919  53.729  39.582  0.00  0.00    +0.067 C 
BRANCH   4   5
ATOM      5  O   UNL     1      90.659  55.005  40.103  0.00  0.00    -0.391 OA
ATOM      6  H   UNL     1      91.464  55.356  40.514  0.00  0.00    +0.000 HD
ENDBRANCH   4   5
ENDBRANCH   2   4
ENDBRANCH   1   2
BRANCH   1   7
ATOM      7  O   UNL     1      88.492  53.539  38.282  0.00  0.00    -0.385 OA
ATOM      8  H   UNL     1      88.368  53.132  37.411  0.00  0.00    +0.000 HD
ENDBRANCH   1   7
BRANCH   1   9
ATOM      9  C   UNL     1      87.382  52.561  40.187  0.00  0.00    +0.074 C 
BRANCH   9  10
ATOM     10  O   UNL     1      86.398  53.405  39.656  0.00  0.00    -0.392 OA
ATOM     11  H   UNL     1      85.539  53.186  40.049  0.00  0.00    +0.000 HD
ENDBRANCH   9  10
ENDBRANCH   1   9
TORSDOF 6
ENDMDL
MODEL 2
REMARK VINA RESULT:    -4.718     15.868     16.930
REMARK INTER + INTRA:          -6.224
REMARK INTER:                  -6.053
REMARK INTRA:                  -0.172
REMARK UNBOUND:                -0.266
REMARK  Name = 
REMARK  6 active torsions:
REMARK  status: ('A' for Active; 'I' for Inactive)
REMARK    1  A    between atoms: O_1  and  C_2
REMARK    2  A    between atoms: C_2  and  C_3
REMARK    3  A    between atoms: C_3  and  C_5
REMARK    4  A    between atoms: C_5  and  C_6
REMARK    5  A    between atoms: C_5  and  O_8
REMARK    6  A    between atoms: C_6  and  O_7
REMARK                            x       y       z     vdW  Elec       q    Type
REMARK                         _______ _______ _______ _____ _____    ______ ____
ROOT
ATOM      1  C   UNL     1      84.169  49.172  54.530  0.00  0.00    +0.101 C 
ENDROOT
BRANCH   1   2
ATOM      2  C   UNL     1      83.209  50.346  54.564  0.00  0.00    -0.021 C 
ATOM      3  C   UNL     1      82.873  50.974  53.424  0.00  0.00    -0.095 C 
BRANCH   2   4
ATOM      4  C   UNL     1      82.697  50.879  55.883  0.00  0.00    +0.067 C 
BRANCH   4   5
ATOM      5  O   UNL     1      81.654  50.072  56.359  0.00  0.00    -0.391 OA
ATOM      6  H   UNL     1      82.009  49.423  56.987  0.00  0.00    +0.000 HD
ENDBRANCH   4   5
ENDBRANCH   2   4
ENDBRANCH   1   2
BRANCH   1   7
ATOM      7  O   UNL     1      83.437  47.974  54.587  0.00  0.00    -0.385 OA
ATOM      8  H   UNL     1      82.502  48.174  54.750  0.00  0.00    +0.000 HD
ENDBRANCH   1   7
BRANCH   1   9
ATOM      9  C   UNL     1      85.145  49.254  55.710  0.00  0.00    +0.074 C 
BRANCH   9  10
ATOM     10  O   UNL     1      86.217  48.376  55.502  0.00  0.00    -0.392 OA
ATOM     11  H   UNL     1      86.268  47.750  56.241  0.00  0.00    +0.000 HD
ENDBRANCH   9  10
ENDBRANCH   1   9
TORSDOF 6
ENDMDL
MODEL 3
REMARK VINA RESULT:    -4.453      1.436      3.279
REMARK INTER + INTRA:          -5.890
REMARK INTER:                  -5.814
REMARK INTRA:                  -0.076
REMARK UNBOUND:                -0.266
REMARK  Name = 
REMARK  6 active torsions:
REMARK  status: ('A' for Active; 'I' for Inactive)
REMARK    1  A    between atoms: O_1  and  C_2
REMARK    2  A    between atoms: C_2  and  C_3
REMARK    3  A    between atoms: C_3  and  C_5
REMARK    4  A    between atoms: C_5  and  C_6
REMARK    5  A    between atoms: C_5  and  O_8
REMARK    6  A    between atoms: C_6  and  O_7
REMARK                            x       y       z     vdW  Elec       q    Type
REMARK                         _______ _______ _______ _____ _____    ______ ____
ROOT
ATOM      1  C   UNL     1      90.959  53.726  40.087  0.00  0.00    +0.101 C 
ENDROOT
BRANCH   1   2
ATOM      2  C   UNL     1      89.748  52.870  40.405  0.00  0.00    -0.021 C 
ATOM      3  C   UNL     1      89.070  53.061  41.549  0.00  0.00    -0.095 C 
BRANCH   2   4
ATOM      4  C   UNL     1      89.351  51.735  39.488  0.00  0.00    +0.067 C 
BRANCH   4   5
ATOM      5  O   UNL     1      88.360  52.161  38.592  0.00  0.00    -0.391 OA
ATOM      6  H   UNL     1      87.992  53.006  38.896  0.00  0.00    +0.000 HD
ENDBRANCH   4   5
ENDBRANCH   2   4
ENDBRANCH   1   2
BRANCH   1   7
ATOM      7  O   UNL     1      90.599  55.083  40.162  0.00  0.00    -0.385 OA
ATOM      8  H   UNL     1      90.328  55.395  39.285  0.00  0.00    +0.000 HD
ENDBRANCH   1   7
BRANCH   1   9
ATOM      9  C   UNL     1      91.487  53.395  38.686  0.00  0.00    +0.074 C 
BRANCH   9  10
ATOM     10  O   UNL     1      90.839  54.190  37.732  0.00  0.00    -0.392 OA
ATOM     11  H   UNL     1      91.163  53.961  36.847  0.00  0.00    +0.000 HD
ENDBRANCH   9  10
ENDBRANCH   1   9
TORSDOF 6
ENDMDL
MODEL 4
REMARK VINA RESULT:    -4.354      1.597      2.837
REMARK INTER + INTRA:          -5.765
REMARK INTER:                  -5.470
REMARK INTRA:                  -0.295
REMARK UNBOUND:                -0.266
REMARK  Name = 
REMARK  6 active torsions:
REMARK  status: ('A' for Active; 'I' for Inactive)
REMARK    1  A    between atoms: O_1  and  C_2
REMARK    2  A    between atoms: C_2  and  C_3
REMARK    3  A    between atoms: C_3  and  C_5
REMARK    4  A    between atoms: C_5  and  C_6
REMARK    5  A    between atoms: C_5  and  O_8
REMARK    6  A    between atoms: C_6  and  O_7
REMARK                            x       y       z     vdW  Elec       q    Type
REMARK                         _______ _______ _______ _____ _____    ______ ____
ROOT
ATOM      1  C   UNL     1      89.358  52.910  39.731  0.00  0.00    +0.101 C 
ENDROOT
BRANCH   1   2
ATOM      2  C   UNL     1      89.320  52.313  41.125  0.00  0.00    -0.021 C 
ATOM      3  C   UNL     1      90.106  51.266  41.431  0.00  0.00    -0.095 C 
BRANCH   2   4
ATOM      4  C   UNL     1      88.335  52.825  42.151  0.00  0.00    +0.067 C 
BRANCH   4   5
ATOM      5  O   UNL     1      88.331  54.227  42.161  0.00  0.00    -0.391 OA
ATOM      6  H   UNL     1      87.591  54.544  42.703  0.00  0.00    +0.000 HD
ENDBRANCH   4   5
ENDBRANCH   2   4
ENDBRANCH   1   2
BRANCH   1   7
ATOM      7  O   UNL     1      89.208  51.883  38.783  0.00  0.00    -0.385 OA
ATOM      8  H   UNL     1      89.457  51.035  39.183  0.00  0.00    +0.000 HD
ENDBRANCH   1   7
BRANCH   1   9
ATOM      9  C   UNL     1      90.683  53.648  39.509  0.00  0.00    +0.074 C 
BRANCH   9  10
ATOM     10  O   UNL     1      90.660  54.880  40.176  0.00  0.00    -0.392 OA
ATOM     11  H   UNL     1      90.035  55.474  39.733  0.00  0.00    +0.000 HD
ENDBRANCH   9  10
ENDBRANCH   1   9
TORSDOF 6
ENDMDL
MODEL 5
REMARK VINA RESULT:    -4.182      1.833      3.247
REMARK INTER + INTRA:          -5.548
REMARK INTER:                  -5.283
REMARK INTRA:                  -0.265
REMARK UNBOUND:                -0.266
REMARK  Name = 
REMARK  6 active torsions:
REMARK  status: ('A' for Active; 'I' for Inactive)
REMARK    1  A    between atoms: O_1  and  C_2
REMARK    2  A    between atoms: C_2  and  C_3
REMARK    3  A    between atoms: C_3  and  C_5
REMARK    4  A    between atoms: C_5  and  C_6
REMARK    5  A    between atoms: C_5  and  O_8
REMARK    6  A    between atoms: C_6  and  O_7
REMARK                            x       y       z     vdW  Elec       q    Type
REMARK                         _______ _______ _______ _____ _____    ______ ____
ROOT
ATOM      1  C   UNL     1      89.168  53.038  39.719  0.00  0.00    +0.101 C 
ENDROOT
BRANCH   1   2
ATOM      2  C   UNL     1      88.977  52.315  41.039  0.00  0.00    -0.021 C 
ATOM      3  C   UNL     1      88.487  52.974  42.102  0.00  0.00    -0.095 C 
BRANCH   2   4
ATOM      4  C   UNL     1      89.423  50.879  41.198  0.00  0.00    +0.067 C 
BRANCH   4   5
ATOM      5  O   UNL     1      88.430  50.009  40.723  0.00  0.00    -0.391 OA
ATOM      6  H   UNL     1      88.761  49.097  40.749  0.00  0.00    +0.000 HD
ENDBRANCH   4   5
ENDBRANCH   2   4
ENDBRANCH   1   2
BRANCH   1   7
ATOM      7  O   UNL     1      88.904  52.149  38.662  0.00  0.00    -0.385 OA
ATOM      8  H   UNL     1      87.998  51.811  38.744  0.00  0.00    +0.000 HD
ENDBRANCH   1   7
BRANCH   1   9
ATOM      9  C   UNL     1      90.599  53.576  39.614  0.00  0.00    +0.074 C 
BRANCH   9  10
ATOM     10  O   UNL     1      90.648  54.895  40.084  0.00  0.00    -0.392 OA
ATOM     11  H   UNL     1      91.545  55.094  40.393  0.00  0.00    +0.000 HD
ENDBRANCH   9  10
ENDBRANCH   1   9
TORSDOF 6
ENDMDL
MODEL 6
REMARK VINA RESULT:    -4.102      6.955      7.744
REMARK INTER + INTRA:          -5.447
REMARK INTER:                  -4.942
REMARK INTRA:                  -0.505
REMARK UNBOUND:                -0.266
REMARK  Name = 
REMARK  6 active torsions:
REMARK  status: ('A' for Active; 'I' for Inactive)
REMARK    1  A    between atoms: O_1  and  C_2
REMARK    2  A    between atoms: C_2  and  C_3
REMARK    3  A    between atoms: C_3  and  C_5
REMARK    4  A    between atoms: C_5  and  C_6
REMARK    5  A    between atoms: C_5  and  O_8
REMARK    6  A    between atoms: C_6  and  O_7
REMARK                            x       y       z     vdW  Elec       q    Type
REMARK                         _______ _______ _______ _____ _____    ______ ____
ROOT
ATOM      1  C   UNL     1      85.998  57.119  44.016  0.00  0.00    +0.101 C 
ENDROOT
BRANCH   1   2
ATOM      2  C   UNL     1      85.663  57.303  45.484  0.00  0.00    -0.021 C 
ATOM      3  C   UNL     1      85.764  56.267  46.333  0.00  0.00    -0.095 C 
BRANCH   2   4
ATOM      4  C   UNL     1      85.124  58.624  45.987  0.00  0.00    +0.067 C 
BRANCH   4   5
ATOM      5  O   UNL     1      84.054  59.047  45.186  0.00  0.00    -0.391 OA
ATOM      6  H   UNL     1      84.111  58.617  44.318  0.00  0.00    +0.000 HD
ENDBRANCH   4   5
ENDBRANCH   2   4
ENDBRANCH   1   2
BRANCH   1   7
ATOM      7  O   UNL     1      85.925  58.362  43.365  0.00  0.00    -0.385 OA
ATOM      8  H   UNL     1      86.510  58.995  43.810  0.00  0.00    +0.000 HD
ENDBRANCH   1   7
BRANCH   1   9
ATOM      9  C   UNL     1      85.025  56.124  43.373  0.00  0.00    +0.074 C 
BRANCH   9  10
ATOM     10  O   UNL     1      83.727  56.652  43.386  0.00  0.00    -0.392 OA
ATOM     11  H   UNL     1      83.116  55.995  43.755  0.00  0.00    +0.000 HD
ENDBRANCH   9  10
ENDBRANCH   1   9
TORSDOF 6
ENDMDL
MODEL 7
REMARK VINA RESULT:    -3.820      8.261      9.128
REMARK INTER + INTRA:          -5.090
REMARK INTER:                  -4.870
REMARK INTRA:                  -0.220
REMARK UNBOUND:                -0.266
REMARK  Name = 
REMARK  6 active torsions:
REMARK  status: ('A' for Active; 'I' for Inactive)
REMARK    1  A    between atoms: O_1  and  C_2
REMARK    2  A    between atoms: C_2  and  C_3
REMARK    3  A    between atoms: C_3  and  C_5
REMARK    4  A    between atoms: C_5  and  C_6
REMARK    5  A    between atoms: C_5  and  O_8
REMARK    6  A    between atoms: C_6  and  O_7
REMARK                            x       y       z     vdW  Elec       q    Type
REMARK                         _______ _______ _______ _____ _____    ______ ____
ROOT
ATOM      1  C   UNL     1      83.831  56.454  46.313  0.00  0.00    +0.101 C 
ENDROOT
BRANCH   1   2
ATOM      2  C   UNL     1      85.226  56.985  46.041  0.00  0.00    -0.021 C 
ATOM      3  C   UNL     1      86.294  56.188  46.211  0.00  0.00    -0.095 C 
BRANCH   2   4
ATOM      4  C   UNL     1      85.434  58.436  45.670  0.00  0.00    +0.067 C 
BRANCH   4   5
ATOM      5  O   UNL     1      84.293  58.941  45.031  0.00  0.00    -0.391 OA
ATOM      6  H   UNL     1      84.041  58.349  44.305  0.00  0.00    +0.000 HD
ENDBRANCH   4   5
ENDBRANCH   2   4
ENDBRANCH   1   2
BRANCH   1   7
ATOM      7  O   UNL     1      83.070  57.453  46.946  0.00  0.00    -0.385 OA
ATOM      8  H   UNL     1      82.256  57.062  47.300  0.00  0.00    +0.000 HD
ENDBRANCH   1   7
BRANCH   1   9
ATOM      9  C   UNL     1      83.904  55.203  47.196  0.00  0.00    +0.074 C 
BRANCH   9  10
ATOM     10  O   UNL     1      83.804  55.566  48.545  0.00  0.00    -0.392 OA
ATOM     11  H   UNL     1      84.447  56.267  48.739  0.00  0.00    +0.000 HD
ENDBRANCH   9  10
ENDBRANCH   1   9
TORSDOF 6
ENDMDL
MODEL 8
REMARK VINA RESULT:    -3.613      8.151      9.298
REMARK INTER + INTRA:          -4.829
REMARK INTER:                  -4.563
REMARK INTRA:                  -0.266
REMARK UNBOUND:                -0.266
REMARK  Name = 
REMARK  6 active torsions:
REMARK  status: ('A' for Active; 'I' for Inactive)
REMARK    1  A    between atoms: O_1  and  C_2
REMARK    2  A    between atoms: C_2  and  C_3
REMARK    3  A    between atoms: C_3  and  C_5
REMARK    4  A    between atoms: C_5  and  C_6
REMARK    5  A    between atoms: C_5  and  O_8
REMARK    6  A    between atoms: C_6  and  O_7
REMARK                            x       y       z     vdW  Elec       q    Type
REMARK                         _______ _______ _______ _____ _____    ______ ____
ROOT
ATOM      1  C   UNL     1      84.478  57.286  46.592  0.00  0.00    +0.101 C 
ENDROOT
BRANCH   1   2
ATOM      2  C   UNL     1      84.639  55.798  46.349  0.00  0.00    -0.021 C 
ATOM      3  C   UNL     1      84.842  55.337  45.103  0.00  0.00    -0.095 C 
BRANCH   2   4
ATOM      4  C   UNL     1      84.480  54.815  47.486  0.00  0.00    +0.067 C 
BRANCH   4   5
ATOM      5  O   UNL     1      83.901  55.447  48.596  0.00  0.00    -0.391 OA
ATOM      6  H   UNL     1      84.248  56.349  48.671  0.00  0.00    +0.000 HD
ENDBRANCH   4   5
ENDBRANCH   2   4
ENDBRANCH   1   2
BRANCH   1   7
ATOM      7  O   UNL     1      83.112  57.589  46.726  0.00  0.00    -0.385 OA
ATOM      8  H   UNL     1      82.822  58.115  45.964  0.00  0.00    +0.000 HD
ENDBRANCH   1   7
BRANCH   1   9
ATOM      9  C   UNL     1      85.087  58.081  45.430  0.00  0.00    +0.074 C 
BRANCH   9  10
ATOM     10  O   UNL     1      84.230  59.128  45.069  0.00  0.00    -0.392 OA
ATOM     11  H   UNL     1      84.581  59.965  45.412  0.00  0.00    +0.000 HD
ENDBRANCH   9  10
ENDBRANCH   1   9
TORSDOF 6
ENDMDL
MODEL 9
REMARK VINA RESULT:    -3.588      6.666      7.454
REMARK INTER + INTRA:          -4.798
REMARK INTER:                  -4.571
REMARK INTRA:                  -0.227
REMARK UNBOUND:                -0.266
REMARK  Name = 
REMARK  6 active torsions:
REMARK  status: ('A' for Active; 'I' for Inactive)
REMARK    1  A    between atoms: O_1  and  C_2
REMARK    2  A    between atoms: C_2  and  C_3
REMARK    3  A    between atoms: C_3  and  C_5
REMARK    4  A    between atoms: C_5  and  C_6
REMARK    5  A    between atoms: C_5  and  O_8
REMARK    6  A    between atoms: C_6  and  O_7
REMARK                            x       y       z     vdW  Elec       q    Type
REMARK                         _______ _______ _______ _____ _____    ______ ____
ROOT
ATOM      1  C   UNL     1      85.225  57.704  44.465  0.00  0.00    +0.101 C 
ENDROOT
BRANCH   1   2
ATOM      2  C   UNL     1      85.916  56.377  44.712  0.00  0.00    -0.021 C 
ATOM      3  C   UNL     1      86.254  56.016  45.961  0.00  0.00    -0.095 C 
BRANCH   2   4
ATOM      4  C   UNL     1      86.314  55.493  43.551  0.00  0.00    +0.067 C 
BRANCH   4   5
ATOM      5  O   UNL     1      85.524  55.781  42.429  0.00  0.00    -0.391 OA
ATOM      6  H   UNL     1      86.097  55.998  41.677  0.00  0.00    +0.000 HD
ENDBRANCH   4   5
ENDBRANCH   2   4
ENDBRANCH   1   2
BRANCH   1   7
ATOM      7  O   UNL     1      85.993  58.466  43.567  0.00  0.00    -0.385 OA
ATOM      8  H   UNL     1      86.804  57.983  43.345  0.00  0.00    +0.000 HD
ENDBRANCH   1   7
BRANCH   1   9
ATOM      9  C   UNL     1      85.047  58.461  45.786  0.00  0.00    +0.074 C 
BRANCH   9  10
ATOM     10  O   UNL     1      83.746  58.274  46.270  0.00  0.00    -0.392 OA
ATOM     11  H   UNL     1      83.629  57.347  46.530  0.00  0.00    +0.000 HD
ENDBRANCH   9  10
ENDBRANCH   1   9
TORSDOF 6
ENDMDL
