MODEL 1
REMARK VINA RESULT:    -7.467      0.000      0.000
REMARK INTER + INTRA:         -15.685
REMARK INTER:                 -14.374
REMARK INTRA:                  -1.311
REMARK UNBOUND:                -1.888
REMARK  Name = 
REMARK  16 active torsions:
REMARK  status: ('A' for Active; 'I' for Inactive)
REMARK    1  A    between atoms: O_1  and  C_2
REMARK    2  A    between atoms: C_2  and  C_3
REMARK    3  A    between atoms: C_3  and  C_4
REMARK    4  A    between atoms: C_5  and  C_6
REMARK    5  A    between atoms: C_6  and  C_7
REMARK    6  A    between atoms: C_8  and  C_9
REMARK    7  A    between atoms: C_9  and  C_10
REMARK    8  A    between atoms: C_11  and  C_12
REMARK    9  A    between atoms: C_12  and  C_13
REMARK   10  A    between atoms: C_13  and  C_14
REMARK   11  A    between atoms: C_14  and  C_15
REMARK   12  A    between atoms: C_15  and  C_16
REMARK   13  A    between atoms: C_16  and  C_17
REMARK   14  A    between atoms: C_17  and  C_18
REMARK   15  A    between atoms: C_19  and  O_20
REMARK   16  A    between atoms: O_20  and  C_21
REMARK                            x       y       z     vdW  Elec       q    Type
REMARK                         _______ _______ _______ _____ _____    ______ ____
ROOT
ATOM      1  C   UNL     1      87.297  43.965  42.463  0.00  0.00    -0.050 C 
ENDROOT
BRANCH   1   2
ATOM      2  C   UNL     1      88.406  45.022  42.355  0.00  0.00    -0.035 C 
BRANCH   2   4
ATOM      3  C   UNL     1      88.608  47.455  41.674  0.00  0.00    -0.084 C 
ATOM      4  C   UNL     1      87.869  46.407  42.083  0.00  0.00    -0.088 C 
BRANCH   3   5
ATOM      5  C   UNL     1      90.105  47.429  41.487  0.00  0.00    -0.017 C 
BRANCH   5   7
ATOM      6  C   UNL     1      90.477  49.777  42.331  0.00  0.00    -0.084 C 
ATOM      7  C   UNL     1      90.764  48.462  42.362  0.00  0.00    -0.084 C 
BRANCH   6   8
ATOM      8  C   UNL     1      89.485  50.413  41.387  0.00  0.00    -0.017 C 
BRANCH   8  10
ATOM      9  C   UNL     1      89.509  52.899  40.921  0.00  0.00    -0.085 C 
ATOM     10  C   UNL     1      89.256  51.861  41.741  0.00  0.00    -0.084 C 
BRANCH   9  11
ATOM     11  C   UNL     1      90.138  52.779  39.555  0.00  0.00    -0.011 C 
BRANCH  11  12
ATOM     12  C   UNL     1      90.876  54.062  39.170  0.00  0.00    +0.048 C 
BRANCH  12  13
ATOM     13  O   UNL     1      90.736  55.019  40.184  0.00  0.00    -0.395 OA
ATOM     14  H   UNL     1      90.943  55.897  39.831  0.00  0.00    +0.000 HD
ENDBRANCH  12  13
ENDBRANCH  11  12
ENDBRANCH   9  11
ENDBRANCH   8  10
ENDBRANCH   6   8
ENDBRANCH   5   7
ENDBRANCH   3   5
ENDBRANCH   2   4
ENDBRANCH   1   2
BRANCH   1  15
ATOM     15  C   UNL     1      86.755  43.839  43.899  0.00  0.00    -0.053 C 
BRANCH  15  16
ATOM     16  C   UNL     1      85.226  43.979  43.966  0.00  0.00    -0.053 C 
BRANCH  16  17
ATOM     17  C   UNL     1      84.777  45.416  44.268  0.00  0.00    -0.049 C 
BRANCH  17  18
ATOM     18  C   UNL     1      84.275  46.105  42.996  0.00  0.00    -0.017 C 
BRANCH  18  19
ATOM     19  C   UNL     1      83.629  47.420  43.327  0.00  0.00    +0.082 C 
ATOM     20  C   UNL     1      84.252  48.574  43.550  0.00  0.00    +0.172 C 
ATOM     21  C   UNL     1      83.225  49.604  43.797  0.00  0.00    +0.167 C 
ATOM     22  C   UNL     1      83.397  50.911  43.968  0.00  0.00    -0.052 C 
ATOM     23  O   UNL     1      81.971  49.006  43.754  0.00  0.00    -0.419 OA
ATOM     24  C   UNL     1      82.197  47.673  43.453  0.00  0.00    +0.344 C 
ATOM     25  O   UNL     1      81.283  46.818  43.314  0.00  0.00    -0.245 OA
BRANCH  20  26
ATOM     26  O   UNL     1      85.645  48.715  43.538  0.00  0.00    -0.491 OA
ATOM     27  C   UNL     1      86.420  48.912  44.715  0.00  0.00    +0.079 C 
ENDBRANCH  20  26
ENDBRANCH  18  19
ENDBRANCH  17  18
ENDBRANCH  16  17
ENDBRANCH  15  16
ENDBRANCH   1  15
TORSDOF 15
ENDMDL
MODEL 2
REMARK VINA RESULT:    -7.332      4.121      6.876
REMARK INTER + INTRA:         -15.436
REMARK INTER:                 -13.278
REMARK INTRA:                  -2.158
REMARK UNBOUND:                -1.888
REMARK  Name = 
REMARK  16 active torsions:
REMARK  status: ('A' for Active; 'I' for Inactive)
REMARK    1  A    between atoms: O_1  and  C_2
REMARK    2  A    between atoms: C_2  and  C_3
REMARK    3  A    between atoms: C_3  and  C_4
REMARK    4  A    between atoms: C_5  and  C_6
REMARK    5  A    between atoms: C_6  and  C_7
REMARK    6  A    between atoms: C_8  and  C_9
REMARK    7  A    between atoms: C_9  and  C_10
REMARK    8  A    between atoms: C_11  and  C_12
REMARK    9  A    between atoms: C_12  and  C_13
REMARK   10  A    between atoms: C_13  and  C_14
REMARK   11  A    between atoms: C_14  and  C_15
REMARK   12  A    between atoms: C_15  and  C_16
REMARK   13  A    between atoms: C_16  and  C_17
REMARK   14  A    between atoms: C_17  and  C_18
REMARK   15  A    between atoms: C_19  and  O_20
REMARK   16  A    between atoms: O_20  and  C_21
REMARK                            x       y       z     vdW  Elec       q    Type
REMARK                         _______ _______ _______ _____ _____    ______ ____
ROOT
ATOM      1  C   UNL     1      85.957  52.548  49.053  0.00  0.00    -0.050 C 
ENDROOT
BRANCH   1   2
ATOM      2  C   UNL     1      85.873  51.409  48.025  0.00  0.00    -0.035 C 
BRANCH   2   4
ATOM      3  C   UNL     1      88.001  50.538  46.958  0.00  0.00    -0.084 C 
ATOM      4  C   UNL     1      87.127  50.569  47.981  0.00  0.00    -0.088 C 
BRANCH   3   5
ATOM      5  C   UNL     1      87.831  51.291  45.661  0.00  0.00    -0.017 C 
BRANCH   5   7
ATOM      6  C   UNL     1      87.494  50.299  43.366  0.00  0.00    -0.084 C 
ATOM      7  C   UNL     1      87.109  50.442  44.648  0.00  0.00    -0.084 C 
BRANCH   6   8
ATOM      8  C   UNL     1      88.679  51.001  42.746  0.00  0.00    -0.017 C 
BRANCH   8  10
ATOM      9  C   UNL     1      88.999  53.088  41.355  0.00  0.00    -0.085 C 
ATOM     10  C   UNL     1      88.296  52.374  42.255  0.00  0.00    -0.084 C 
BRANCH   9  11
ATOM     11  C   UNL     1      90.319  52.661  40.763  0.00  0.00    -0.011 C 
BRANCH  11  12
ATOM     12  C   UNL     1      90.840  53.695  39.765  0.00  0.00    +0.048 C 
BRANCH  12  13
ATOM     13  O   UNL     1      90.600  54.989  40.246  0.00  0.00    -0.395 OA
ATOM     14  H   UNL     1      89.645  55.133  40.322  0.00  0.00    +0.000 HD
ENDBRANCH  12  13
ENDBRANCH  11  12
ENDBRANCH   9  11
ENDBRANCH   8  10
ENDBRANCH   6   8
ENDBRANCH   5   7
ENDBRANCH   3   5
ENDBRANCH   2   4
ENDBRANCH   1   2
BRANCH   1  15
ATOM     15  C   UNL     1      85.219  53.812  48.577  0.00  0.00    -0.053 C 
BRANCH  15  16
ATOM     16  C   UNL     1      85.924  54.499  47.397  0.00  0.00    -0.053 C 
BRANCH  16  17
ATOM     17  C   UNL     1      85.074  54.498  46.118  0.00  0.00    -0.049 C 
BRANCH  17  18
ATOM     18  C   UNL     1      85.953  54.275  44.884  0.00  0.00    -0.017 C 
BRANCH  18  19
ATOM     19  C   UNL     1      85.272  54.794  43.650  0.00  0.00    +0.082 C 
ATOM     20  C   UNL     1      84.460  54.112  42.848  0.00  0.00    +0.172 C 
ATOM     21  C   UNL     1      83.994  55.027  41.789  0.00  0.00    +0.167 C 
ATOM     22  C   UNL     1      83.097  54.791  40.835  0.00  0.00    -0.052 C 
ATOM     23  O   UNL     1      84.594  56.267  41.971  0.00  0.00    -0.419 OA
ATOM     24  C   UNL     1      85.369  56.148  43.113  0.00  0.00    +0.344 C 
ATOM     25  O   UNL     1      86.052  57.086  43.601  0.00  0.00    -0.245 OA
BRANCH  20  26
ATOM     26  O   UNL     1      84.147  52.760  43.033  0.00  0.00    -0.491 OA
ATOM     27  C   UNL     1      84.491  51.742  42.100  0.00  0.00    +0.079 C 
ENDBRANCH  20  26
ENDBRANCH  18  19
ENDBRANCH  17  18
ENDBRANCH  16  17
ENDBRANCH  15  16
ENDBRANCH   1  15
TORSDOF 15
ENDMDL
MODEL 3
REMARK VINA RESULT:    -7.235      3.341      4.809
REMARK INTER + INTRA:         -15.256
REMARK INTER:                 -13.402
REMARK INTRA:                  -1.854
REMARK UNBOUND:                -1.888
REMARK  Name = 
REMARK  16 active torsions:
REMARK  status: ('A' for Active; 'I' for Inactive)
REMARK    1  A    between atoms: O_1  and  C_2
REMARK    2  A    between atoms: C_2  and  C_3
REMARK    3  A    between atoms: C_3  and  C_4
REMARK    4  A    between atoms: C_5  and  C_6
REMARK    5  A    between atoms: C_6  and  C_7
REMARK    6  A    between atoms: C_8  and  C_9
REMARK    7  A    between atoms: C_9  and  C_10
REMARK    8  A    between atoms: C_11  and  C_12
REMARK    9  A    between atoms: C_12  and  C_13
REMARK   10  A    between atoms: C_13  and  C_14
REMARK   11  A    between atoms: C_14  and  C_15
REMARK   12  A    between atoms: C_15  and  C_16
REMARK   13  A    between atoms: C_16  and  C_17
REMARK   14  A    between atoms: C_17  and  C_18
REMARK   15  A    between atoms: C_19  and  O_20
REMARK   16  A    between atoms: O_20  and  C_21
REMARK                            x       y       z     vdW  Elec       q    Type
REMARK                         _______ _______ _______ _____ _____    ______ ____
ROOT
ATOM      1  C   UNL     1      86.209  48.022  44.034  0.00  0.00    -0.050 C 
ENDROOT
BRANCH   1   2
ATOM      2  C   UNL     1      86.182  47.304  42.675  0.00  0.00    -0.035 C 
BRANCH   2   4
ATOM      3  C   UNL     1      88.390  46.214  42.076  0.00  0.00    -0.084 C 
ATOM      4  C   UNL     1      87.154  46.151  42.605  0.00  0.00    -0.088 C 
BRANCH   3   5
ATOM      5  C   UNL     1      88.977  47.433  41.408  0.00  0.00    -0.017 C 
BRANCH   5   7
ATOM      6  C   UNL     1      90.530  49.288  42.125  0.00  0.00    -0.084 C 
ATOM      7  C   UNL     1      90.060  48.034  42.265  0.00  0.00    -0.084 C 
BRANCH   6   8
ATOM      8  C   UNL     1      90.072  50.258  41.062  0.00  0.00    -0.017 C 
BRANCH   8  10
ATOM      9  C   UNL     1      89.514  52.724  40.985  0.00  0.00    -0.085 C 
ATOM     10  C   UNL     1      89.671  51.577  41.674  0.00  0.00    -0.084 C 
BRANCH   9  11
ATOM     11  C   UNL     1      89.795  52.884  39.511  0.00  0.00    -0.011 C 
BRANCH  11  12
ATOM     12  C   UNL     1      90.870  53.943  39.264  0.00  0.00    +0.048 C 
BRANCH  12  13
ATOM     13  O   UNL     1      90.713  55.005  40.165  0.00  0.00    -0.395 OA
ATOM     14  H   UNL     1      91.123  54.773  41.012  0.00  0.00    +0.000 HD
ENDBRANCH  12  13
ENDBRANCH  11  12
ENDBRANCH   9  11
ENDBRANCH   8  10
ENDBRANCH   6   8
ENDBRANCH   5   7
ENDBRANCH   3   5
ENDBRANCH   2   4
ENDBRANCH   1   2
BRANCH   1  15
ATOM     15  C   UNL     1      86.329  49.549  43.879  0.00  0.00    -0.053 C 
BRANCH  15  16
ATOM     16  C   UNL     1      87.716  50.075  44.280  0.00  0.00    -0.053 C 
BRANCH  16  17
ATOM     17  C   UNL     1      87.704  50.803  45.632  0.00  0.00    -0.049 C 
BRANCH  17  18
ATOM     18  C   UNL     1      86.269  50.993  46.132  0.00  0.00    -0.017 C 
BRANCH  18  19
ATOM     19  C   UNL     1      86.115  52.329  46.801  0.00  0.00    +0.082 C 
ATOM     20  C   UNL     1      86.223  53.522  46.221  0.00  0.00    +0.172 C 
ATOM     21  C   UNL     1      85.957  54.550  47.245  0.00  0.00    +0.167 C 
ATOM     22  C   UNL     1      85.865  55.866  47.083  0.00  0.00    -0.052 C 
ATOM     23  O   UNL     1      85.729  53.921  48.464  0.00  0.00    -0.419 OA
ATOM     24  C   UNL     1      85.807  52.561  48.209  0.00  0.00    +0.344 C 
ATOM     25  O   UNL     1      85.635  51.670  49.081  0.00  0.00    -0.245 OA
BRANCH  20  26
ATOM     26  O   UNL     1      86.539  53.698  44.869  0.00  0.00    -0.491 OA
ATOM     27  C   UNL     1      85.562  53.931  43.861  0.00  0.00    +0.079 C 
ENDBRANCH  20  26
ENDBRANCH  18  19
ENDBRANCH  17  18
ENDBRANCH  16  17
ENDBRANCH  15  16
ENDBRANCH   1  15
TORSDOF 15
ENDMDL
MODEL 4
REMARK VINA RESULT:    -7.233      2.391      5.426
REMARK INTER + INTRA:         -15.252
REMARK INTER:                 -12.560
REMARK INTRA:                  -2.692
REMARK UNBOUND:                -1.888
REMARK  Name = 
REMARK  16 active torsions:
REMARK  status: ('A' for Active; 'I' for Inactive)
REMARK    1  A    between atoms: O_1  and  C_2
REMARK    2  A    between atoms: C_2  and  C_3
REMARK    3  A    between atoms: C_3  and  C_4
REMARK    4  A    between atoms: C_5  and  C_6
REMARK    5  A    between atoms: C_6  and  C_7
REMARK    6  A    between atoms: C_8  and  C_9
REMARK    7  A    between atoms: C_9  and  C_10
REMARK    8  A    between atoms: C_11  and  C_12
REMARK    9  A    between atoms: C_12  and  C_13
REMARK   10  A    between atoms: C_13  and  C_14
REMARK   11  A    between atoms: C_14  and  C_15
REMARK   12  A    between atoms: C_15  and  C_16
REMARK   13  A    between atoms: C_16  and  C_17
REMARK   14  A    between atoms: C_17  and  C_18
REMARK   15  A    between atoms: C_19  and  O_20
REMARK   16  A    between atoms: O_20  and  C_21
REMARK                            x       y       z     vdW  Elec       q    Type
REMARK                         _______ _______ _______ _____ _____    ______ ____
ROOT
ATOM      1  C   UNL     1      85.308  54.418  44.778  0.00  0.00    -0.050 C 
ENDROOT
BRANCH   1   2
ATOM      2  C   UNL     1      86.057  54.251  46.109  0.00  0.00    -0.035 C 
BRANCH   2   4
ATOM      3  C   UNL     1      86.303  51.846  46.872  0.00  0.00    -0.084 C 
ATOM      4  C   UNL     1      85.634  53.014  46.866  0.00  0.00    -0.088 C 
BRANCH   3   5
ATOM      5  C   UNL     1      87.550  51.567  46.069  0.00  0.00    -0.017 C 
BRANCH   5   7
ATOM      6  C   UNL     1      87.848  50.197  43.971  0.00  0.00    -0.084 C 
ATOM      7  C   UNL     1      87.366  50.336  45.221  0.00  0.00    -0.084 C 
BRANCH   6   8
ATOM      8  C   UNL     1      88.603  51.269  43.222  0.00  0.00    -0.017 C 
BRANCH   8  10
ATOM      9  C   UNL     1      89.396  51.652  40.852  0.00  0.00    -0.085 C 
ATOM     10  C   UNL     1      88.836  50.864  41.788  0.00  0.00    -0.084 C 
BRANCH   9  11
ATOM     11  C   UNL     1      89.803  53.089  41.071  0.00  0.00    -0.011 C 
BRANCH  11  12
ATOM     12  C   UNL     1      90.334  53.718  39.782  0.00  0.00    +0.048 C 
BRANCH  12  13
ATOM     13  O   UNL     1      90.742  55.036  40.025  0.00  0.00    -0.395 OA
ATOM     14  H   UNL     1      90.290  55.633  39.409  0.00  0.00    +0.000 HD
ENDBRANCH  12  13
ENDBRANCH  11  12
ENDBRANCH   9  11
ENDBRANCH   8  10
ENDBRANCH   6   8
ENDBRANCH   5   7
ENDBRANCH   3   5
ENDBRANCH   2   4
ENDBRANCH   1   2
BRANCH   1  15
ATOM     15  C   UNL     1      86.061  53.766  43.604  0.00  0.00    -0.053 C 
BRANCH  15  16
ATOM     16  C   UNL     1      85.114  53.242  42.513  0.00  0.00    -0.053 C 
BRANCH  16  17
ATOM     17  C   UNL     1      84.846  51.736  42.637  0.00  0.00    -0.049 C 
BRANCH  17  18
ATOM     18  C   UNL     1      83.904  51.448  43.809  0.00  0.00    -0.017 C 
BRANCH  18  19
ATOM     19  C   UNL     1      82.977  50.314  43.476  0.00  0.00    +0.082 C 
ATOM     20  C   UNL     1      83.196  49.021  43.696  0.00  0.00    +0.172 C 
ATOM     21  C   UNL     1      82.005  48.276  43.248  0.00  0.00    +0.167 C 
ATOM     22  C   UNL     1      81.756  46.975  43.370  0.00  0.00    -0.052 C 
ATOM     23  O   UNL     1      81.087  49.174  42.715  0.00  0.00    -0.419 OA
ATOM     24  C   UNL     1      81.659  50.428  42.859  0.00  0.00    +0.344 C 
ATOM     25  O   UNL     1      81.103  51.500  42.501  0.00  0.00    -0.245 OA
BRANCH  20  26
ATOM     26  O   UNL     1      84.378  48.522  44.257  0.00  0.00    -0.491 OA
ATOM     27  C   UNL     1      85.255  47.635  43.573  0.00  0.00    +0.079 C 
ENDBRANCH  20  26
ENDBRANCH  18  19
ENDBRANCH  17  18
ENDBRANCH  16  17
ENDBRANCH  15  16
ENDBRANCH   1  15
TORSDOF 15
ENDMDL
MODEL 5
REMARK VINA RESULT:    -7.131      3.974      6.804
REMARK INTER + INTRA:         -15.064
REMARK INTER:                 -12.483
REMARK INTRA:                  -2.581
REMARK UNBOUND:                -1.888
REMARK  Name = 
REMARK  16 active torsions:
REMARK  status: ('A' for Active; 'I' for Inactive)
REMARK    1  A    between atoms: O_1  and  C_2
REMARK    2  A    between atoms: C_2  and  C_3
REMARK    3  A    between atoms: C_3  and  C_4
REMARK    4  A    between atoms: C_5  and  C_6
REMARK    5  A    between atoms: C_6  and  C_7
REMARK    6  A    between atoms: C_8  and  C_9
REMARK    7  A    between atoms: C_9  and  C_10
REMARK    8  A    between atoms: C_11  and  C_12
REMARK    9  A    between atoms: C_12  and  C_13
REMARK   10  A    between atoms: C_13  and  C_14
REMARK   11  A    between atoms: C_14  and  C_15
REMARK   12  A    between atoms: C_15  and  C_16
REMARK   13  A    between atoms: C_16  and  C_17
REMARK   14  A    between atoms: C_17  and  C_18
REMARK   15  A    between atoms: C_19  and  O_20
REMARK   16  A    between atoms: O_20  and  C_21
REMARK                            x       y       z     vdW  Elec       q    Type
REMARK                         _______ _______ _______ _____ _____    ______ ____
ROOT
ATOM      1  C   UNL     1      87.045  51.800  44.907  0.00  0.00    -0.050 C 
ENDROOT
BRANCH   1   2
ATOM      2  C   UNL     1      87.813  51.563  46.216  0.00  0.00    -0.035 C 
BRANCH   2   4
ATOM      3  C   UNL     1      86.266  51.065  48.161  0.00  0.00    -0.084 C 
ATOM      4  C   UNL     1      87.076  50.652  47.169  0.00  0.00    -0.088 C 
BRANCH   3   5
ATOM      5  C   UNL     1      86.017  52.509  48.521  0.00  0.00    -0.017 C 
BRANCH   5   7
ATOM      6  C   UNL     1      84.028  54.007  48.119  0.00  0.00    -0.084 C 
ATOM      7  C   UNL     1      84.543  52.817  48.479  0.00  0.00    -0.084 C 
BRANCH   6   8
ATOM      8  C   UNL     1      84.850  55.218  47.747  0.00  0.00    -0.017 C 
BRANCH   8  10
ATOM      9  C   UNL     1      84.518  56.883  45.873  0.00  0.00    -0.085 C 
ATOM     10  C   UNL     1      84.041  56.188  46.923  0.00  0.00    -0.084 C 
BRANCH   9  11
ATOM     11  C   UNL     1      85.954  56.863  45.412  0.00  0.00    -0.011 C 
BRANCH  11  12
ATOM     12  C   UNL     1      86.052  57.039  43.896  0.00  0.00    +0.048 C 
BRANCH  12  13
ATOM     13  O   UNL     1      85.705  58.349  43.542  0.00  0.00    -0.395 OA
ATOM     14  H   UNL     1      84.869  58.589  43.969  0.00  0.00    +0.000 HD
ENDBRANCH  12  13
ENDBRANCH  11  12
ENDBRANCH   9  11
ENDBRANCH   8  10
ENDBRANCH   6   8
ENDBRANCH   5   7
ENDBRANCH   3   5
ENDBRANCH   2   4
ENDBRANCH   1   2
BRANCH   1  15
ATOM     15  C   UNL     1      86.230  53.105  44.943  0.00  0.00    -0.053 C 
BRANCH  15  16
ATOM     16  C   UNL     1      84.753  52.888  44.577  0.00  0.00    -0.053 C 
BRANCH  16  17
ATOM     17  C   UNL     1      84.340  51.411  44.638  0.00  0.00    -0.049 C 
BRANCH  17  18
ATOM     18  C   UNL     1      84.031  50.877  43.236  0.00  0.00    -0.017 C 
BRANCH  18  19
ATOM     19  C   UNL     1      82.933  49.853  43.291  0.00  0.00    +0.082 C 
ATOM     20  C   UNL     1      83.054  48.581  43.661  0.00  0.00    +0.172 C 
ATOM     21  C   UNL     1      81.716  47.962  43.600  0.00  0.00    +0.167 C 
ATOM     22  C   UNL     1      81.361  46.737  43.977  0.00  0.00    -0.052 C 
ATOM     23  O   UNL     1      80.805  48.905  43.139  0.00  0.00    -0.419 OA
ATOM     24  C   UNL     1      81.529  50.073  42.958  0.00  0.00    +0.344 C 
ATOM     25  O   UNL     1      81.027  51.157  42.560  0.00  0.00    -0.245 OA
BRANCH  20  26
ATOM     26  O   UNL     1      84.271  47.996  44.031  0.00  0.00    -0.491 OA
ATOM     27  C   UNL     1      84.866  46.916  43.321  0.00  0.00    +0.079 C 
ENDBRANCH  20  26
ENDBRANCH  18  19
ENDBRANCH  17  18
ENDBRANCH  16  17
ENDBRANCH  15  16
ENDBRANCH   1  15
TORSDOF 15
ENDMDL
MODEL 6
REMARK VINA RESULT:    -7.015      2.749      5.038
REMARK INTER + INTRA:         -14.849
REMARK INTER:                 -12.603
REMARK INTRA:                  -2.246
REMARK UNBOUND:                -1.888
REMARK  Name = 
REMARK  16 active torsions:
REMARK  status: ('A' for Active; 'I' for Inactive)
REMARK    1  A    between atoms: O_1  and  C_2
REMARK    2  A    between atoms: C_2  and  C_3
REMARK    3  A    between atoms: C_3  and  C_4
REMARK    4  A    between atoms: C_5  and  C_6
REMARK    5  A    between atoms: C_6  and  C_7
REMARK    6  A    between atoms: C_8  and  C_9
REMARK    7  A    between atoms: C_9  and  C_10
REMARK    8  A    between atoms: C_11  and  C_12
REMARK    9  A    between atoms: C_12  and  C_13
REMARK   10  A    between atoms: C_13  and  C_14
REMARK   11  A    between atoms: C_14  and  C_15
REMARK   12  A    between atoms: C_15  and  C_16
REMARK   13  A    between atoms: C_16  and  C_17
REMARK   14  A    between atoms: C_17  and  C_18
REMARK   15  A    between atoms: C_19  and  O_20
REMARK   16  A    between atoms: O_20  and  C_21
REMARK                            x       y       z     vdW  Elec       q    Type
REMARK                         _______ _______ _______ _____ _____    ______ ____
ROOT
ATOM      1  C   UNL     1      86.643  49.639  44.731  0.00  0.00    -0.050 C 
ENDROOT
BRANCH   1   2
ATOM      2  C   UNL     1      86.705  49.243  43.248  0.00  0.00    -0.035 C 
BRANCH   2   4
ATOM      3  C   UNL     1      87.485  47.040  42.266  0.00  0.00    -0.084 C 
ATOM      4  C   UNL     1      86.641  47.749  43.039  0.00  0.00    -0.088 C 
BRANCH   3   5
ATOM      5  C   UNL     1      88.592  47.638  41.432  0.00  0.00    -0.017 C 
BRANCH   5   7
ATOM      6  C   UNL     1      90.464  49.136  42.216  0.00  0.00    -0.084 C 
ATOM      7  C   UNL     1      89.777  47.981  42.296  0.00  0.00    -0.084 C 
BRANCH   6   8
ATOM      8  C   UNL     1      90.175  50.236  41.221  0.00  0.00    -0.017 C 
BRANCH   8  10
ATOM      9  C   UNL     1      89.175  52.558  41.277  0.00  0.00    -0.085 C 
ATOM     10  C   UNL     1      89.486  51.400  41.889  0.00  0.00    -0.084 C 
BRANCH   9  11
ATOM     11  C   UNL     1      89.540  52.901  39.854  0.00  0.00    -0.011 C 
BRANCH  11  12
ATOM     12  C   UNL     1      90.857  53.676  39.791  0.00  0.00    +0.048 C 
BRANCH  12  13
ATOM     13  O   UNL     1      90.642  55.017  40.137  0.00  0.00    -0.395 OA
ATOM     14  H   UNL     1      90.407  55.075  41.075  0.00  0.00    +0.000 HD
ENDBRANCH  12  13
ENDBRANCH  11  12
ENDBRANCH   9  11
ENDBRANCH   8  10
ENDBRANCH   6   8
ENDBRANCH   5   7
ENDBRANCH   3   5
ENDBRANCH   2   4
ENDBRANCH   1   2
BRANCH   1  15
ATOM     15  C   UNL     1      87.801  50.573  45.130  0.00  0.00    -0.053 C 
BRANCH  15  16
ATOM     16  C   UNL     1      87.324  51.996  45.458  0.00  0.00    -0.053 C 
BRANCH  16  17
ATOM     17  C   UNL     1      86.011  52.011  46.254  0.00  0.00    -0.049 C 
BRANCH  17  18
ATOM     18  C   UNL     1      85.089  53.127  45.755  0.00  0.00    -0.017 C 
BRANCH  18  19
ATOM     19  C   UNL     1      85.417  53.488  44.334  0.00  0.00    +0.082 C 
ATOM     20  C   UNL     1      84.989  52.864  43.240  0.00  0.00    +0.172 C 
ATOM     21  C   UNL     1      85.527  53.582  42.069  0.00  0.00    +0.167 C 
ATOM     22  C   UNL     1      85.273  53.361  40.783  0.00  0.00    -0.052 C 
ATOM     23  O   UNL     1      86.324  54.630  42.512  0.00  0.00    -0.419 OA
ATOM     24  C   UNL     1      86.258  54.597  43.896  0.00  0.00    +0.344 C 
ATOM     25  O   UNL     1      86.847  55.416  44.648  0.00  0.00    -0.245 OA
BRANCH  20  26
ATOM     26  O   UNL     1      84.173  51.727  43.268  0.00  0.00    -0.491 OA
ATOM     27  C   UNL     1      82.825  51.720  42.811  0.00  0.00    +0.079 C 
ENDBRANCH  20  26
ENDBRANCH  18  19
ENDBRANCH  17  18
ENDBRANCH  16  17
ENDBRANCH  15  16
ENDBRANCH   1  15
TORSDOF 15
ENDMDL
MODEL 7
REMARK VINA RESULT:    -6.965      4.752      6.960
REMARK INTER + INTRA:         -14.757
REMARK INTER:                 -12.869
REMARK INTRA:                  -1.888
REMARK UNBOUND:                -1.888
REMARK  Name = 
REMARK  16 active torsions:
REMARK  status: ('A' for Active; 'I' for Inactive)
REMARK    1  A    between atoms: O_1  and  C_2
REMARK    2  A    between atoms: C_2  and  C_3
REMARK    3  A    between atoms: C_3  and  C_4
REMARK    4  A    between atoms: C_5  and  C_6
REMARK    5  A    between atoms: C_6  and  C_7
REMARK    6  A    between atoms: C_8  and  C_9
REMARK    7  A    between atoms: C_9  and  C_10
REMARK    8  A    between atoms: C_11  and  C_12
REMARK    9  A    between atoms: C_12  and  C_13
REMARK   10  A    between atoms: C_13  and  C_14
REMARK   11  A    between atoms: C_14  and  C_15
REMARK   12  A    between atoms: C_15  and  C_16
REMARK   13  A    between atoms: C_16  and  C_17
REMARK   14  A    between atoms: C_17  and  C_18
REMARK   15  A    between atoms: C_19  and  O_20
REMARK   16  A    between atoms: O_20  and  C_21
REMARK                            x       y       z     vdW  Elec       q    Type
REMARK                         _______ _______ _______ _____ _____    ______ ____
ROOT
ATOM      1  C   UNL     1      84.065  53.397  43.068  0.00  0.00    -0.050 C 
ENDROOT
BRANCH   1   2
ATOM      2  C   UNL     1      84.870  53.201  44.363  0.00  0.00    -0.035 C 
BRANCH   2   4
ATOM      3  C   UNL     1      85.846  51.296  45.719  0.00  0.00    -0.084 C 
ATOM      4  C   UNL     1      85.109  51.746  44.686  0.00  0.00    -0.088 C 
BRANCH   3   5
ATOM      5  C   UNL     1      86.605  52.177  46.680  0.00  0.00    -0.017 C 
BRANCH   5   7
ATOM      6  C   UNL     1      85.418  53.692  48.311  0.00  0.00    -0.084 C 
ATOM      7  C   UNL     1      85.776  52.459  47.905  0.00  0.00    -0.084 C 
BRANCH   6   8
ATOM      8  C   UNL     1      85.830  54.972  47.624  0.00  0.00    -0.017 C 
BRANCH   8  10
ATOM      9  C   UNL     1      84.494  56.590  46.213  0.00  0.00    -0.085 C 
ATOM     10  C   UNL     1      84.628  55.830  47.316  0.00  0.00    -0.084 C 
BRANCH   9  11
ATOM     11  C   UNL     1      85.557  56.765  45.156  0.00  0.00    -0.011 C 
BRANCH  11  12
ATOM     12  C   UNL     1      85.537  58.181  44.578  0.00  0.00    +0.048 C 
BRANCH  12  13
ATOM     13  O   UNL     1      84.422  58.879  45.060  0.00  0.00    -0.395 OA
ATOM     14  H   UNL     1      84.697  59.758  45.363  0.00  0.00    +0.000 HD
ENDBRANCH  12  13
ENDBRANCH  11  12
ENDBRANCH   9  11
ENDBRANCH   8  10
ENDBRANCH   6   8
ENDBRANCH   5   7
ENDBRANCH   3   5
ENDBRANCH   2   4
ENDBRANCH   1   2
BRANCH   1  15
ATOM     15  C   UNL     1      83.904  52.083  42.283  0.00  0.00    -0.053 C 
BRANCH  15  16
ATOM     16  C   UNL     1      82.586  52.025  41.495  0.00  0.00    -0.053 C 
BRANCH  16  17
ATOM     17  C   UNL     1      81.736  50.798  41.854  0.00  0.00    -0.049 C 
BRANCH  17  18
ATOM     18  C   UNL     1      82.127  50.252  43.230  0.00  0.00    -0.017 C 
BRANCH  18  19
ATOM     19  C   UNL     1      81.160  49.191  43.672  0.00  0.00    +0.082 C 
ATOM     20  C   UNL     1      81.461  47.946  44.031  0.00  0.00    +0.172 C 
ATOM     21  C   UNL     1      80.209  47.272  44.424  0.00  0.00    +0.167 C 
ATOM     22  C   UNL     1      80.058  46.057  44.940  0.00  0.00    -0.052 C 
ATOM     23  O   UNL     1      79.149  48.153  44.244  0.00  0.00    -0.419 OA
ATOM     24  C   UNL     1      79.713  49.338  43.798  0.00  0.00    +0.344 C 
ATOM     25  O   UNL     1      79.054  50.379  43.542  0.00  0.00    -0.245 OA
BRANCH  20  26
ATOM     26  O   UNL     1      82.762  47.429  44.013  0.00  0.00    -0.491 OA
ATOM     27  C   UNL     1      83.259  46.601  42.969  0.00  0.00    +0.079 C 
ENDBRANCH  20  26
ENDBRANCH  18  19
ENDBRANCH  17  18
ENDBRANCH  16  17
ENDBRANCH  15  16
ENDBRANCH   1  15
TORSDOF 15
ENDMDL
MODEL 8
REMARK VINA RESULT:    -6.963      4.669      8.241
REMARK INTER + INTRA:         -14.754
REMARK INTER:                 -12.111
REMARK INTRA:                  -2.643
REMARK UNBOUND:                -1.888
REMARK  Name = 
REMARK  16 active torsions:
REMARK  status: ('A' for Active; 'I' for Inactive)
REMARK    1  A    between atoms: O_1  and  C_2
REMARK    2  A    between atoms: C_2  and  C_3
REMARK    3  A    between atoms: C_3  and  C_4
REMARK    4  A    between atoms: C_5  and  C_6
REMARK    5  A    between atoms: C_6  and  C_7
REMARK    6  A    between atoms: C_8  and  C_9
REMARK    7  A    between atoms: C_9  and  C_10
REMARK    8  A    between atoms: C_11  and  C_12
REMARK    9  A    between atoms: C_12  and  C_13
REMARK   10  A    between atoms: C_13  and  C_14
REMARK   11  A    between atoms: C_14  and  C_15
REMARK   12  A    between atoms: C_15  and  C_16
REMARK   13  A    between atoms: C_16  and  C_17
REMARK   14  A    between atoms: C_17  and  C_18
REMARK   15  A    between atoms: C_19  and  O_20
REMARK   16  A    between atoms: O_20  and  C_21
REMARK                            x       y       z     vdW  Elec       q    Type
REMARK                         _______ _______ _______ _____ _____    ______ ____
ROOT
ATOM      1  C   UNL     1      84.889  52.708  48.005  0.00  0.00    -0.050 C 
ENDROOT
BRANCH   1   2
ATOM      2  C   UNL     1      85.037  54.079  48.683  0.00  0.00    -0.035 C 
BRANCH   2   4
ATOM      3  C   UNL     1      84.251  56.045  47.289  0.00  0.00    -0.084 C 
ATOM      4  C   UNL     1      84.016  55.082  48.201  0.00  0.00    -0.088 C 
BRANCH   3   5
ATOM      5  C   UNL     1      85.591  56.315  46.652  0.00  0.00    -0.017 C 
BRANCH   5   7
ATOM      6  C   UNL     1      85.533  57.803  44.615  0.00  0.00    -0.084 C 
ATOM      7  C   UNL     1      85.583  57.649  45.951  0.00  0.00    -0.084 C 
BRANCH   6   8
ATOM      8  C   UNL     1      85.521  56.664  43.623  0.00  0.00    -0.017 C 
BRANCH   8  10
ATOM      9  C   UNL     1      83.773  55.441  42.265  0.00  0.00    -0.085 C 
ATOM     10  C   UNL     1      84.108  56.268  43.274  0.00  0.00    -0.084 C 
BRANCH   9  11
ATOM     11  C   UNL     1      84.750  54.850  41.279  0.00  0.00    -0.011 C 
BRANCH  11  12
ATOM     12  C   UNL     1      84.030  54.032  40.207  0.00  0.00    +0.048 C 
BRANCH  12  13
ATOM     13  O   UNL     1      83.113  54.841  39.522  0.00  0.00    -0.395 OA
ATOM     14  H   UNL     1      82.884  54.426  38.677  0.00  0.00    +0.000 HD
ENDBRANCH  12  13
ENDBRANCH  11  12
ENDBRANCH   9  11
ENDBRANCH   8  10
ENDBRANCH   6   8
ENDBRANCH   5   7
ENDBRANCH   3   5
ENDBRANCH   2   4
ENDBRANCH   1   2
BRANCH   1  15
ATOM     15  C   UNL     1      85.660  52.633  46.675  0.00  0.00    -0.053 C 
BRANCH  15  16
ATOM     16  C   UNL     1      84.745  52.799  45.452  0.00  0.00    -0.053 C 
BRANCH  16  17
ATOM     17  C   UNL     1      85.513  52.724  44.124  0.00  0.00    -0.049 C 
BRANCH  17  18
ATOM     18  C   UNL     1      87.020  52.850  44.363  0.00  0.00    -0.017 C 
BRANCH  18  19
ATOM     19  C   UNL     1      87.781  51.966  43.415  0.00  0.00    +0.082 C 
ATOM     20  C   UNL     1      88.016  50.666  43.562  0.00  0.00    +0.172 C 
ATOM     21  C   UNL     1      88.762  50.203  42.376  0.00  0.00    +0.167 C 
ATOM     22  C   UNL     1      89.117  48.961  42.063  0.00  0.00    -0.052 C 
ATOM     23  O   UNL     1      88.995  51.289  41.541  0.00  0.00    -0.419 OA
ATOM     24  C   UNL     1      88.390  52.375  42.153  0.00  0.00    +0.344 C 
ATOM     25  O   UNL     1      88.380  53.538  41.673  0.00  0.00    -0.245 OA
BRANCH  20  26
ATOM     26  O   UNL     1      87.601  49.926  44.676  0.00  0.00    -0.491 OA
ATOM     27  C   UNL     1      86.373  49.209  44.724  0.00  0.00    +0.079 C 
ENDBRANCH  20  26
ENDBRANCH  18  19
ENDBRANCH  17  18
ENDBRANCH  16  17
ENDBRANCH  15  16
ENDBRANCH   1  15
TORSDOF 15
ENDMDL
MODEL 9
REMARK VINA RESULT:    -6.878      4.001      6.942
REMARK INTER + INTRA:         -14.597
REMARK INTER:                 -12.109
REMARK INTRA:                  -2.488
REMARK UNBOUND:                -1.888
REMARK  Name = 
REMARK  16 active torsions:
REMARK  status: ('A' for Active; 'I' for Inactive)
REMARK    1  A    between atoms: O_1  and  C_2
REMARK    2  A    between atoms: C_2  and  C_3
REMARK    3  A    between atoms: C_3  and  C_4
REMARK    4  A    between atoms: C_5  and  C_6
REMARK    5  A    between atoms: C_6  and  C_7
REMARK    6  A    between atoms: C_8  and  C_9
REMARK    7  A    between atoms: C_9  and  C_10
REMARK    8  A    between atoms: C_11  and  C_12
REMARK    9  A    between atoms: C_12  and  C_13
REMARK   10  A    between atoms: C_13  and  C_14
REMARK   11  A    between atoms: C_14  and  C_15
REMARK   12  A    between atoms: C_15  and  C_16
REMARK   13  A    between atoms: C_16  and  C_17
REMARK   14  A    between atoms: C_17  and  C_18
REMARK   15  A    between atoms: C_19  and  O_20
REMARK   16  A    between atoms: O_20  and  C_21
REMARK                            x       y       z     vdW  Elec       q    Type
REMARK                         _______ _______ _______ _____ _____    ______ ____
ROOT
ATOM      1  C   UNL     1      84.343  52.842  46.493  0.00  0.00    -0.050 C 
ENDROOT
BRANCH   1   2
ATOM      2  C   UNL     1      84.735  53.782  47.643  0.00  0.00    -0.035 C 
BRANCH   2   4
ATOM      3  C   UNL     1      85.959  55.829  46.787  0.00  0.00    -0.084 C 
ATOM      4  C   UNL     1      85.966  54.600  47.335  0.00  0.00    -0.088 C 
BRANCH   3   5
ATOM      5  C   UNL     1      84.720  56.559  46.331  0.00  0.00    -0.017 C 
BRANCH   5   7
ATOM      6  C   UNL     1      84.850  57.253  43.909  0.00  0.00    -0.084 C 
ATOM      7  C   UNL     1      85.050  57.514  45.214  0.00  0.00    -0.084 C 
BRANCH   6   8
ATOM      8  C   UNL     1      84.306  55.950  43.372  0.00  0.00    -0.017 C 
BRANCH   8  10
ATOM      9  C   UNL     1      85.430  54.111  42.049  0.00  0.00    -0.085 C 
ATOM     10  C   UNL     1      85.423  54.980  43.078  0.00  0.00    -0.084 C 
BRANCH   9  11
ATOM     11  C   UNL     1      84.288  53.915  41.083  0.00  0.00    -0.011 C 
BRANCH  11  12
ATOM     12  C   UNL     1      84.464  54.781  39.834  0.00  0.00    +0.048 C 
BRANCH  12  13
ATOM     13  O   UNL     1      85.567  54.335  39.094  0.00  0.00    -0.395 OA
ATOM     14  H   UNL     1      85.403  54.483  38.150  0.00  0.00    +0.000 HD
ENDBRANCH  12  13
ENDBRANCH  11  12
ENDBRANCH   9  11
ENDBRANCH   8  10
ENDBRANCH   6   8
ENDBRANCH   5   7
ENDBRANCH   3   5
ENDBRANCH   2   4
ENDBRANCH   1   2
BRANCH   1  15
ATOM     15  C   UNL     1      85.568  52.158  45.861  0.00  0.00    -0.053 C 
BRANCH  15  16
ATOM     16  C   UNL     1      85.222  51.403  44.568  0.00  0.00    -0.053 C 
BRANCH  16  17
ATOM     17  C   UNL     1      83.746  51.555  44.172  0.00  0.00    -0.049 C 
BRANCH  17  18
ATOM     18  C   UNL     1      83.430  50.717  42.930  0.00  0.00    -0.017 C 
BRANCH  18  19
ATOM     19  C   UNL     1      82.480  49.605  43.271  0.00  0.00    +0.082 C 
ATOM     20  C   UNL     1      82.804  48.399  43.731  0.00  0.00    +0.172 C 
ATOM     21  C   UNL     1      81.553  47.651  43.962  0.00  0.00    +0.167 C 
ATOM     22  C   UNL     1      81.406  46.447  44.507  0.00  0.00    -0.052 C 
ATOM     23  O   UNL     1      80.478  48.445  43.582  0.00  0.00    -0.419 OA
ATOM     24  C   UNL     1      81.024  49.650  43.169  0.00  0.00    +0.344 C 
ATOM     25  O   UNL     1      80.344  50.630  42.767  0.00  0.00    -0.245 OA
BRANCH  20  26
ATOM     26  O   UNL     1      84.123  47.979  43.934  0.00  0.00    -0.491 OA
ATOM     27  C   UNL     1      84.719  46.901  43.221  0.00  0.00    +0.079 C 
ENDBRANCH  20  26
ENDBRANCH  18  19
ENDBRANCH  17  18
ENDBRANCH  16  17
ENDBRANCH  15  16
ENDBRANCH   1  15
TORSDOF 15
ENDMDL
