MODEL 1
REMARK VINA RESULT:    -6.447      0.000      0.000
REMARK INTER + INTRA:         -10.563
REMARK INTER:                  -8.852
REMARK INTRA:                  -1.711
REMARK UNBOUND:                -0.723
REMARK  Name = 
REMARK  10 active torsions:
REMARK  status: ('A' for Active; 'I' for Inactive)
REMARK    1  A    between atoms: C_1  and  C_2
REMARK    2  A    between atoms: C_2  and  C_3
REMARK    3  A    between atoms: C_3  and  C_4
REMARK    4  A    between atoms: C_4  and  C_5
REMARK    5  A    between atoms: C_5  and  C_6
REMARK    6  A    between atoms: C_6  and  C_7
REMARK    7  A    between atoms: C_7  and  C_8
REMARK    8  A    between atoms: C_8  and  O_10
REMARK    9  A    between atoms: O_10  and  C_11
REMARK   10  A    between atoms: C_11  and  C_12
REMARK                            x       y       z     vdW  Elec       q    Type
REMARK                         _______ _______ _______ _____ _____    ______ ____
ROOT
ATOM      1  C   UNL     1      84.834  57.317  43.730  0.00  0.00    +0.307 C 
ATOM      2  O   UNL     1      85.586  58.186  43.209  0.00  0.00    -0.251 OA
ENDROOT
BRANCH   1   3
ATOM      3  C   UNL     1      84.244  56.238  42.878  0.00  0.00    +0.045 C 
BRANCH   3   4
ATOM      4  C   UNL     1      85.262  55.111  42.667  0.00  0.00    -0.043 C 
BRANCH   4   5
ATOM      5  C   UNL     1      84.696  53.728  43.029  0.00  0.00    -0.053 C 
BRANCH   5   6
ATOM      6  C   UNL     1      84.674  53.474  44.544  0.00  0.00    -0.053 C 
BRANCH   6   7
ATOM      7  C   UNL     1      84.666  51.969  44.846  0.00  0.00    -0.053 C 
BRANCH   7   9
ATOM      8  C   UNL     1      87.099  52.172  45.590  0.00  0.00    -0.065 C 
ATOM      9  C   UNL     1      85.726  51.570  45.885  0.00  0.00    -0.056 C 
ENDBRANCH   7   9
ENDBRANCH   6   7
ENDBRANCH   5   6
ENDBRANCH   4   5
ENDBRANCH   3   4
ENDBRANCH   1   3
BRANCH   1  10
ATOM     10  O   UNL     1      84.582  57.321  45.106  0.00  0.00    -0.460 OA
BRANCH  10  11
ATOM     11  C   UNL     1      85.576  57.029  46.085  0.00  0.00    +0.118 C 
BRANCH  11  12
ATOM     12  C   UNL     1      85.114  55.918  46.988  0.00  0.00    -0.010 A 
ATOM     13  C   UNL     1      83.740  55.691  47.173  0.00  0.00    -0.055 A 
ATOM     14  C   UNL     1      83.304  54.673  48.026  0.00  0.00    -0.061 A 
ATOM     15  C   UNL     1      84.233  53.878  48.703  0.00  0.00    -0.062 A 
ATOM     16  C   UNL     1      85.602  54.102  48.528  0.00  0.00    -0.061 A 
ATOM     17  C   UNL     1      86.044  55.118  47.676  0.00  0.00    -0.055 A 
ENDBRANCH  11  12
ENDBRANCH  10  11
ENDBRANCH   1  10
TORSDOF 9
ENDMDL
MODEL 2
REMARK VINA RESULT:    -6.233      1.508      2.271
REMARK INTER + INTRA:         -10.236
REMARK INTER:                  -8.297
REMARK INTRA:                  -1.939
REMARK UNBOUND:                -0.723
REMARK  Name = 
REMARK  10 active torsions:
REMARK  status: ('A' for Active; 'I' for Inactive)
REMARK    1  A    between atoms: C_1  and  C_2
REMARK    2  A    between atoms: C_2  and  C_3
REMARK    3  A    between atoms: C_3  and  C_4
REMARK    4  A    between atoms: C_4  and  C_5
REMARK    5  A    between atoms: C_5  and  C_6
REMARK    6  A    between atoms: C_6  and  C_7
REMARK    7  A    between atoms: C_7  and  C_8
REMARK    8  A    between atoms: C_8  and  O_10
REMARK    9  A    between atoms: O_10  and  C_11
REMARK   10  A    between atoms: C_11  and  C_12
REMARK                            x       y       z     vdW  Elec       q    Type
REMARK                         _______ _______ _______ _____ _____    ______ ____
ROOT
ATOM      1  C   UNL     1      85.735  54.902  42.846  0.00  0.00    +0.307 C 
ATOM      2  O   UNL     1      86.823  54.338  42.548  0.00  0.00    -0.251 OA
ENDROOT
BRANCH   1   3
ATOM      3  C   UNL     1      84.480  54.095  42.934  0.00  0.00    +0.045 C 
BRANCH   3   4
ATOM      4  C   UNL     1      84.750  52.769  43.657  0.00  0.00    -0.043 C 
BRANCH   4   5
ATOM      5  C   UNL     1      84.458  52.847  45.164  0.00  0.00    -0.053 C 
BRANCH   5   6
ATOM      6  C   UNL     1      85.470  52.055  46.006  0.00  0.00    -0.053 C 
BRANCH   6   7
ATOM      7  C   UNL     1      86.906  52.328  45.537  0.00  0.00    -0.053 C 
BRANCH   7   9
ATOM      8  C   UNL     1      87.004  49.802  45.892  0.00  0.00    -0.065 C 
ATOM      9  C   UNL     1      87.724  51.039  45.356  0.00  0.00    -0.056 C 
ENDBRANCH   7   9
ENDBRANCH   6   7
ENDBRANCH   5   6
ENDBRANCH   4   5
ENDBRANCH   3   4
ENDBRANCH   1   3
BRANCH   1  10
ATOM     10  O   UNL     1      85.695  56.269  43.143  0.00  0.00    -0.460 OA
BRANCH  10  11
ATOM     11  C   UNL     1      86.332  56.841  44.283  0.00  0.00    +0.118 C 
BRANCH  11  12
ATOM     12  C   UNL     1      85.694  56.340  45.549  0.00  0.00    -0.010 A 
ATOM     13  C   UNL     1      84.319  56.532  45.764  0.00  0.00    -0.055 A 
ATOM     14  C   UNL     1      83.723  56.084  46.948  0.00  0.00    -0.061 A 
ATOM     15  C   UNL     1      84.493  55.449  47.925  0.00  0.00    -0.062 A 
ATOM     16  C   UNL     1      85.863  55.260  47.720  0.00  0.00    -0.061 A 
ATOM     17  C   UNL     1      86.464  55.704  46.538  0.00  0.00    -0.055 A 
ENDBRANCH  11  12
ENDBRANCH  10  11
ENDBRANCH   1  10
TORSDOF 9
ENDMDL
MODEL 3
REMARK VINA RESULT:    -6.198      6.507      9.266
REMARK INTER + INTRA:         -10.183
REMARK INTER:                  -8.974
REMARK INTRA:                  -1.209
REMARK UNBOUND:                -0.723
REMARK  Name = 
REMARK  10 active torsions:
REMARK  status: ('A' for Active; 'I' for Inactive)
REMARK    1  A    between atoms: C_1  and  C_2
REMARK    2  A    between atoms: C_2  and  C_3
REMARK    3  A    between atoms: C_3  and  C_4
REMARK    4  A    between atoms: C_4  and  C_5
REMARK    5  A    between atoms: C_5  and  C_6
REMARK    6  A    between atoms: C_6  and  C_7
REMARK    7  A    between atoms: C_7  and  C_8
REMARK    8  A    between atoms: C_8  and  O_10
REMARK    9  A    between atoms: O_10  and  C_11
REMARK   10  A    between atoms: C_11  and  C_12
REMARK                            x       y       z     vdW  Elec       q    Type
REMARK                         _______ _______ _______ _____ _____    ______ ____
ROOT
ATOM      1  C   UNL     1      85.947  48.687  44.628  0.00  0.00    +0.307 C 
ATOM      2  O   UNL     1      86.135  49.104  45.804  0.00  0.00    -0.251 OA
ENDROOT
BRANCH   1   3
ATOM      3  C   UNL     1      86.385  49.519  43.466  0.00  0.00    +0.045 C 
BRANCH   3   4
ATOM      4  C   UNL     1      87.817  50.024  43.682  0.00  0.00    -0.043 C 
BRANCH   4   5
ATOM      5  C   UNL     1      88.191  51.170  42.728  0.00  0.00    -0.053 C 
BRANCH   5   6
ATOM      6  C   UNL     1      89.471  50.882  41.928  0.00  0.00    -0.053 C 
BRANCH   6   7
ATOM      7  C   UNL     1      89.525  49.412  41.491  0.00  0.00    -0.053 C 
BRANCH   7   9
ATOM      8  C   UNL     1      90.941  48.231  43.256  0.00  0.00    -0.065 C 
ATOM      9  C   UNL     1      90.871  48.747  41.819  0.00  0.00    -0.056 C 
ENDBRANCH   7   9
ENDBRANCH   6   7
ENDBRANCH   5   6
ENDBRANCH   4   5
ENDBRANCH   3   4
ENDBRANCH   1   3
BRANCH   1  10
ATOM     10  O   UNL     1      85.375  47.431  44.397  0.00  0.00    -0.460 OA
BRANCH  10  11
ATOM     11  C   UNL     1      85.428  46.767  43.137  0.00  0.00    +0.118 C 
BRANCH  11  12
ATOM     12  C   UNL     1      86.525  45.737  43.131  0.00  0.00    -0.010 A 
ATOM     13  C   UNL     1      86.366  44.539  43.847  0.00  0.00    -0.055 A 
ATOM     14  C   UNL     1      87.389  43.586  43.861  0.00  0.00    -0.061 A 
ATOM     15  C   UNL     1      88.578  43.823  43.166  0.00  0.00    -0.062 A 
ATOM     16  C   UNL     1      88.746  45.016  42.456  0.00  0.00    -0.061 A 
ATOM     17  C   UNL     1      87.725  45.972  42.438  0.00  0.00    -0.055 A 
ENDBRANCH  11  12
ENDBRANCH  10  11
ENDBRANCH   1  10
TORSDOF 9
ENDMDL
MODEL 4
REMARK VINA RESULT:    -6.130      1.879      4.228
REMARK INTER + INTRA:         -10.079
REMARK INTER:                  -7.943
REMARK INTRA:                  -2.136
REMARK UNBOUND:                -0.723
REMARK  Name = 
REMARK  10 active torsions:
REMARK  status: ('A' for Active; 'I' for Inactive)
REMARK    1  A    between atoms: C_1  and  C_2
REMARK    2  A    between atoms: C_2  and  C_3
REMARK    3  A    between atoms: C_3  and  C_4
REMARK    4  A    between atoms: C_4  and  C_5
REMARK    5  A    between atoms: C_5  and  C_6
REMARK    6  A    between atoms: C_6  and  C_7
REMARK    7  A    between atoms: C_7  and  C_8
REMARK    8  A    between atoms: C_8  and  O_10
REMARK    9  A    between atoms: O_10  and  C_11
REMARK   10  A    between atoms: C_11  and  C_12
REMARK                            x       y       z     vdW  Elec       q    Type
REMARK                         _______ _______ _______ _____ _____    ______ ____
ROOT
ATOM      1  C   UNL     1      84.357  55.215  41.552  0.00  0.00    +0.307 C 
ATOM      2  O   UNL     1      84.882  55.530  40.449  0.00  0.00    -0.251 OA
ENDROOT
BRANCH   1   3
ATOM      3  C   UNL     1      84.231  56.239  42.633  0.00  0.00    +0.045 C 
BRANCH   3   4
ATOM      4  C   UNL     1      85.477  56.224  43.528  0.00  0.00    -0.043 C 
BRANCH   4   5
ATOM      5  C   UNL     1      85.142  55.959  45.004  0.00  0.00    -0.053 C 
BRANCH   5   6
ATOM      6  C   UNL     1      86.395  55.742  45.867  0.00  0.00    -0.053 C 
BRANCH   6   7
ATOM      7  C   UNL     1      86.045  55.779  47.361  0.00  0.00    -0.053 C 
BRANCH   7   9
ATOM      8  C   UNL     1      84.538  54.288  48.782  0.00  0.00    -0.065 C 
ATOM      9  C   UNL     1      84.610  55.304  47.643  0.00  0.00    -0.056 C 
ENDBRANCH   7   9
ENDBRANCH   6   7
ENDBRANCH   5   6
ENDBRANCH   4   5
ENDBRANCH   3   4
ENDBRANCH   1   3
BRANCH   1  10
ATOM     10  O   UNL     1      83.846  53.929  41.759  0.00  0.00    -0.460 OA
BRANCH  10  11
ATOM     11  C   UNL     1      84.665  52.764  41.839  0.00  0.00    +0.118 C 
BRANCH  11  12
ATOM     12  C   UNL     1      85.152  52.560  43.248  0.00  0.00    -0.010 A 
ATOM     13  C   UNL     1      86.531  52.502  43.511  0.00  0.00    -0.055 A 
ATOM     14  C   UNL     1      86.990  52.293  44.815  0.00  0.00    -0.061 A 
ATOM     15  C   UNL     1      86.079  52.136  45.863  0.00  0.00    -0.062 A 
ATOM     16  C   UNL     1      84.706  52.187  45.608  0.00  0.00    -0.061 A 
ATOM     17  C   UNL     1      84.241  52.397  44.306  0.00  0.00    -0.055 A 
ENDBRANCH  11  12
ENDBRANCH  10  11
ENDBRANCH   1  10
TORSDOF 9
ENDMDL
MODEL 5
REMARK VINA RESULT:    -6.020      6.172      9.102
REMARK INTER + INTRA:          -9.911
REMARK INTER:                  -8.259
REMARK INTRA:                  -1.652
REMARK UNBOUND:                -0.723
REMARK  Name = 
REMARK  10 active torsions:
REMARK  status: ('A' for Active; 'I' for Inactive)
REMARK    1  A    between atoms: C_1  and  C_2
REMARK    2  A    between atoms: C_2  and  C_3
REMARK    3  A    between atoms: C_3  and  C_4
REMARK    4  A    between atoms: C_4  and  C_5
REMARK    5  A    between atoms: C_5  and  C_6
REMARK    6  A    between atoms: C_6  and  C_7
REMARK    7  A    between atoms: C_7  and  C_8
REMARK    8  A    between atoms: C_8  and  O_10
REMARK    9  A    between atoms: O_10  and  C_11
REMARK   10  A    between atoms: C_11  and  C_12
REMARK                            x       y       z     vdW  Elec       q    Type
REMARK                         _______ _______ _______ _____ _____    ______ ____
ROOT
ATOM      1  C   UNL     1      86.084  46.061  43.413  0.00  0.00    +0.307 C 
ATOM      2  O   UNL     1      86.176  44.986  44.066  0.00  0.00    -0.251 OA
ENDROOT
BRANCH   1   3
ATOM      3  C   UNL     1      85.226  47.171  43.928  0.00  0.00    +0.045 C 
BRANCH   3   4
ATOM      4  C   UNL     1      86.096  48.348  44.386  0.00  0.00    -0.043 C 
BRANCH   4   5
ATOM      5  C   UNL     1      85.729  49.664  43.682  0.00  0.00    -0.053 C 
BRANCH   5   6
ATOM      6  C   UNL     1      86.771  50.771  43.912  0.00  0.00    -0.053 C 
BRANCH   6   7
ATOM      7  C   UNL     1      87.814  50.334  44.950  0.00  0.00    -0.053 C 
BRANCH   7   9
ATOM      8  C   UNL     1      87.980  50.267  47.496  0.00  0.00    -0.065 C 
ATOM      9  C   UNL     1      87.711  51.128  46.262  0.00  0.00    -0.056 C 
ENDBRANCH   7   9
ENDBRANCH   6   7
ENDBRANCH   5   6
ENDBRANCH   4   5
ENDBRANCH   3   4
ENDBRANCH   1   3
BRANCH   1  10
ATOM     10  O   UNL     1      86.814  46.247  42.234  0.00  0.00    -0.460 OA
BRANCH  10  11
ATOM     11  C   UNL     1      88.221  46.036  42.144  0.00  0.00    +0.118 C 
BRANCH  11  12
ATOM     12  C   UNL     1      88.944  47.352  42.043  0.00  0.00    -0.010 A 
ATOM     13  C   UNL     1      90.211  47.502  42.630  0.00  0.00    -0.055 A 
ATOM     14  C   UNL     1      90.881  48.728  42.557  0.00  0.00    -0.061 A 
ATOM     15  C   UNL     1      90.289  49.812  41.902  0.00  0.00    -0.062 A 
ATOM     16  C   UNL     1      89.026  49.671  41.320  0.00  0.00    -0.061 A 
ATOM     17  C   UNL     1      88.353  48.447  41.390  0.00  0.00    -0.055 A 
ENDBRANCH  11  12
ENDBRANCH  10  11
ENDBRANCH   1  10
TORSDOF 9
ENDMDL
MODEL 6
REMARK VINA RESULT:    -5.966      1.677      4.457
REMARK INTER + INTRA:          -9.828
REMARK INTER:                  -8.783
REMARK INTRA:                  -1.045
REMARK UNBOUND:                -0.723
REMARK  Name = 
REMARK  10 active torsions:
REMARK  status: ('A' for Active; 'I' for Inactive)
REMARK    1  A    between atoms: C_1  and  C_2
REMARK    2  A    between atoms: C_2  and  C_3
REMARK    3  A    between atoms: C_3  and  C_4
REMARK    4  A    between atoms: C_4  and  C_5
REMARK    5  A    between atoms: C_5  and  C_6
REMARK    6  A    between atoms: C_6  and  C_7
REMARK    7  A    between atoms: C_7  and  C_8
REMARK    8  A    between atoms: C_8  and  O_10
REMARK    9  A    between atoms: O_10  and  C_11
REMARK   10  A    between atoms: C_11  and  C_12
REMARK                            x       y       z     vdW  Elec       q    Type
REMARK                         _______ _______ _______ _____ _____    ______ ____
ROOT
ATOM      1  C   UNL     1      85.356  57.180  43.745  0.00  0.00    +0.307 C 
ATOM      2  O   UNL     1      85.655  58.363  43.425  0.00  0.00    -0.251 OA
ENDROOT
BRANCH   1   3
ATOM      3  C   UNL     1      84.888  56.881  45.133  0.00  0.00    +0.045 C 
BRANCH   3   4
ATOM      4  C   UNL     1      85.703  55.728  45.732  0.00  0.00    -0.043 C 
BRANCH   4   5
ATOM      5  C   UNL     1      85.905  55.873  47.249  0.00  0.00    -0.053 C 
BRANCH   5   6
ATOM      6  C   UNL     1      85.149  54.803  48.053  0.00  0.00    -0.053 C 
BRANCH   6   7
ATOM      7  C   UNL     1      84.665  53.670  47.138  0.00  0.00    -0.053 C 
BRANCH   7   9
ATOM      8  C   UNL     1      85.948  52.081  48.668  0.00  0.00    -0.065 C 
ATOM      9  C   UNL     1      85.547  52.416  47.232  0.00  0.00    -0.056 C 
ENDBRANCH   7   9
ENDBRANCH   6   7
ENDBRANCH   5   6
ENDBRANCH   4   5
ENDBRANCH   3   4
ENDBRANCH   1   3
BRANCH   1  10
ATOM     10  O   UNL     1      85.411  56.148  42.801  0.00  0.00    -0.460 OA
BRANCH  10  11
ATOM     11  C   UNL     1      84.352  55.862  41.891  0.00  0.00    +0.118 C 
BRANCH  11  12
ATOM     12  C   UNL     1      83.813  54.477  42.131  0.00  0.00    -0.010 A 
ATOM     13  C   UNL     1      84.452  53.626  43.047  0.00  0.00    -0.055 A 
ATOM     14  C   UNL     1      83.968  52.331  43.261  0.00  0.00    -0.061 A 
ATOM     15  C   UNL     1      82.848  51.877  42.559  0.00  0.00    -0.062 A 
ATOM     16  C   UNL     1      82.211  52.717  41.641  0.00  0.00    -0.061 A 
ATOM     17  C   UNL     1      82.690  54.012  41.425  0.00  0.00    -0.055 A 
ENDBRANCH  11  12
ENDBRANCH  10  11
ENDBRANCH   1  10
TORSDOF 9
ENDMDL
MODEL 7
REMARK VINA RESULT:    -5.917      1.031      3.647
REMARK INTER + INTRA:          -9.753
REMARK INTER:                  -8.040
REMARK INTRA:                  -1.713
REMARK UNBOUND:                -0.723
REMARK  Name = 
REMARK  10 active torsions:
REMARK  status: ('A' for Active; 'I' for Inactive)
REMARK    1  A    between atoms: C_1  and  C_2
REMARK    2  A    between atoms: C_2  and  C_3
REMARK    3  A    between atoms: C_3  and  C_4
REMARK    4  A    between atoms: C_4  and  C_5
REMARK    5  A    between atoms: C_5  and  C_6
REMARK    6  A    between atoms: C_6  and  C_7
REMARK    7  A    between atoms: C_7  and  C_8
REMARK    8  A    between atoms: C_8  and  O_10
REMARK    9  A    between atoms: O_10  and  C_11
REMARK   10  A    between atoms: C_11  and  C_12
REMARK                            x       y       z     vdW  Elec       q    Type
REMARK                         _______ _______ _______ _____ _____    ______ ____
ROOT
ATOM      1  C   UNL     1      85.411  56.941  43.736  0.00  0.00    +0.307 C 
ATOM      2  O   UNL     1      85.307  58.085  43.214  0.00  0.00    -0.251 OA
ENDROOT
BRANCH   1   3
ATOM      3  C   UNL     1      86.130  56.781  45.037  0.00  0.00    +0.045 C 
BRANCH   3   4
ATOM      4  C   UNL     1      85.260  57.291  46.192  0.00  0.00    -0.043 C 
BRANCH   4   5
ATOM      5  C   UNL     1      84.059  56.376  46.477  0.00  0.00    -0.053 C 
BRANCH   5   6
ATOM      6  C   UNL     1      84.479  54.972  46.938  0.00  0.00    -0.053 C 
BRANCH   6   7
ATOM      7  C   UNL     1      83.676  54.539  48.173  0.00  0.00    -0.053 C 
BRANCH   7   9
ATOM      8  C   UNL     1      85.679  53.057  48.726  0.00  0.00    -0.065 C 
ATOM      9  C   UNL     1      84.158  53.198  48.751  0.00  0.00    -0.056 C 
ENDBRANCH   7   9
ENDBRANCH   6   7
ENDBRANCH   5   6
ENDBRANCH   4   5
ENDBRANCH   3   4
ENDBRANCH   1   3
BRANCH   1  10
ATOM     10  O   UNL     1      84.820  55.824  43.136  0.00  0.00    -0.460 OA
BRANCH  10  11
ATOM     11  C   UNL     1      85.566  54.721  42.628  0.00  0.00    +0.118 C 
BRANCH  11  12
ATOM     12  C   UNL     1      85.568  53.587  43.617  0.00  0.00    -0.010 A 
ATOM     13  C   UNL     1      84.382  52.879  43.872  0.00  0.00    -0.055 A 
ATOM     14  C   UNL     1      84.372  51.836  44.804  0.00  0.00    -0.061 A 
ATOM     15  C   UNL     1      85.541  51.497  45.490  0.00  0.00    -0.062 A 
ATOM     16  C   UNL     1      86.724  52.202  45.245  0.00  0.00    -0.061 A 
ATOM     17  C   UNL     1      86.739  53.245  44.314  0.00  0.00    -0.055 A 
ENDBRANCH  11  12
ENDBRANCH  10  11
ENDBRANCH   1  10
TORSDOF 9
ENDMDL
MODEL 8
REMARK VINA RESULT:    -5.878      5.030      7.751
REMARK INTER + INTRA:          -9.694
REMARK INTER:                  -8.561
REMARK INTRA:                  -1.133
REMARK UNBOUND:                -0.723
REMARK  Name = 
REMARK  10 active torsions:
REMARK  status: ('A' for Active; 'I' for Inactive)
REMARK    1  A    between atoms: C_1  and  C_2
REMARK    2  A    between atoms: C_2  and  C_3
REMARK    3  A    between atoms: C_3  and  C_4
REMARK    4  A    between atoms: C_4  and  C_5
REMARK    5  A    between atoms: C_5  and  C_6
REMARK    6  A    between atoms: C_6  and  C_7
REMARK    7  A    between atoms: C_7  and  C_8
REMARK    8  A    between atoms: C_8  and  O_10
REMARK    9  A    between atoms: O_10  and  C_11
REMARK   10  A    between atoms: C_11  and  C_12
REMARK                            x       y       z     vdW  Elec       q    Type
REMARK                         _______ _______ _______ _____ _____    ______ ____
ROOT
ATOM      1  C   UNL     1      87.429  51.749  40.813  0.00  0.00    +0.307 C 
ATOM      2  O   UNL     1      87.409  52.862  40.218  0.00  0.00    -0.251 OA
ENDROOT
BRANCH   1   3
ATOM      3  C   UNL     1      86.476  51.490  41.934  0.00  0.00    +0.045 C 
BRANCH   3   4
ATOM      4  C   UNL     1      87.176  51.687  43.285  0.00  0.00    -0.043 C 
BRANCH   4   5
ATOM      5  C   UNL     1      87.620  50.360  43.920  0.00  0.00    -0.053 C 
BRANCH   5   6
ATOM      6  C   UNL     1      87.951  50.500  45.414  0.00  0.00    -0.053 C 
BRANCH   6   7
ATOM      7  C   UNL     1      86.904  49.779  46.276  0.00  0.00    -0.053 C 
BRANCH   7   9
ATOM      8  C   UNL     1      86.276  51.695  47.841  0.00  0.00    -0.065 C 
ATOM      9  C   UNL     1      86.875  50.294  47.724  0.00  0.00    -0.056 C 
ENDBRANCH   7   9
ENDBRANCH   6   7
ENDBRANCH   5   6
ENDBRANCH   4   5
ENDBRANCH   3   4
ENDBRANCH   1   3
BRANCH   1  10
ATOM     10  O   UNL     1      88.303  50.735  40.404  0.00  0.00    -0.460 OA
BRANCH  10  11
ATOM     11  C   UNL     1      89.683  50.701  40.760  0.00  0.00    +0.118 C 
BRANCH  11  12
ATOM     12  C   UNL     1      89.993  49.455  41.544  0.00  0.00    -0.010 A 
ATOM     13  C   UNL     1      90.977  49.484  42.545  0.00  0.00    -0.055 A 
ATOM     14  C   UNL     1      91.284  48.325  43.265  0.00  0.00    -0.061 A 
ATOM     15  C   UNL     1      90.615  47.130  42.988  0.00  0.00    -0.062 A 
ATOM     16  C   UNL     1      89.638  47.092  41.988  0.00  0.00    -0.061 A 
ATOM     17  C   UNL     1      89.328  48.248  41.266  0.00  0.00    -0.055 A 
ENDBRANCH  11  12
ENDBRANCH  10  11
ENDBRANCH   1  10
TORSDOF 9
ENDMDL
MODEL 9
REMARK VINA RESULT:    -5.874      4.528      6.134
REMARK INTER + INTRA:          -9.687
REMARK INTER:                  -8.964
REMARK INTRA:                  -0.723
REMARK UNBOUND:                -0.723
REMARK  Name = 
REMARK  10 active torsions:
REMARK  status: ('A' for Active; 'I' for Inactive)
REMARK    1  A    between atoms: C_1  and  C_2
REMARK    2  A    between atoms: C_2  and  C_3
REMARK    3  A    between atoms: C_3  and  C_4
REMARK    4  A    between atoms: C_4  and  C_5
REMARK    5  A    between atoms: C_5  and  C_6
REMARK    6  A    between atoms: C_6  and  C_7
REMARK    7  A    between atoms: C_7  and  C_8
REMARK    8  A    between atoms: C_8  and  O_10
REMARK    9  A    between atoms: O_10  and  C_11
REMARK   10  A    between atoms: C_11  and  C_12
REMARK                            x       y       z     vdW  Elec       q    Type
REMARK                         _______ _______ _______ _____ _____    ______ ____
ROOT
ATOM      1  C   UNL     1      86.717  49.755  44.854  0.00  0.00    +0.307 C 
ATOM      2  O   UNL     1      85.751  49.004  45.160  0.00  0.00    -0.251 OA
ENDROOT
BRANCH   1   3
ATOM      3  C   UNL     1      87.246  49.752  43.456  0.00  0.00    +0.045 C 
BRANCH   3   4
ATOM      4  C   UNL     1      88.714  50.196  43.441  0.00  0.00    -0.043 C 
BRANCH   4   5
ATOM      5  C   UNL     1      89.331  50.152  42.034  0.00  0.00    -0.053 C 
BRANCH   5   6
ATOM      6  C   UNL     1      90.610  49.302  41.973  0.00  0.00    -0.053 C 
BRANCH   6   7
ATOM      7  C   UNL     1      90.909  48.665  43.338  0.00  0.00    -0.053 C 
BRANCH   7   9
ATOM      8  C   UNL     1      90.191  46.482  42.227  0.00  0.00    -0.065 C 
ATOM      9  C   UNL     1      91.115  47.144  43.248  0.00  0.00    -0.056 C 
ENDBRANCH   7   9
ENDBRANCH   6   7
ENDBRANCH   5   6
ENDBRANCH   4   5
ENDBRANCH   3   4
ENDBRANCH   1   3
BRANCH   1  10
ATOM     10  O   UNL     1      87.271  50.629  45.796  0.00  0.00    -0.460 OA
BRANCH  10  11
ATOM     11  C   UNL     1      86.657  50.921  47.049  0.00  0.00    +0.118 C 
BRANCH  11  12
ATOM     12  C   UNL     1      86.328  52.387  47.144  0.00  0.00    -0.010 A 
ATOM     13  C   UNL     1      86.694  53.256  46.103  0.00  0.00    -0.055 A 
ATOM     14  C   UNL     1      86.409  54.622  46.194  0.00  0.00    -0.061 A 
ATOM     15  C   UNL     1      85.762  55.130  47.323  0.00  0.00    -0.062 A 
ATOM     16  C   UNL     1      85.400  54.272  48.366  0.00  0.00    -0.061 A 
ATOM     17  C   UNL     1      85.682  52.905  48.280  0.00  0.00    -0.055 A 
ENDBRANCH  11  12
ENDBRANCH  10  11
ENDBRANCH   1  10
TORSDOF 9
ENDMDL
