MODEL 1
REMARK VINA RESULT:    -7.386      0.000      0.000
REMARK INTER + INTRA:          -7.386
REMARK INTER:                  -7.386
REMARK INTRA:                   0.000
REMARK UNBOUND:                 0.000
REMARK  Name = 
REMARK  3 active torsions:
REMARK  status: ('A' for Active; 'I' for Inactive)
REMARK    1  A    between atoms: C_7  and  C_16
REMARK    2  A    between atoms: C_13  and  C_14
REMARK    3  A    between atoms: C_13  and  C_15
REMARK                            x       y       z     vdW  Elec       q    Type
REMARK                         _______ _______ _______ _____ _____    ______ ____
ROOT
ATOM      1  C   UNL     1      86.656  52.261  45.334  0.00  0.00    -0.099 C 
ATOM      2  C   UNL     1      85.732  53.179  45.000  0.00  0.00    -0.073 C 
ATOM      3  C   UNL     1      85.603  53.602  43.543  0.00  0.00    -0.029 C 
ATOM      4  C   UNL     1      86.530  54.784  43.175  0.00  0.00    -0.020 C 
ATOM      5  C   UNL     1      86.573  55.830  44.295  0.00  0.00    +0.088 C 
ATOM      6  O   UNL     1      86.417  57.183  43.941  0.00  0.00    -0.365 OA
ATOM      7  C   UNL     1      85.295  56.571  44.552  0.00  0.00    +0.093 C 
ATOM      8  C   UNL     1      85.010  57.015  46.006  0.00  0.00    -0.021 C 
ATOM      9  C   UNL     1      85.741  56.243  47.132  0.00  0.00    -0.047 C 
ATOM     10  C   UNL     1      85.706  54.673  47.127  0.00  0.00    -0.029 C 
ATOM     11  C   UNL     1      84.895  53.912  46.053  0.00  0.00    -0.016 C 
ATOM     12  C   UNL     1      84.244  53.052  47.138  0.00  0.00    -0.041 C 
ATOM     13  C   UNL     1      84.890  53.934  48.225  0.00  0.00    -0.031 C 
ATOM     14  C   UNL     1      85.763  53.140  49.210  0.00  0.00    -0.060 C 
ATOM     15  C   UNL     1      83.825  54.770  48.963  0.00  0.00    -0.060 C 
ATOM     16  C   UNL     1      84.112  56.630  43.572  0.00  0.00    -0.033 C 
ENDROOT
TORSDOF 0
ENDMDL
MODEL 2
REMARK VINA RESULT:    -7.195      1.369      3.239
REMARK INTER + INTRA:          -7.195
REMARK INTER:                  -7.195
REMARK INTRA:                   0.000
REMARK UNBOUND:                 0.000
REMARK  Name = 
REMARK  3 active torsions:
REMARK  status: ('A' for Active; 'I' for Inactive)
REMARK    1  A    between atoms: C_7  and  C_16
REMARK    2  A    between atoms: C_13  and  C_14
REMARK    3  A    between atoms: C_13  and  C_15
REMARK                            x       y       z     vdW  Elec       q    Type
REMARK                         _______ _______ _______ _____ _____    ______ ____
ROOT
ATOM      1  C   UNL     1      84.458  57.282  46.281  0.00  0.00    -0.099 C 
ATOM      2  C   UNL     1      85.340  56.446  45.707  0.00  0.00    -0.073 C 
ATOM      3  C   UNL     1      85.866  56.767  44.315  0.00  0.00    -0.029 C 
ATOM      4  C   UNL     1      84.980  56.185  43.189  0.00  0.00    -0.020 C 
ATOM      5  C   UNL     1      84.490  54.774  43.537  0.00  0.00    +0.088 C 
ATOM      6  O   UNL     1      84.608  53.772  42.555  0.00  0.00    -0.365 OA
ATOM      7  C   UNL     1      85.545  53.712  43.614  0.00  0.00    +0.093 C 
ATOM      8  C   UNL     1      85.324  52.562  44.626  0.00  0.00    -0.021 C 
ATOM      9  C   UNL     1      84.367  52.844  45.811  0.00  0.00    -0.047 C 
ATOM     10  C   UNL     1      84.562  54.154  46.654  0.00  0.00    -0.029 C 
ATOM     11  C   UNL     1      85.736  55.113  46.350  0.00  0.00    -0.016 C 
ATOM     12  C   UNL     1      86.107  55.146  47.834  0.00  0.00    -0.041 C 
ATOM     13  C   UNL     1      85.074  54.039  48.118  0.00  0.00    -0.031 C 
ATOM     14  C   UNL     1      84.027  54.441  49.169  0.00  0.00    -0.060 C 
ATOM     15  C   UNL     1      85.770  52.715  48.495  0.00  0.00    -0.060 C 
ATOM     16  C   UNL     1      86.959  53.845  43.025  0.00  0.00    -0.033 C 
ENDROOT
TORSDOF 0
ENDMDL
MODEL 3
REMARK VINA RESULT:    -6.981      2.017      4.924
REMARK INTER + INTRA:          -6.981
REMARK INTER:                  -6.981
REMARK INTRA:                   0.000
REMARK UNBOUND:                 0.000
REMARK  Name = 
REMARK  3 active torsions:
REMARK  status: ('A' for Active; 'I' for Inactive)
REMARK    1  A    between atoms: C_7  and  C_16
REMARK    2  A    between atoms: C_13  and  C_14
REMARK    3  A    between atoms: C_13  and  C_15
REMARK                            x       y       z     vdW  Elec       q    Type
REMARK                         _______ _______ _______ _____ _____    ______ ____
ROOT
ATOM      1  C   UNL     1      86.321  57.149  44.277  0.00  0.00    -0.099 C 
ATOM      2  C   UNL     1      85.442  56.468  45.033  0.00  0.00    -0.073 C 
ATOM      3  C   UNL     1      85.599  56.484  46.547  0.00  0.00    -0.029 C 
ATOM      4  C   UNL     1      86.521  55.357  47.068  0.00  0.00    -0.020 C 
ATOM      5  C   UNL     1      86.273  54.042  46.318  0.00  0.00    +0.088 C 
ATOM      6  O   UNL     1      86.125  52.866  47.078  0.00  0.00    -0.365 OA
ATOM      7  C   UNL     1      84.934  53.405  46.534  0.00  0.00    +0.093 C 
ATOM      8  C   UNL     1      84.327  52.608  45.355  0.00  0.00    -0.021 C 
ATOM      9  C   UNL     1      84.843  52.951  43.936  0.00  0.00    -0.047 C 
ATOM     10  C   UNL     1      84.892  54.454  43.485  0.00  0.00    -0.029 C 
ATOM     11  C   UNL     1      84.365  55.568  44.418  0.00  0.00    -0.016 C 
ATOM     12  C   UNL     1      83.546  56.159  43.268  0.00  0.00    -0.041 C 
ATOM     13  C   UNL     1      83.903  54.944  42.390  0.00  0.00    -0.031 C 
ATOM     14  C   UNL     1      84.589  55.331  41.069  0.00  0.00    -0.060 C 
ATOM     15  C   UNL     1      82.665  54.059  42.142  0.00  0.00    -0.060 C 
ATOM     16  C   UNL     1      83.982  53.751  47.690  0.00  0.00    -0.033 C 
ENDROOT
TORSDOF 0
ENDMDL
MODEL 4
REMARK VINA RESULT:    -6.900      1.442      3.875
REMARK INTER + INTRA:          -6.900
REMARK INTER:                  -6.900
REMARK INTRA:                   0.000
REMARK UNBOUND:                 0.000
REMARK  Name = 
REMARK  3 active torsions:
REMARK  status: ('A' for Active; 'I' for Inactive)
REMARK    1  A    between atoms: C_7  and  C_16
REMARK    2  A    between atoms: C_13  and  C_14
REMARK    3  A    between atoms: C_13  and  C_15
REMARK                            x       y       z     vdW  Elec       q    Type
REMARK                         _______ _______ _______ _____ _____    ______ ____
ROOT
ATOM      1  C   UNL     1      85.364  52.833  48.279  0.00  0.00    -0.099 C 
ATOM      2  C   UNL     1      86.054  53.591  47.409  0.00  0.00    -0.073 C 
ATOM      3  C   UNL     1      86.017  55.106  47.556  0.00  0.00    -0.029 C 
ATOM      4  C   UNL     1      84.843  55.756  46.787  0.00  0.00    -0.020 C 
ATOM      5  C   UNL     1      84.638  55.095  45.419  0.00  0.00    +0.088 C 
ATOM      6  O   UNL     1      84.486  55.931  44.297  0.00  0.00    -0.365 OA
ATOM      7  C   UNL     1      85.741  55.288  44.423  0.00  0.00    +0.093 C 
ATOM      8  C   UNL     1      86.000  54.142  43.416  0.00  0.00    -0.021 C 
ATOM      9  C   UNL     1      85.508  52.730  43.819  0.00  0.00    -0.047 C 
ATOM     10  C   UNL     1      85.873  52.171  45.240  0.00  0.00    -0.029 C 
ATOM     11  C   UNL     1      86.770  52.990  46.196  0.00  0.00    -0.016 C 
ATOM     12  C   UNL     1      87.643  51.759  46.449  0.00  0.00    -0.041 C 
ATOM     13  C   UNL     1      86.882  50.993  45.350  0.00  0.00    -0.031 C 
ATOM     14  C   UNL     1      86.248  49.684  45.850  0.00  0.00    -0.060 C 
ATOM     15  C   UNL     1      87.783  50.749  44.122  0.00  0.00    -0.060 C 
ATOM     16  C   UNL     1      86.834  56.365  44.533  0.00  0.00    -0.033 C 
ENDROOT
TORSDOF 0
ENDMDL
MODEL 5
REMARK VINA RESULT:    -6.852      1.661      2.932
REMARK INTER + INTRA:          -6.852
REMARK INTER:                  -6.852
REMARK INTRA:                   0.000
REMARK UNBOUND:                 0.000
REMARK  Name = 
REMARK  3 active torsions:
REMARK  status: ('A' for Active; 'I' for Inactive)
REMARK    1  A    between atoms: C_7  and  C_16
REMARK    2  A    between atoms: C_13  and  C_14
REMARK    3  A    between atoms: C_13  and  C_15
REMARK                            x       y       z     vdW  Elec       q    Type
REMARK                         _______ _______ _______ _____ _____    ______ ____
ROOT
ATOM      1  C   UNL     1      85.314  54.613  42.439  0.00  0.00    -0.099 C 
ATOM      2  C   UNL     1      84.677  54.964  43.570  0.00  0.00    -0.073 C 
ATOM      3  C   UNL     1      83.820  56.222  43.576  0.00  0.00    -0.029 C 
ATOM      4  C   UNL     1      84.621  57.494  43.942  0.00  0.00    -0.020 C 
ATOM      5  C   UNL     1      85.619  57.219  45.073  0.00  0.00    +0.088 C 
ATOM      6  O   UNL     1      85.666  58.126  46.147  0.00  0.00    -0.365 OA
ATOM      7  C   UNL     1      85.025  56.891  46.409  0.00  0.00    +0.093 C 
ATOM      8  C   UNL     1      85.812  55.918  47.318  0.00  0.00    -0.021 C 
ATOM      9  C   UNL     1      86.822  54.971  46.624  0.00  0.00    -0.047 C 
ATOM     10  C   UNL     1      86.355  54.141  45.375  0.00  0.00    -0.029 C 
ATOM     11  C   UNL     1      84.890  54.216  44.889  0.00  0.00    -0.016 C 
ATOM     12  C   UNL     1      84.818  52.688  44.836  0.00  0.00    -0.041 C 
ATOM     13  C   UNL     1      86.201  52.600  45.509  0.00  0.00    -0.031 C 
ATOM     14  C   UNL     1      87.227  51.805  44.685  0.00  0.00    -0.060 C 
ATOM     15  C   UNL     1      86.083  52.048  46.945  0.00  0.00    -0.060 C 
ATOM     16  C   UNL     1      83.566  57.172  46.805  0.00  0.00    -0.033 C 
ENDROOT
TORSDOF 0
ENDMDL
MODEL 6
REMARK VINA RESULT:    -6.656      6.188      8.388
REMARK INTER + INTRA:          -6.656
REMARK INTER:                  -6.656
REMARK INTRA:                   0.000
REMARK UNBOUND:                 0.000
REMARK  Name = 
REMARK  3 active torsions:
REMARK  status: ('A' for Active; 'I' for Inactive)
REMARK    1  A    between atoms: C_7  and  C_16
REMARK    2  A    between atoms: C_13  and  C_14
REMARK    3  A    between atoms: C_13  and  C_15
REMARK                            x       y       z     vdW  Elec       q    Type
REMARK                         _______ _______ _______ _____ _____    ______ ____
ROOT
ATOM      1  C   UNL     1      85.941  50.338  42.880  0.00  0.00    -0.099 C 
ATOM      2  C   UNL     1      87.056  49.805  43.411  0.00  0.00    -0.073 C 
ATOM      3  C   UNL     1      88.325  50.644  43.461  0.00  0.00    -0.029 C 
ATOM      4  C   UNL     1      89.185  50.510  42.182  0.00  0.00    -0.020 C 
ATOM      5  C   UNL     1      89.221  49.060  41.683  0.00  0.00    +0.088 C 
ATOM      6  O   UNL     1      90.471  48.509  41.343  0.00  0.00    -0.365 OA
ATOM      7  C   UNL     1      89.919  48.076  42.573  0.00  0.00    +0.093 C 
ATOM      8  C   UNL     1      89.386  46.623  42.582  0.00  0.00    -0.021 C 
ATOM      9  C   UNL     1      87.922  46.410  42.127  0.00  0.00    -0.047 C 
ATOM     10  C   UNL     1      86.792  47.307  42.747  0.00  0.00    -0.029 C 
ATOM     11  C   UNL     1      87.128  48.339  43.847  0.00  0.00    -0.016 C 
ATOM     12  C   UNL     1      85.974  47.816  44.706  0.00  0.00    -0.041 C 
ATOM     13  C   UNL     1      85.760  46.658  43.712  0.00  0.00    -0.031 C 
ATOM     14  C   UNL     1      84.333  46.605  43.142  0.00  0.00    -0.060 C 
ATOM     15  C   UNL     1      86.166  45.309  44.340  0.00  0.00    -0.060 C 
ATOM     16  C   UNL     1      90.886  48.459  43.704  0.00  0.00    -0.033 C 
ENDROOT
TORSDOF 0
ENDMDL
MODEL 7
REMARK VINA RESULT:    -6.619      1.769      2.658
REMARK INTER + INTRA:          -6.619
REMARK INTER:                  -6.619
REMARK INTRA:                   0.000
REMARK UNBOUND:                 0.000
REMARK  Name = 
REMARK  3 active torsions:
REMARK  status: ('A' for Active; 'I' for Inactive)
REMARK    1  A    between atoms: C_7  and  C_16
REMARK    2  A    between atoms: C_13  and  C_14
REMARK    3  A    between atoms: C_13  and  C_15
REMARK                            x       y       z     vdW  Elec       q    Type
REMARK                         _______ _______ _______ _____ _____    ______ ____
ROOT
ATOM      1  C   UNL     1      86.116  52.174  45.387  0.00  0.00    -0.099 C 
ATOM      2  C   UNL     1      85.076  52.750  44.758  0.00  0.00    -0.073 C 
ATOM      3  C   UNL     1      84.464  52.053  43.551  0.00  0.00    -0.029 C 
ATOM      4  C   UNL     1      85.148  52.444  42.220  0.00  0.00    -0.020 C 
ATOM      5  C   UNL     1      85.476  53.941  42.179  0.00  0.00    +0.088 C 
ATOM      6  O   UNL     1      85.128  54.663  41.022  0.00  0.00    -0.365 OA
ATOM      7  C   UNL     1      84.300  54.871  42.152  0.00  0.00    +0.093 C 
ATOM      8  C   UNL     1      84.463  56.245  42.846  0.00  0.00    -0.021 C 
ATOM      9  C   UNL     1      85.562  56.357  43.931  0.00  0.00    -0.047 C 
ATOM     10  C   UNL     1      85.629  55.271  45.063  0.00  0.00    -0.029 C 
ATOM     11  C   UNL     1      84.571  54.147  45.132  0.00  0.00    -0.016 C 
ATOM     12  C   UNL     1      84.355  54.426  46.622  0.00  0.00    -0.041 C 
ATOM     13  C   UNL     1      85.254  55.674  46.517  0.00  0.00    -0.031 C 
ATOM     14  C   UNL     1      86.444  55.647  47.490  0.00  0.00    -0.060 C 
ATOM     15  C   UNL     1      84.426  56.965  46.676  0.00  0.00    -0.060 C 
ATOM     16  C   UNL     1      82.866  54.450  41.792  0.00  0.00    -0.033 C 
ENDROOT
TORSDOF 0
ENDMDL
MODEL 8
REMARK VINA RESULT:    -6.504      1.837      4.598
REMARK INTER + INTRA:          -6.504
REMARK INTER:                  -6.504
REMARK INTRA:                   0.000
REMARK UNBOUND:                 0.000
REMARK  Name = 
REMARK  3 active torsions:
REMARK  status: ('A' for Active; 'I' for Inactive)
REMARK    1  A    between atoms: C_7  and  C_16
REMARK    2  A    between atoms: C_13  and  C_14
REMARK    3  A    between atoms: C_13  and  C_15
REMARK                            x       y       z     vdW  Elec       q    Type
REMARK                         _______ _______ _______ _____ _____    ______ ____
ROOT
ATOM      1  C   UNL     1      86.096  55.675  47.677  0.00  0.00    -0.099 C 
ATOM      2  C   UNL     1      85.403  54.764  46.970  0.00  0.00    -0.073 C 
ATOM      3  C   UNL     1      85.189  53.377  47.560  0.00  0.00    -0.029 C 
ATOM      4  C   UNL     1      86.330  52.393  47.210  0.00  0.00    -0.020 C 
ATOM      5  C   UNL     1      86.792  52.567  45.758  0.00  0.00    +0.088 C 
ATOM      6  O   UNL     1      86.943  51.410  44.970  0.00  0.00    -0.365 OA
ATOM      7  C   UNL     1      85.795  52.196  44.703  0.00  0.00    +0.093 C 
ATOM      8  C   UNL     1      85.835  52.992  43.376  0.00  0.00    -0.021 C 
ATOM      9  C   UNL     1      86.488  54.395  43.419  0.00  0.00    -0.047 C 
ATOM     10  C   UNL     1      86.050  55.407  44.537  0.00  0.00    -0.029 C 
ATOM     11  C   UNL     1      84.933  55.032  45.537  0.00  0.00    -0.016 C 
ATOM     12  C   UNL     1      84.237  56.370  45.277  0.00  0.00    -0.041 C 
ATOM     13  C   UNL     1      85.229  56.664  44.136  0.00  0.00    -0.031 C 
ATOM     14  C   UNL     1      85.995  57.985  44.323  0.00  0.00    -0.060 C 
ATOM     15  C   UNL     1      84.526  56.612  42.764  0.00  0.00    -0.060 C 
ATOM     16  C   UNL     1      84.545  51.336  44.950  0.00  0.00    -0.033 C 
ENDROOT
TORSDOF 0
ENDMDL
MODEL 9
REMARK VINA RESULT:    -6.470      2.273      4.175
REMARK INTER + INTRA:          -6.470
REMARK INTER:                  -6.470
REMARK INTRA:                   0.000
REMARK UNBOUND:                 0.000
REMARK  Name = 
REMARK  3 active torsions:
REMARK  status: ('A' for Active; 'I' for Inactive)
REMARK    1  A    between atoms: C_7  and  C_16
REMARK    2  A    between atoms: C_13  and  C_14
REMARK    3  A    between atoms: C_13  and  C_15
REMARK                            x       y       z     vdW  Elec       q    Type
REMARK                         _______ _______ _______ _____ _____    ______ ____
ROOT
ATOM      1  C   UNL     1      84.721  55.299  42.326  0.00  0.00    -0.099 C 
ATOM      2  C   UNL     1      85.671  54.525  42.880  0.00  0.00    -0.073 C 
ATOM      3  C   UNL     1      86.228  53.354  42.083  0.00  0.00    -0.029 C 
ATOM      4  C   UNL     1      85.420  52.051  42.284  0.00  0.00    -0.020 C 
ATOM      5  C   UNL     1      85.000  51.875  43.748  0.00  0.00    +0.088 C 
ATOM      6  O   UNL     1      85.211  50.620  44.350  0.00  0.00    -0.365 OA
ATOM      7  C   UNL     1      86.110  51.647  44.728  0.00  0.00    +0.093 C 
ATOM      8  C   UNL     1      85.919  52.198  46.162  0.00  0.00    -0.021 C 
ATOM      9  C   UNL     1      84.904  53.353  46.339  0.00  0.00    -0.047 C 
ATOM     10  C   UNL     1      84.992  54.599  45.387  0.00  0.00    -0.029 C 
ATOM     11  C   UNL     1      86.118  54.701  44.334  0.00  0.00    -0.016 C 
ATOM     12  C   UNL     1      86.432  56.127  44.792  0.00  0.00    -0.041 C 
ATOM     13  C   UNL     1      85.454  55.963  45.972  0.00  0.00    -0.031 C 
ATOM     14  C   UNL     1      84.347  57.030  45.995  0.00  0.00    -0.060 C 
ATOM     15  C   UNL     1      86.212  55.909  47.314  0.00  0.00    -0.060 C 
ATOM     16  C   UNL     1      87.535  51.215  44.344  0.00  0.00    -0.033 C 
ENDROOT
TORSDOF 0
ENDMDL
