MODEL 1
REMARK VINA RESULT:    -7.380      0.000      0.000
REMARK INTER + INTRA:          -7.380
REMARK INTER:                  -7.380
REMARK INTRA:                   0.000
REMARK UNBOUND:                 0.000
REMARK  Name = 
REMARK  3 active torsions:
REMARK  status: ('A' for Active; 'I' for Inactive)
REMARK    1  A    between atoms: C_7  and  C_16
REMARK    2  A    between atoms: C_13  and  C_14
REMARK    3  A    between atoms: C_13  and  C_15
REMARK                            x       y       z     vdW  Elec       q    Type
REMARK                         _______ _______ _______ _____ _____    ______ ____
ROOT
ATOM      1  C   UNL     1      86.131  51.987  44.854  0.00  0.00    -0.099 C 
ATOM      2  C   UNL     1      85.389  53.099  44.713  0.00  0.00    -0.073 C 
ATOM      3  C   UNL     1      85.210  53.698  43.325  0.00  0.00    -0.029 C 
ATOM      4  C   UNL     1      86.322  54.710  42.959  0.00  0.00    -0.020 C 
ATOM      5  C   UNL     1      86.685  55.597  44.156  0.00  0.00    +0.088 C 
ATOM      6  O   UNL     1      86.777  56.985  43.946  0.00  0.00    -0.365 OA
ATOM      7  C   UNL     1      85.617  56.539  44.624  0.00  0.00    +0.093 C 
ATOM      8  C   UNL     1      85.569  56.866  46.136  0.00  0.00    -0.021 C 
ATOM      9  C   UNL     1      86.229  55.846  47.095  0.00  0.00    -0.047 C 
ATOM     10  C   UNL     1      85.872  54.323  46.954  0.00  0.00    -0.029 C 
ATOM     11  C   UNL     1      84.824  53.859  45.917  0.00  0.00    -0.016 C 
ATOM     12  C   UNL     1      84.117  53.027  46.989  0.00  0.00    -0.041 C 
ATOM     13  C   UNL     1      85.030  53.640  48.068  0.00  0.00    -0.031 C 
ATOM     14  C   UNL     1      85.812  52.586  48.871  0.00  0.00    -0.060 C 
ATOM     15  C   UNL     1      84.235  54.580  48.996  0.00  0.00    -0.060 C 
ATOM     16  C   UNL     1      84.384  56.936  43.797  0.00  0.00    -0.033 C 
ENDROOT
TORSDOF 0
ENDMDL
MODEL 2
REMARK VINA RESULT:    -7.318      1.397      3.291
REMARK INTER + INTRA:          -7.318
REMARK INTER:                  -7.318
REMARK INTRA:                   0.000
REMARK UNBOUND:                 0.000
REMARK  Name = 
REMARK  3 active torsions:
REMARK  status: ('A' for Active; 'I' for Inactive)
REMARK    1  A    between atoms: C_7  and  C_16
REMARK    2  A    between atoms: C_13  and  C_14
REMARK    3  A    between atoms: C_13  and  C_15
REMARK                            x       y       z     vdW  Elec       q    Type
REMARK                         _______ _______ _______ _____ _____    ______ ____
ROOT
ATOM      1  C   UNL     1      84.490  57.368  45.916  0.00  0.00    -0.099 C 
ATOM      2  C   UNL     1      85.370  56.498  45.390  0.00  0.00    -0.073 C 
ATOM      3  C   UNL     1      85.895  56.736  43.981  0.00  0.00    -0.029 C 
ATOM      4  C   UNL     1      85.006  56.091  42.892  0.00  0.00    -0.020 C 
ATOM      5  C   UNL     1      84.514  54.704  43.323  0.00  0.00    +0.088 C 
ATOM      6  O   UNL     1      84.628  53.647  42.401  0.00  0.00    -0.365 OA
ATOM      7  C   UNL     1      85.566  53.646  43.461  0.00  0.00    +0.093 C 
ATOM      8  C   UNL     1      85.345  52.558  44.539  0.00  0.00    -0.021 C 
ATOM      9  C   UNL     1      84.390  52.911  45.706  0.00  0.00    -0.047 C 
ATOM     10  C   UNL     1      84.589  54.268  46.471  0.00  0.00    -0.029 C 
ATOM     11  C   UNL     1      85.764  55.204  46.110  0.00  0.00    -0.016 C 
ATOM     12  C   UNL     1      86.138  55.323  47.589  0.00  0.00    -0.041 C 
ATOM     13  C   UNL     1      85.102  54.237  47.938  0.00  0.00    -0.031 C 
ATOM     14  C   UNL     1      84.057  54.703  48.966  0.00  0.00    -0.060 C 
ATOM     15  C   UNL     1      85.796  52.937  48.391  0.00  0.00    -0.060 C 
ATOM     16  C   UNL     1      86.980  53.742  42.863  0.00  0.00    -0.033 C 
ENDROOT
TORSDOF 0
ENDMDL
MODEL 3
REMARK VINA RESULT:    -7.075      1.772      4.117
REMARK INTER + INTRA:          -7.075
REMARK INTER:                  -7.075
REMARK INTRA:                   0.000
REMARK UNBOUND:                 0.000
REMARK  Name = 
REMARK  3 active torsions:
REMARK  status: ('A' for Active; 'I' for Inactive)
REMARK    1  A    between atoms: C_7  and  C_16
REMARK    2  A    between atoms: C_13  and  C_14
REMARK    3  A    between atoms: C_13  and  C_15
REMARK                            x       y       z     vdW  Elec       q    Type
REMARK                         _______ _______ _______ _____ _____    ______ ____
ROOT
ATOM      1  C   UNL     1      85.498  51.715  48.835  0.00  0.00    -0.099 C 
ATOM      2  C   UNL     1      85.939  52.797  48.168  0.00  0.00    -0.073 C 
ATOM      3  C   UNL     1      85.800  54.170  48.810  0.00  0.00    -0.029 C 
ATOM      4  C   UNL     1      84.447  54.849  48.490  0.00  0.00    -0.020 C 
ATOM      5  C   UNL     1      84.039  54.620  47.029  0.00  0.00    +0.088 C 
ATOM      6  O   UNL     1      83.601  55.731  46.284  0.00  0.00    -0.365 OA
ATOM      7  C   UNL     1      84.908  55.268  45.995  0.00  0.00    +0.093 C 
ATOM      8  C   UNL     1      85.066  54.539  44.639  0.00  0.00    -0.021 C 
ATOM      9  C   UNL     1      84.785  53.016  44.625  0.00  0.00    -0.047 C 
ATOM     10  C   UNL     1      85.466  52.105  45.708  0.00  0.00    -0.029 C 
ATOM     11  C   UNL     1      86.456  52.709  46.728  0.00  0.00    -0.016 C 
ATOM     12  C   UNL     1      87.465  51.600  46.423  0.00  0.00    -0.041 C 
ATOM     13  C   UNL     1      86.575  51.109  45.265  0.00  0.00    -0.031 C 
ATOM     14  C   UNL     1      86.165  49.633  45.398  0.00  0.00    -0.060 C 
ATOM     15  C   UNL     1      87.238  51.388  43.901  0.00  0.00    -0.060 C 
ATOM     16  C   UNL     1      85.904  56.404  46.282  0.00  0.00    -0.033 C 
ENDROOT
TORSDOF 0
ENDMDL
MODEL 4
REMARK VINA RESULT:    -6.927      1.438      3.759
REMARK INTER + INTRA:          -6.927
REMARK INTER:                  -6.927
REMARK INTRA:                   0.000
REMARK UNBOUND:                 0.000
REMARK  Name = 
REMARK  3 active torsions:
REMARK  status: ('A' for Active; 'I' for Inactive)
REMARK    1  A    between atoms: C_7  and  C_16
REMARK    2  A    between atoms: C_13  and  C_14
REMARK    3  A    between atoms: C_13  and  C_15
REMARK                            x       y       z     vdW  Elec       q    Type
REMARK                         _______ _______ _______ _____ _____    ______ ____
ROOT
ATOM      1  C   UNL     1      85.308  52.975  48.026  0.00  0.00    -0.099 C 
ATOM      2  C   UNL     1      86.014  53.719  47.157  0.00  0.00    -0.073 C 
ATOM      3  C   UNL     1      85.994  55.235  47.293  0.00  0.00    -0.029 C 
ATOM      4  C   UNL     1      84.833  55.894  46.511  0.00  0.00    -0.020 C 
ATOM      5  C   UNL     1      84.630  55.226  45.146  0.00  0.00    +0.088 C 
ATOM      6  O   UNL     1      84.497  56.057  44.017  0.00  0.00    -0.365 OA
ATOM      7  C   UNL     1      85.743  55.399  44.157  0.00  0.00    +0.093 C 
ATOM      8  C   UNL     1      85.996  54.243  43.160  0.00  0.00    -0.021 C 
ATOM      9  C   UNL     1      85.484  52.840  43.568  0.00  0.00    -0.047 C 
ATOM     10  C   UNL     1      85.832  52.286  44.996  0.00  0.00    -0.029 C 
ATOM     11  C   UNL     1      86.731  53.101  45.953  0.00  0.00    -0.016 C 
ATOM     12  C   UNL     1      87.587  51.861  46.221  0.00  0.00    -0.041 C 
ATOM     13  C   UNL     1      86.825  51.097  45.121  0.00  0.00    -0.031 C 
ATOM     14  C   UNL     1      86.172  49.800  45.626  0.00  0.00    -0.060 C 
ATOM     15  C   UNL     1      87.732  50.833  43.902  0.00  0.00    -0.060 C 
ATOM     16  C   UNL     1      86.848  56.463  44.268  0.00  0.00    -0.033 C 
ENDROOT
TORSDOF 0
ENDMDL
MODEL 5
REMARK VINA RESULT:    -6.846      1.854      2.866
REMARK INTER + INTRA:          -6.846
REMARK INTER:                  -6.846
REMARK INTRA:                   0.000
REMARK UNBOUND:                 0.000
REMARK  Name = 
REMARK  3 active torsions:
REMARK  status: ('A' for Active; 'I' for Inactive)
REMARK    1  A    between atoms: C_7  and  C_16
REMARK    2  A    between atoms: C_13  and  C_14
REMARK    3  A    between atoms: C_13  and  C_15
REMARK                            x       y       z     vdW  Elec       q    Type
REMARK                         _______ _______ _______ _____ _____    ______ ____
ROOT
ATOM      1  C   UNL     1      86.668  52.373  44.877  0.00  0.00    -0.099 C 
ATOM      2  C   UNL     1      85.507  52.741  44.307  0.00  0.00    -0.073 C 
ATOM      3  C   UNL     1      85.026  52.004  43.066  0.00  0.00    -0.029 C 
ATOM      4  C   UNL     1      85.562  52.622  41.753  0.00  0.00    -0.020 C 
ATOM      5  C   UNL     1      85.548  54.155  41.812  0.00  0.00    +0.088 C 
ATOM      6  O   UNL     1      85.012  54.853  40.714  0.00  0.00    -0.365 OA
ATOM      7  C   UNL     1      84.196  54.798  41.870  0.00  0.00    +0.093 C 
ATOM      8  C   UNL     1      84.073  56.126  42.654  0.00  0.00    -0.021 C 
ATOM      9  C   UNL     1      85.154  56.410  43.726  0.00  0.00    -0.047 C 
ATOM     10  C   UNL     1      85.497  55.297  44.778  0.00  0.00    -0.029 C 
ATOM     11  C   UNL     1      84.717  53.963  44.787  0.00  0.00    -0.016 C 
ATOM     12  C   UNL     1      84.493  54.091  46.296  0.00  0.00    -0.041 C 
ATOM     13  C   UNL     1      85.089  55.512  46.263  0.00  0.00    -0.031 C 
ATOM     14  C   UNL     1      86.287  55.689  47.211  0.00  0.00    -0.060 C 
ATOM     15  C   UNL     1      84.001  56.573  46.526  0.00  0.00    -0.060 C 
ATOM     16  C   UNL     1      82.880  54.091  41.506  0.00  0.00    -0.033 C 
ENDROOT
TORSDOF 0
ENDMDL
MODEL 6
REMARK VINA RESULT:    -6.670      3.941      6.155
REMARK INTER + INTRA:          -6.670
REMARK INTER:                  -6.670
REMARK INTRA:                   0.000
REMARK UNBOUND:                 0.000
REMARK  Name = 
REMARK  3 active torsions:
REMARK  status: ('A' for Active; 'I' for Inactive)
REMARK    1  A    between atoms: C_7  and  C_16
REMARK    2  A    between atoms: C_13  and  C_14
REMARK    3  A    between atoms: C_13  and  C_15
REMARK                            x       y       z     vdW  Elec       q    Type
REMARK                         _______ _______ _______ _____ _____    ______ ____
ROOT
ATOM      1  C   UNL     1      87.125  53.354  42.609  0.00  0.00    -0.099 C 
ATOM      2  C   UNL     1      87.956  52.317  42.813  0.00  0.00    -0.073 C 
ATOM      3  C   UNL     1      89.016  52.001  41.767  0.00  0.00    -0.029 C 
ATOM      4  C   UNL     1      88.509  51.040  40.667  0.00  0.00    -0.020 C 
ATOM      5  C   UNL     1      87.634  49.927  41.258  0.00  0.00    +0.088 C 
ATOM      6  O   UNL     1      87.890  48.603  40.858  0.00  0.00    -0.365 OA
ATOM      7  C   UNL     1      88.330  48.952  42.158  0.00  0.00    +0.093 C 
ATOM      8  C   UNL     1      87.509  48.343  43.319  0.00  0.00    -0.021 C 
ATOM      9  C   UNL     1      86.265  49.136  43.790  0.00  0.00    -0.047 C 
ATOM     10  C   UNL     1      86.410  50.670  44.097  0.00  0.00    -0.029 C 
ATOM     11  C   UNL     1      87.789  51.360  43.998  0.00  0.00    -0.016 C 
ATOM     12  C   UNL     1      87.581  51.997  45.374  0.00  0.00    -0.041 C 
ATOM     13  C   UNL     1      86.304  51.156  45.570  0.00  0.00    -0.031 C 
ATOM     14  C   UNL     1      85.055  52.008  45.848  0.00  0.00    -0.060 C 
ATOM     15  C   UNL     1      86.510  50.085  46.659  0.00  0.00    -0.060 C 
ATOM     16  C   UNL     1      89.855  48.764  42.224  0.00  0.00    -0.033 C 
ENDROOT
TORSDOF 0
ENDMDL
MODEL 7
REMARK VINA RESULT:    -6.631      2.567      4.577
REMARK INTER + INTRA:          -6.631
REMARK INTER:                  -6.631
REMARK INTRA:                   0.000
REMARK UNBOUND:                 0.000
REMARK  Name = 
REMARK  3 active torsions:
REMARK  status: ('A' for Active; 'I' for Inactive)
REMARK    1  A    between atoms: C_7  and  C_16
REMARK    2  A    between atoms: C_13  and  C_14
REMARK    3  A    between atoms: C_13  and  C_15
REMARK                            x       y       z     vdW  Elec       q    Type
REMARK                         _______ _______ _______ _____ _____    ______ ____
ROOT
ATOM      1  C   UNL     1      86.045  53.218  43.005  0.00  0.00    -0.099 C 
ATOM      2  C   UNL     1      86.804  52.804  44.035  0.00  0.00    -0.073 C 
ATOM      3  C   UNL     1      87.643  51.543  43.876  0.00  0.00    -0.029 C 
ATOM      4  C   UNL     1      86.876  50.258  44.266  0.00  0.00    -0.020 C 
ATOM      5  C   UNL     1      86.018  50.478  45.518  0.00  0.00    +0.088 C 
ATOM      6  O   UNL     1      86.086  49.515  46.543  0.00  0.00    -0.365 OA
ATOM      7  C   UNL     1      86.767  50.732  46.791  0.00  0.00    +0.093 C 
ATOM      8  C   UNL     1      86.101  51.660  47.835  0.00  0.00    -0.021 C 
ATOM      9  C   UNL     1      85.028  52.647  47.313  0.00  0.00    -0.047 C 
ATOM     10  C   UNL     1      85.356  53.539  46.063  0.00  0.00    -0.029 C 
ATOM     11  C   UNL     1      86.754  53.482  45.407  0.00  0.00    -0.016 C 
ATOM     12  C   UNL     1      86.836  55.011  45.425  0.00  0.00    -0.041 C 
ATOM     13  C   UNL     1      85.541  55.070  46.258  0.00  0.00    -0.031 C 
ATOM     14  C   UNL     1      84.435  55.913  45.601  0.00  0.00    -0.060 C 
ATOM     15  C   UNL     1      85.831  55.545  47.696  0.00  0.00    -0.060 C 
ATOM     16  C   UNL     1      88.259  50.424  47.000  0.00  0.00    -0.033 C 
ENDROOT
TORSDOF 0
ENDMDL
MODEL 8
REMARK VINA RESULT:    -6.620      2.199      4.100
REMARK INTER + INTRA:          -6.620
REMARK INTER:                  -6.620
REMARK INTRA:                   0.000
REMARK UNBOUND:                 0.000
REMARK  Name = 
REMARK  3 active torsions:
REMARK  status: ('A' for Active; 'I' for Inactive)
REMARK    1  A    between atoms: C_7  and  C_16
REMARK    2  A    between atoms: C_13  and  C_14
REMARK    3  A    between atoms: C_13  and  C_15
REMARK                            x       y       z     vdW  Elec       q    Type
REMARK                         _______ _______ _______ _____ _____    ______ ____
ROOT
ATOM      1  C   UNL     1      84.406  55.837  42.443  0.00  0.00    -0.099 C 
ATOM      2  C   UNL     1      85.214  54.860  42.888  0.00  0.00    -0.073 C 
ATOM      3  C   UNL     1      85.480  53.655  41.997  0.00  0.00    -0.029 C 
ATOM      4  C   UNL     1      84.442  52.524  42.189  0.00  0.00    -0.020 C 
ATOM      5  C   UNL     1      84.084  52.342  43.668  0.00  0.00    +0.088 C 
ATOM      6  O   UNL     1      84.077  51.034  44.190  0.00  0.00    -0.365 OA
ATOM      7  C   UNL     1      85.183  51.840  44.555  0.00  0.00    +0.093 C 
ATOM      8  C   UNL     1      85.191  52.326  46.024  0.00  0.00    -0.021 C 
ATOM      9  C   UNL     1      84.438  53.644  46.330  0.00  0.00    -0.047 C 
ATOM     10  C   UNL     1      84.714  54.906  45.438  0.00  0.00    -0.029 C 
ATOM     11  C   UNL     1      85.773  54.853  44.315  0.00  0.00    -0.016 C 
ATOM     12  C   UNL     1      86.391  56.159  44.820  0.00  0.00    -0.041 C 
ATOM     13  C   UNL     1      85.472  56.115  46.056  0.00  0.00    -0.031 C 
ATOM     14  C   UNL     1      84.602  57.373  46.211  0.00  0.00    -0.060 C 
ATOM     15  C   UNL     1      86.282  55.830  47.337  0.00  0.00    -0.060 C 
ATOM     16  C   UNL     1      86.468  51.165  44.049  0.00  0.00    -0.033 C 
ENDROOT
TORSDOF 0
ENDMDL
MODEL 9
REMARK VINA RESULT:    -6.132      2.353      5.000
REMARK INTER + INTRA:          -6.132
REMARK INTER:                  -6.132
REMARK INTRA:                   0.000
REMARK UNBOUND:                 0.000
REMARK  Name = 
REMARK  3 active torsions:
REMARK  status: ('A' for Active; 'I' for Inactive)
REMARK    1  A    between atoms: C_7  and  C_16
REMARK    2  A    between atoms: C_13  and  C_14
REMARK    3  A    between atoms: C_13  and  C_15
REMARK                            x       y       z     vdW  Elec       q    Type
REMARK                         _______ _______ _______ _____ _____    ______ ____
ROOT
ATOM      1  C   UNL     1      86.327  49.755  45.444  0.00  0.00    -0.099 C 
ATOM      2  C   UNL     1      86.791  51.014  45.536  0.00  0.00    -0.073 C 
ATOM      3  C   UNL     1      86.492  51.823  46.790  0.00  0.00    -0.029 C 
ATOM      4  C   UNL     1      85.157  52.600  46.701  0.00  0.00    -0.020 C 
ATOM      5  C   UNL     1      84.958  53.209  45.307  0.00  0.00    +0.088 C 
ATOM      6  O   UNL     1      84.561  54.557  45.226  0.00  0.00    -0.365 OA
ATOM      7  C   UNL     1      85.918  54.293  44.921  0.00  0.00    +0.093 C 
ATOM      8  C   UNL     1      86.293  54.412  43.424  0.00  0.00    -0.021 C 
ATOM      9  C   UNL     1      86.103  53.147  42.552  0.00  0.00    -0.047 C 
ATOM     10  C   UNL     1      86.685  51.778  43.054  0.00  0.00    -0.029 C 
ATOM     11  C   UNL     1      87.497  51.708  44.367  0.00  0.00    -0.016 C 
ATOM     12  C   UNL     1      88.597  50.916  43.657  0.00  0.00    -0.041 C 
ATOM     13  C   UNL     1      87.896  51.154  42.306  0.00  0.00    -0.031 C 
ATOM     14  C   UNL     1      87.556  49.852  41.562  0.00  0.00    -0.060 C 
ATOM     15  C   UNL     1      88.717  52.111  41.418  0.00  0.00    -0.060 C 
ATOM     16  C   UNL     1      86.802  55.067  45.913  0.00  0.00    -0.033 C 
ENDROOT
TORSDOF 0
ENDMDL
