MODEL 1
REMARK VINA RESULT:    -7.790      0.000      0.000
REMARK INTER + INTRA:          -9.742
REMARK INTER:                  -9.375
REMARK INTRA:                  -0.367
REMARK UNBOUND:                -0.359
REMARK  Name = 
REMARK  6 active torsions:
REMARK  status: ('A' for Active; 'I' for Inactive)
REMARK    1  A    between atoms: O_1  and  C_2
REMARK    2  A    between atoms: C_6  and  C_7
REMARK    3  A    between atoms: C_10  and  O_14
REMARK    4  A    between atoms: C_11  and  O_13
REMARK    5  A    between atoms: C_15  and  O_21
REMARK    6  A    between atoms: C_18  and  O_20
REMARK                            x       y       z     vdW  Elec       q    Type
REMARK                         _______ _______ _______ _____ _____    ______ ____
ROOT
ATOM      1  C   UNL     1      85.692  58.024  44.525  0.00  0.00    +0.124 A 
ATOM      2  C   UNL     1      86.096  56.689  44.621  0.00  0.00    +0.022 A 
ATOM      3  C   UNL     1      85.546  55.855  45.598  0.00  0.00    +0.132 A 
ATOM      4  O   UNL     1      85.981  54.527  45.680  0.00  0.00    -0.481 OA
ATOM      5  C   UNL     1      85.612  53.670  46.759  0.00  0.00    +0.151 C 
ATOM      6  C   UNL     1      84.147  53.928  47.152  0.00  0.00    +0.100 C 
ATOM      7  C   UNL     1      83.956  55.413  47.511  0.00  0.00    +0.009 C 
ATOM      8  C   UNL     1      84.555  56.343  46.476  0.00  0.00    +0.038 A 
ATOM      9  C   UNL     1      84.182  57.706  46.403  0.00  0.00    +0.127 A 
ATOM     10  C   UNL     1      84.743  58.527  45.418  0.00  0.00    +0.022 A 
ENDROOT
BRANCH   5  11
ATOM     11  C   UNL     1      85.824  52.229  46.358  0.00  0.00    -0.001 A 
ATOM     12  C   UNL     1      86.744  51.428  47.054  0.00  0.00    -0.051 A 
ATOM     13  C   UNL     1      86.922  50.088  46.702  0.00  0.00    -0.016 A 
ATOM     14  C   UNL     1      86.178  49.528  45.654  0.00  0.00    +0.158 A 
ATOM     15  C   UNL     1      85.250  50.315  44.961  0.00  0.00    +0.159 A 
ATOM     16  C   UNL     1      85.071  51.660  45.315  0.00  0.00    -0.010 A 
BRANCH  15  17
ATOM     17  O   UNL     1      84.507  49.753  43.924  0.00  0.00    -0.503 OA
ATOM     18  H   UNL     1      83.607  49.530  44.060  0.00  0.00    +0.000 HD
ENDBRANCH  15  17
BRANCH  14  19
ATOM     19  O   UNL     1      86.354  48.191  45.300  0.00  0.00    -0.503 OA
ATOM     20  H   UNL     1      86.393  47.947  44.397  0.00  0.00    +0.000 HD
ENDBRANCH  14  19
ENDBRANCH   5  11
BRANCH   1  21
ATOM     21  O   UNL     1      86.234  58.863  43.553  0.00  0.00    -0.507 OA
ATOM     22  H   UNL     1      85.818  58.939  42.717  0.00  0.00    +0.000 HD
ENDBRANCH   1  21
BRANCH   9  23
ATOM     23  O   UNL     1      83.271  58.278  47.294  0.00  0.00    -0.506 OA
ATOM     24  H   UNL     1      82.797  59.048  47.050  0.00  0.00    +0.000 HD
ENDBRANCH   9  23
BRANCH   6  25
ATOM     25  O   UNL     1      83.803  53.125  48.252  0.00  0.00    -0.387 OA
ATOM     26  H   UNL     1      84.586  52.640  48.555  0.00  0.00    +0.000 HD
ENDBRANCH   6  25
TORSDOF 6
ENDMDL
MODEL 2
REMARK VINA RESULT:    -7.462      5.904      9.214
REMARK INTER + INTRA:          -9.348
REMARK INTER:                  -8.979
REMARK INTRA:                  -0.369
REMARK UNBOUND:                -0.359
REMARK  Name = 
REMARK  6 active torsions:
REMARK  status: ('A' for Active; 'I' for Inactive)
REMARK    1  A    between atoms: O_1  and  C_2
REMARK    2  A    between atoms: C_6  and  C_7
REMARK    3  A    between atoms: C_10  and  O_14
REMARK    4  A    between atoms: C_11  and  O_13
REMARK    5  A    between atoms: C_15  and  O_21
REMARK    6  A    between atoms: C_18  and  O_20
REMARK                            x       y       z     vdW  Elec       q    Type
REMARK                         _______ _______ _______ _____ _____    ______ ____
ROOT
ATOM      1  C   UNL     1      87.535  44.989  42.814  0.00  0.00    +0.124 A 
ATOM      2  C   UNL     1      87.978  46.129  42.137  0.00  0.00    +0.022 A 
ATOM      3  C   UNL     1      87.425  47.379  42.426  0.00  0.00    +0.132 A 
ATOM      4  O   UNL     1      87.877  48.501  41.721  0.00  0.00    -0.481 OA
ATOM      5  C   UNL     1      87.238  49.772  41.822  0.00  0.00    +0.151 C 
ATOM      6  C   UNL     1      86.794  50.019  43.274  0.00  0.00    +0.100 C 
ATOM      7  C   UNL     1      85.872  48.878  43.741  0.00  0.00    +0.009 C 
ATOM      8  C   UNL     1      86.439  47.508  43.427  0.00  0.00    +0.038 A 
ATOM      9  C   UNL     1      85.964  46.345  44.079  0.00  0.00    +0.127 A 
ATOM     10  C   UNL     1      86.528  45.101  43.777  0.00  0.00    +0.022 A 
ENDROOT
BRANCH   5  11
ATOM     11  C   UNL     1      88.181  50.853  41.348  0.00  0.00    -0.001 A 
ATOM     12  C   UNL     1      89.403  51.065  42.007  0.00  0.00    -0.051 A 
ATOM     13  C   UNL     1      90.289  52.046  41.555  0.00  0.00    -0.016 A 
ATOM     14  C   UNL     1      89.969  52.824  40.434  0.00  0.00    +0.158 A 
ATOM     15  C   UNL     1      88.758  52.613  39.763  0.00  0.00    +0.159 A 
ATOM     16  C   UNL     1      87.869  51.629  40.218  0.00  0.00    -0.010 A 
BRANCH  15  17
ATOM     17  O   UNL     1      88.445  53.384  38.645  0.00  0.00    -0.503 OA
ATOM     18  H   UNL     1      88.418  52.988  37.796  0.00  0.00    +0.000 HD
ENDBRANCH  15  17
BRANCH  14  19
ATOM     19  O   UNL     1      90.850  53.804  39.980  0.00  0.00    -0.503 OA
ATOM     20  H   UNL     1      90.592  54.384  39.292  0.00  0.00    +0.000 HD
ENDBRANCH  14  19
ENDBRANCH   5  11
BRANCH   1  21
ATOM     21  O   UNL     1      88.081  43.738  42.534  0.00  0.00    -0.507 OA
ATOM     22  H   UNL     1      88.888  43.675  42.062  0.00  0.00    +0.000 HD
ENDBRANCH   1  21
BRANCH   9  23
ATOM     23  O   UNL     1      84.930  46.387  45.018  0.00  0.00    -0.506 OA
ATOM     24  H   UNL     1      84.480  47.192  45.185  0.00  0.00    +0.000 HD
ENDBRANCH   9  23
BRANCH   6  25
ATOM     25  O   UNL     1      86.114  51.245  43.360  0.00  0.00    -0.387 OA
ATOM     26  H   UNL     1      85.550  51.247  44.148  0.00  0.00    +0.000 HD
ENDBRANCH   6  25
TORSDOF 6
ENDMDL
MODEL 3
REMARK VINA RESULT:    -7.367      3.169      4.304
REMARK INTER + INTRA:          -9.233
REMARK INTER:                  -9.057
REMARK INTRA:                  -0.176
REMARK UNBOUND:                -0.359
REMARK  Name = 
REMARK  6 active torsions:
REMARK  status: ('A' for Active; 'I' for Inactive)
REMARK    1  A    between atoms: O_1  and  C_2
REMARK    2  A    between atoms: C_6  and  C_7
REMARK    3  A    between atoms: C_10  and  O_14
REMARK    4  A    between atoms: C_11  and  O_13
REMARK    5  A    between atoms: C_15  and  O_21
REMARK    6  A    between atoms: C_18  and  O_20
REMARK                            x       y       z     vdW  Elec       q    Type
REMARK                         _______ _______ _______ _____ _____    ______ ____
ROOT
ATOM      1  C   UNL     1      83.812  56.424  46.974  0.00  0.00    +0.124 A 
ATOM      2  C   UNL     1      84.630  56.052  45.904  0.00  0.00    +0.022 A 
ATOM      3  C   UNL     1      85.063  54.730  45.774  0.00  0.00    +0.132 A 
ATOM      4  O   UNL     1      85.895  54.390  44.702  0.00  0.00    -0.481 OA
ATOM      5  C   UNL     1      86.529  53.115  44.603  0.00  0.00    +0.151 C 
ATOM      6  C   UNL     1      85.569  52.016  45.089  0.00  0.00    +0.100 C 
ATOM      7  C   UNL     1      85.114  52.319  46.529  0.00  0.00    +0.009 C 
ATOM      8  C   UNL     1      84.652  53.751  46.704  0.00  0.00    +0.038 A 
ATOM      9  C   UNL     1      83.859  54.142  47.809  0.00  0.00    +0.127 A 
ATOM     10  C   UNL     1      83.434  55.471  47.923  0.00  0.00    +0.022 A 
ENDROOT
BRANCH   5  11
ATOM     11  C   UNL     1      86.959  52.871  43.175  0.00  0.00    -0.001 A 
ATOM     12  C   UNL     1      88.082  52.074  42.901  0.00  0.00    -0.051 A 
ATOM     13  C   UNL     1      88.467  51.825  41.581  0.00  0.00    -0.016 A 
ATOM     14  C   UNL     1      87.729  52.363  40.517  0.00  0.00    +0.158 A 
ATOM     15  C   UNL     1      86.600  53.149  40.780  0.00  0.00    +0.159 A 
ATOM     16  C   UNL     1      86.215  53.399  42.105  0.00  0.00    -0.010 A 
BRANCH  15  17
ATOM     17  O   UNL     1      85.865  53.677  39.720  0.00  0.00    -0.503 OA
ATOM     18  H   UNL     1      84.933  53.754  39.789  0.00  0.00    +0.000 HD
ENDBRANCH  15  17
BRANCH  14  19
ATOM     19  O   UNL     1      88.109  52.117  39.199  0.00  0.00    -0.503 OA
ATOM     20  H   UNL     1      88.893  51.637  39.020  0.00  0.00    +0.000 HD
ENDBRANCH  14  19
ENDBRANCH   5  11
BRANCH   1  21
ATOM     21  O   UNL     1      83.374  57.740  47.111  0.00  0.00    -0.507 OA
ATOM     22  H   UNL     1      83.852  58.436  46.705  0.00  0.00    +0.000 HD
ENDBRANCH   1  21
BRANCH   9  23
ATOM     23  O   UNL     1      83.486  53.245  48.813  0.00  0.00    -0.506 OA
ATOM     24  H   UNL     1      82.969  53.540  49.537  0.00  0.00    +0.000 HD
ENDBRANCH   9  23
BRANCH   6  25
ATOM     25  O   UNL     1      86.214  50.769  45.047  0.00  0.00    -0.387 OA
ATOM     26  H   UNL     1      86.490  50.580  44.137  0.00  0.00    +0.000 HD
ENDBRANCH   6  25
TORSDOF 6
ENDMDL
MODEL 4
REMARK VINA RESULT:    -7.309      3.251      7.024
REMARK INTER + INTRA:          -9.163
REMARK INTER:                  -9.206
REMARK INTRA:                   0.043
REMARK UNBOUND:                -0.359
REMARK  Name = 
REMARK  6 active torsions:
REMARK  status: ('A' for Active; 'I' for Inactive)
REMARK    1  A    between atoms: O_1  and  C_2
REMARK    2  A    between atoms: C_6  and  C_7
REMARK    3  A    between atoms: C_10  and  O_14
REMARK    4  A    between atoms: C_11  and  O_13
REMARK    5  A    between atoms: C_15  and  O_21
REMARK    6  A    between atoms: C_18  and  O_20
REMARK                            x       y       z     vdW  Elec       q    Type
REMARK                         _______ _______ _______ _____ _____    ______ ____
ROOT
ATOM      1  C   UNL     1      88.385  51.561  40.435  0.00  0.00    +0.124 A 
ATOM      2  C   UNL     1      87.556  52.552  40.970  0.00  0.00    +0.022 A 
ATOM      3  C   UNL     1      87.251  52.555  42.333  0.00  0.00    +0.132 A 
ATOM      4  O   UNL     1      86.405  53.549  42.838  0.00  0.00    -0.481 OA
ATOM      5  C   UNL     1      85.898  53.513  44.171  0.00  0.00    +0.151 C 
ATOM      6  C   UNL     1      86.986  53.000  45.129  0.00  0.00    +0.100 C 
ATOM      7  C   UNL     1      87.479  51.616  44.668  0.00  0.00    +0.009 C 
ATOM      8  C   UNL     1      87.803  51.578  43.189  0.00  0.00    +0.038 A 
ATOM      9  C   UNL     1      88.607  50.553  42.635  0.00  0.00    +0.127 A 
ATOM     10  C   UNL     1      88.902  50.565  41.267  0.00  0.00    +0.022 A 
ENDROOT
BRANCH   5  11
ATOM     11  C   UNL     1      85.425  54.891  44.571  0.00  0.00    -0.001 A 
ATOM     12  C   UNL     1      84.649  55.065  45.730  0.00  0.00    -0.051 A 
ATOM     13  C   UNL     1      84.232  56.341  46.116  0.00  0.00    -0.016 A 
ATOM     14  C   UNL     1      84.591  57.462  45.355  0.00  0.00    +0.158 A 
ATOM     15  C   UNL     1      85.373  57.301  44.204  0.00  0.00    +0.159 A 
ATOM     16  C   UNL     1      85.791  56.019  43.817  0.00  0.00    -0.010 A 
BRANCH  15  17
ATOM     17  O   UNL     1      85.734  58.418  43.453  0.00  0.00    -0.503 OA
ATOM     18  H   UNL     1      85.608  59.278  43.803  0.00  0.00    +0.000 HD
ENDBRANCH  15  17
BRANCH  14  19
ATOM     19  O   UNL     1      84.177  58.736  45.737  0.00  0.00    -0.503 OA
ATOM     20  H   UNL     1      83.476  58.837  46.350  0.00  0.00    +0.000 HD
ENDBRANCH  14  19
ENDBRANCH   5  11
BRANCH   1  21
ATOM     21  O   UNL     1      88.695  51.551  39.076  0.00  0.00    -0.507 OA
ATOM     22  H   UNL     1      89.321  50.939  38.744  0.00  0.00    +0.000 HD
ENDBRANCH   1  21
BRANCH   9  23
ATOM     23  O   UNL     1      89.116  49.506  43.407  0.00  0.00    -0.506 OA
ATOM     24  H   UNL     1      88.535  48.958  43.895  0.00  0.00    +0.000 HD
ENDBRANCH   9  23
BRANCH   6  25
ATOM     25  O   UNL     1      86.467  52.910  46.432  0.00  0.00    -0.387 OA
ATOM     26  H   UNL     1      86.912  52.192  46.908  0.00  0.00    +0.000 HD
ENDBRANCH   6  25
TORSDOF 6
ENDMDL
MODEL 5
REMARK VINA RESULT:    -7.189      3.438      6.490
REMARK INTER + INTRA:          -9.019
REMARK INTER:                  -8.741
REMARK INTRA:                  -0.278
REMARK UNBOUND:                -0.359
REMARK  Name = 
REMARK  6 active torsions:
REMARK  status: ('A' for Active; 'I' for Inactive)
REMARK    1  A    between atoms: O_1  and  C_2
REMARK    2  A    between atoms: C_6  and  C_7
REMARK    3  A    between atoms: C_10  and  O_14
REMARK    4  A    between atoms: C_11  and  O_13
REMARK    5  A    between atoms: C_15  and  O_21
REMARK    6  A    between atoms: C_18  and  O_20
REMARK                            x       y       z     vdW  Elec       q    Type
REMARK                         _______ _______ _______ _____ _____    ______ ____
ROOT
ATOM      1  C   UNL     1      87.950  52.319  40.349  0.00  0.00    +0.124 A 
ATOM      2  C   UNL     1      87.100  52.841  41.329  0.00  0.00    +0.022 A 
ATOM      3  C   UNL     1      87.101  52.309  42.620  0.00  0.00    +0.132 A 
ATOM      4  O   UNL     1      86.228  52.841  43.575  0.00  0.00    -0.481 OA
ATOM      5  C   UNL     1      86.035  52.236  44.853  0.00  0.00    +0.151 C 
ATOM      6  C   UNL     1      87.376  51.703  45.385  0.00  0.00    +0.100 C 
ATOM      7  C   UNL     1      87.987  50.717  44.371  0.00  0.00    +0.009 C 
ATOM      8  C   UNL     1      87.985  51.261  42.958  0.00  0.00    +0.038 A 
ATOM      9  C   UNL     1      88.812  50.708  41.952  0.00  0.00    +0.127 A 
ATOM     10  C   UNL     1      88.797  51.254  40.663  0.00  0.00    +0.022 A 
ENDROOT
BRANCH   5  11
ATOM     11  C   UNL     1      85.431  53.242  45.805  0.00  0.00    -0.001 A 
ATOM     12  C   UNL     1      84.437  52.846  46.716  0.00  0.00    -0.051 A 
ATOM     13  C   UNL     1      83.896  53.768  47.615  0.00  0.00    -0.016 A 
ATOM     14  C   UNL     1      84.346  55.095  47.622  0.00  0.00    +0.158 A 
ATOM     15  C   UNL     1      85.344  55.497  46.726  0.00  0.00    +0.159 A 
ATOM     16  C   UNL     1      85.887  54.571  45.823  0.00  0.00    -0.010 A 
BRANCH  15  17
ATOM     17  O   UNL     1      85.793  56.816  46.739  0.00  0.00    -0.503 OA
ATOM     18  H   UNL     1      85.279  57.482  47.152  0.00  0.00    +0.000 HD
ENDBRANCH  15  17
BRANCH  14  19
ATOM     19  O   UNL     1      83.808  56.018  48.518  0.00  0.00    -0.503 OA
ATOM     20  H   UNL     1      84.337  56.718  48.843  0.00  0.00    +0.000 HD
ENDBRANCH  14  19
ENDBRANCH   5  11
BRANCH   1  21
ATOM     21  O   UNL     1      87.956  52.845  39.059  0.00  0.00    -0.507 OA
ATOM     22  H   UNL     1      87.291  52.594  38.449  0.00  0.00    +0.000 HD
ENDBRANCH   1  21
BRANCH   9  23
ATOM     23  O   UNL     1      89.648  49.615  42.193  0.00  0.00    -0.506 OA
ATOM     24  H   UNL     1      90.562  49.749  42.348  0.00  0.00    +0.000 HD
ENDBRANCH   9  23
BRANCH   6  25
ATOM     25  O   UNL     1      87.174  51.056  46.615  0.00  0.00    -0.387 OA
ATOM     26  H   UNL     1      86.695  50.226  46.469  0.00  0.00    +0.000 HD
ENDBRANCH   6  25
TORSDOF 6
ENDMDL
MODEL 6
REMARK VINA RESULT:    -7.112      4.360      5.965
REMARK INTER + INTRA:          -8.925
REMARK INTER:                  -8.580
REMARK INTRA:                  -0.345
REMARK UNBOUND:                -0.359
REMARK  Name = 
REMARK  6 active torsions:
REMARK  status: ('A' for Active; 'I' for Inactive)
REMARK    1  A    between atoms: O_1  and  C_2
REMARK    2  A    between atoms: C_6  and  C_7
REMARK    3  A    between atoms: C_10  and  O_14
REMARK    4  A    between atoms: C_11  and  O_13
REMARK    5  A    between atoms: C_15  and  O_21
REMARK    6  A    between atoms: C_18  and  O_20
REMARK                            x       y       z     vdW  Elec       q    Type
REMARK                         _______ _______ _______ _____ _____    ______ ____
ROOT
ATOM      1  C   UNL     1      82.872  54.013  41.118  0.00  0.00    +0.124 A 
ATOM      2  C   UNL     1      82.314  52.779  41.467  0.00  0.00    +0.022 A 
ATOM      3  C   UNL     1      82.989  51.920  42.337  0.00  0.00    +0.132 A 
ATOM      4  O   UNL     1      82.414  50.685  42.655  0.00  0.00    -0.481 OA
ATOM      5  C   UNL     1      83.120  49.679  43.380  0.00  0.00    +0.151 C 
ATOM      6  C   UNL     1      83.972  50.332  44.482  0.00  0.00    +0.100 C 
ATOM      7  C   UNL     1      84.929  51.366  43.859  0.00  0.00    +0.009 C 
ATOM      8  C   UNL     1      84.226  52.303  42.899  0.00  0.00    +0.038 A 
ATOM      9  C   UNL     1      84.807  53.534  42.509  0.00  0.00    +0.127 A 
ATOM     10  C   UNL     1      84.116  54.382  41.636  0.00  0.00    +0.022 A 
ENDROOT
BRANCH   5  11
ATOM     11  C   UNL     1      82.138  48.690  43.964  0.00  0.00    -0.001 A 
ATOM     12  C   UNL     1      82.336  47.311  43.791  0.00  0.00    -0.051 A 
ATOM     13  C   UNL     1      81.444  46.393  44.352  0.00  0.00    -0.016 A 
ATOM     14  C   UNL     1      80.346  46.843  45.100  0.00  0.00    +0.158 A 
ATOM     15  C   UNL     1      80.146  48.216  45.287  0.00  0.00    +0.159 A 
ATOM     16  C   UNL     1      81.042  49.136  44.723  0.00  0.00    -0.010 A 
BRANCH  15  17
ATOM     17  O   UNL     1      79.058  48.659  46.036  0.00  0.00    -0.503 OA
ATOM     18  H   UNL     1      79.121  48.709  46.970  0.00  0.00    +0.000 HD
ENDBRANCH  15  17
BRANCH  14  19
ATOM     19  O   UNL     1      79.454  45.930  45.661  0.00  0.00    -0.503 OA
ATOM     20  H   UNL     1      79.683  45.472  46.445  0.00  0.00    +0.000 HD
ENDBRANCH  14  19
ENDBRANCH   5  11
BRANCH   1  21
ATOM     21  O   UNL     1      82.205  54.876  40.252  0.00  0.00    -0.507 OA
ATOM     22  H   UNL     1      82.615  55.672  39.977  0.00  0.00    +0.000 HD
ENDBRANCH   1  21
BRANCH   9  23
ATOM     23  O   UNL     1      86.067  53.938  42.958  0.00  0.00    -0.506 OA
ATOM     24  H   UNL     1      86.840  53.562  42.587  0.00  0.00    +0.000 HD
ENDBRANCH   9  23
BRANCH   6  25
ATOM     25  O   UNL     1      84.711  49.346  45.156  0.00  0.00    -0.387 OA
ATOM     26  H   UNL     1      84.506  49.381  46.103  0.00  0.00    +0.000 HD
ENDBRANCH   6  25
TORSDOF 6
ENDMDL
MODEL 7
REMARK VINA RESULT:    -7.090      5.986      9.817
REMARK INTER + INTRA:          -8.899
REMARK INTER:                  -9.034
REMARK INTRA:                   0.135
REMARK UNBOUND:                -0.359
REMARK  Name = 
REMARK  6 active torsions:
REMARK  status: ('A' for Active; 'I' for Inactive)
REMARK    1  A    between atoms: O_1  and  C_2
REMARK    2  A    between atoms: C_6  and  C_7
REMARK    3  A    between atoms: C_10  and  O_14
REMARK    4  A    between atoms: C_11  and  O_13
REMARK    5  A    between atoms: C_15  and  O_21
REMARK    6  A    between atoms: C_18  and  O_20
REMARK                            x       y       z     vdW  Elec       q    Type
REMARK                         _______ _______ _______ _____ _____    ______ ____
ROOT
ATOM      1  C   UNL     1      84.198  45.654  43.959  0.00  0.00    +0.124 A 
ATOM      2  C   UNL     1      84.827  46.890  43.788  0.00  0.00    +0.022 A 
ATOM      3  C   UNL     1      86.135  46.955  43.299  0.00  0.00    +0.132 A 
ATOM      4  O   UNL     1      86.744  48.206  43.154  0.00  0.00    -0.481 OA
ATOM      5  C   UNL     1      88.130  48.347  42.843  0.00  0.00    +0.151 C 
ATOM      6  C   UNL     1      88.549  47.268  41.829  0.00  0.00    +0.100 C 
ATOM      7  C   UNL     1      88.228  45.870  42.390  0.00  0.00    +0.009 C 
ATOM      8  C   UNL     1      86.821  45.774  42.942  0.00  0.00    +0.038 A 
ATOM      9  C   UNL     1      86.195  44.523  43.157  0.00  0.00    +0.127 A 
ATOM     10  C   UNL     1      84.885  44.477  43.648  0.00  0.00    +0.022 A 
ENDROOT
BRANCH   5  11
ATOM     11  C   UNL     1      88.390  49.734  42.302  0.00  0.00    -0.001 A 
ATOM     12  C   UNL     1      88.298  50.851  43.148  0.00  0.00    -0.051 A 
ATOM     13  C   UNL     1      88.564  52.132  42.657  0.00  0.00    -0.016 A 
ATOM     14  C   UNL     1      88.933  52.312  41.317  0.00  0.00    +0.158 A 
ATOM     15  C   UNL     1      89.039  51.203  40.469  0.00  0.00    +0.159 A 
ATOM     16  C   UNL     1      88.772  49.918  40.962  0.00  0.00    -0.010 A 
BRANCH  15  17
ATOM     17  O   UNL     1      89.413  51.385  39.139  0.00  0.00    -0.503 OA
ATOM     18  H   UNL     1      88.819  51.787  38.536  0.00  0.00    +0.000 HD
ENDBRANCH  15  17
BRANCH  14  19
ATOM     19  O   UNL     1      89.199  53.589  40.824  0.00  0.00    -0.503 OA
ATOM     20  H   UNL     1      88.517  54.086  40.419  0.00  0.00    +0.000 HD
ENDBRANCH  14  19
ENDBRANCH   5  11
BRANCH   1  21
ATOM     21  O   UNL     1      82.894  45.580  44.444  0.00  0.00    -0.507 OA
ATOM     22  H   UNL     1      82.209  46.053  44.016  0.00  0.00    +0.000 HD
ENDBRANCH   1  21
BRANCH   9  23
ATOM     23  O   UNL     1      86.845  43.312  42.907  0.00  0.00    -0.506 OA
ATOM     24  H   UNL     1      86.767  42.903  42.068  0.00  0.00    +0.000 HD
ENDBRANCH   9  23
BRANCH   6  25
ATOM     25  O   UNL     1      89.925  47.372  41.569  0.00  0.00    -0.387 OA
ATOM     26  H   UNL     1      90.229  46.571  41.114  0.00  0.00    +0.000 HD
ENDBRANCH   6  25
TORSDOF 6
ENDMDL
MODEL 8
REMARK VINA RESULT:    -7.007      4.247      8.925
REMARK INTER + INTRA:          -8.799
REMARK INTER:                  -8.440
REMARK INTRA:                  -0.359
REMARK UNBOUND:                -0.359
REMARK  Name = 
REMARK  6 active torsions:
REMARK  status: ('A' for Active; 'I' for Inactive)
REMARK    1  A    between atoms: O_1  and  C_2
REMARK    2  A    between atoms: C_6  and  C_7
REMARK    3  A    between atoms: C_10  and  O_14
REMARK    4  A    between atoms: C_11  and  O_13
REMARK    5  A    between atoms: C_15  and  O_21
REMARK    6  A    between atoms: C_18  and  O_20
REMARK                            x       y       z     vdW  Elec       q    Type
REMARK                         _______ _______ _______ _____ _____    ______ ____
ROOT
ATOM      1  C   UNL     1      85.500  46.047  44.349  0.00  0.00    +0.124 A 
ATOM      2  C   UNL     1      85.427  47.443  44.305  0.00  0.00    +0.022 A 
ATOM      3  C   UNL     1      86.285  48.168  43.475  0.00  0.00    +0.132 A 
ATOM      4  O   UNL     1      86.200  49.565  43.464  0.00  0.00    -0.481 OA
ATOM      5  C   UNL     1      87.158  50.381  42.792  0.00  0.00    +0.151 C 
ATOM      6  C   UNL     1      87.570  49.718  41.467  0.00  0.00    +0.100 C 
ATOM      7  C   UNL     1      88.115  48.303  41.737  0.00  0.00    +0.009 C 
ATOM      8  C   UNL     1      87.212  47.497  42.648  0.00  0.00    +0.038 A 
ATOM      9  C   UNL     1      87.311  46.088  42.728  0.00  0.00    +0.127 A 
ATOM     10  C   UNL     1      86.443  45.377  43.566  0.00  0.00    +0.022 A 
ENDROOT
BRANCH   5  11
ATOM     11  C   UNL     1      86.577  51.756  42.556  0.00  0.00    -0.001 A 
ATOM     12  C   UNL     1      87.140  52.879  43.184  0.00  0.00    -0.051 A 
ATOM     13  C   UNL     1      86.621  54.155  42.947  0.00  0.00    -0.016 A 
ATOM     14  C   UNL     1      85.537  54.326  42.075  0.00  0.00    +0.158 A 
ATOM     15  C   UNL     1      84.976  53.213  41.436  0.00  0.00    +0.159 A 
ATOM     16  C   UNL     1      85.497  51.933  41.673  0.00  0.00    -0.010 A 
BRANCH  15  17
ATOM     17  O   UNL     1      83.903  53.387  40.563  0.00  0.00    -0.503 OA
ATOM     18  H   UNL     1      84.002  53.920  39.799  0.00  0.00    +0.000 HD
ENDBRANCH  15  17
BRANCH  14  19
ATOM     19  O   UNL     1      85.017  55.597  41.836  0.00  0.00    -0.503 OA
ATOM     20  H   UNL     1      84.297  55.911  42.346  0.00  0.00    +0.000 HD
ENDBRANCH  14  19
ENDBRANCH   5  11
BRANCH   1  21
ATOM     21  O   UNL     1      84.647  45.316  45.173  0.00  0.00    -0.507 OA
ATOM     22  H   UNL     1      84.521  45.576  46.064  0.00  0.00    +0.000 HD
ENDBRANCH   1  21
BRANCH   9  23
ATOM     23  O   UNL     1      88.262  45.365  42.003  0.00  0.00    -0.506 OA
ATOM     24  H   UNL     1      89.071  45.121  42.406  0.00  0.00    +0.000 HD
ENDBRANCH   9  23
BRANCH   6  25
ATOM     25  O   UNL     1      88.556  50.494  40.835  0.00  0.00    -0.387 OA
ATOM     26  H   UNL     1      88.794  50.087  39.988  0.00  0.00    +0.000 HD
ENDBRANCH   6  25
TORSDOF 6
ENDMDL
MODEL 9
REMARK VINA RESULT:    -6.926      2.394      3.670
REMARK INTER + INTRA:          -8.702
REMARK INTER:                  -8.608
REMARK INTRA:                  -0.094
REMARK UNBOUND:                -0.359
REMARK  Name = 
REMARK  6 active torsions:
REMARK  status: ('A' for Active; 'I' for Inactive)
REMARK    1  A    between atoms: O_1  and  C_2
REMARK    2  A    between atoms: C_6  and  C_7
REMARK    3  A    between atoms: C_10  and  O_14
REMARK    4  A    between atoms: C_11  and  O_13
REMARK    5  A    between atoms: C_15  and  O_21
REMARK    6  A    between atoms: C_18  and  O_20
REMARK                            x       y       z     vdW  Elec       q    Type
REMARK                         _______ _______ _______ _____ _____    ______ ____
ROOT
ATOM      1  C   UNL     1      83.914  55.330  47.877  0.00  0.00    +0.124 A 
ATOM      2  C   UNL     1      84.429  54.170  47.290  0.00  0.00    +0.022 A 
ATOM      3  C   UNL     1      84.902  54.195  45.976  0.00  0.00    +0.132 A 
ATOM      4  O   UNL     1      85.397  53.016  45.409  0.00  0.00    -0.481 OA
ATOM      5  C   UNL     1      85.721  52.913  44.024  0.00  0.00    +0.151 C 
ATOM      6  C   UNL     1      86.374  54.220  43.543  0.00  0.00    +0.100 C 
ATOM      7  C   UNL     1      85.435  55.408  43.824  0.00  0.00    +0.009 C 
ATOM      8  C   UNL     1      84.894  55.399  45.239  0.00  0.00    +0.038 A 
ATOM      9  C   UNL     1      84.332  56.559  45.823  0.00  0.00    +0.127 A 
ATOM     10  C   UNL     1      83.863  56.516  47.141  0.00  0.00    +0.022 A 
ENDROOT
BRANCH   5  11
ATOM     11  C   UNL     1      86.638  51.732  43.803  0.00  0.00    -0.001 A 
ATOM     12  C   UNL     1      87.387  51.208  44.869  0.00  0.00    -0.051 A 
ATOM     13  C   UNL     1      88.215  50.100  44.674  0.00  0.00    -0.016 A 
ATOM     14  C   UNL     1      88.300  49.496  43.411  0.00  0.00    +0.158 A 
ATOM     15  C   UNL     1      87.549  50.004  42.344  0.00  0.00    +0.159 A 
ATOM     16  C   UNL     1      86.718  51.117  42.541  0.00  0.00    -0.010 A 
BRANCH  15  17
ATOM     17  O   UNL     1      87.631  49.398  41.092  0.00  0.00    -0.503 OA
ATOM     18  H   UNL     1      87.085  48.663  40.891  0.00  0.00    +0.000 HD
ENDBRANCH  15  17
BRANCH  14  19
ATOM     19  O   UNL     1      89.125  48.391  43.213  0.00  0.00    -0.503 OA
ATOM     20  H   UNL     1      89.339  48.116  42.344  0.00  0.00    +0.000 HD
ENDBRANCH  14  19
ENDBRANCH   5  11
BRANCH   1  21
ATOM     21  O   UNL     1      83.441  55.314  49.188  0.00  0.00    -0.507 OA
ATOM     22  H   UNL     1      83.953  54.916  49.864  0.00  0.00    +0.000 HD
ENDBRANCH   1  21
BRANCH   9  23
ATOM     23  O   UNL     1      84.213  57.763  45.123  0.00  0.00    -0.506 OA
ATOM     24  H   UNL     1      83.951  57.758  44.224  0.00  0.00    +0.000 HD
ENDBRANCH   9  23
BRANCH   6  25
ATOM     25  O   UNL     1      86.639  54.140  42.166  0.00  0.00    -0.387 OA
ATOM     26  H   UNL     1      87.480  54.583  41.973  0.00  0.00    +0.000 HD
ENDBRANCH   6  25
TORSDOF 6
ENDMDL
