MODEL 1
REMARK VINA RESULT:   -10.296      0.000      0.000
REMARK INTER + INTRA:         -15.174
REMARK INTER:                 -13.448
REMARK INTRA:                  -1.725
REMARK UNBOUND:                -0.664
REMARK  Name = 
REMARK  13 active torsions:
REMARK  status: ('A' for Active; 'I' for Inactive)
REMARK    1  A    between atoms: C_2  and  C_3
REMARK    2  A    between atoms: C_3  and  C_4
REMARK    3  A    between atoms: C_3  and  C_37
REMARK    4  A    between atoms: C_3  and  C_38
REMARK    5  A    between atoms: C_10  and  C_13
REMARK    6  A    between atoms: C_14  and  C_15
REMARK    7  A    between atoms: C_15  and  C_16
REMARK    8  A    between atoms: C_19  and  C_36
REMARK    9  A    between atoms: C_21  and  C_22
REMARK   10  A    between atoms: C_28  and  C_31
REMARK   11  A    between atoms: C_31  and  C_32
REMARK   12  A    between atoms: C_31  and  C_34
REMARK   13  A    between atoms: C_31  and  C_35
REMARK                            x       y       z     vdW  Elec       q    Type
REMARK                         _______ _______ _______ _____ _____    ______ ____
ROOT
ATOM      1  C   UNL     1      84.644  51.044  44.303  0.00  0.00    -0.003 C 
ATOM      2  C   UNL     1      83.317  50.767  45.052  0.00  0.00    -0.055 C 
ATOM      3  C   UNL     1      84.368  51.930  43.063  0.00  0.00    -0.040 C 
ATOM      4  C   UNL     1      85.653  52.244  42.279  0.00  0.00    -0.031 C 
ATOM      5  C   UNL     1      86.850  52.562  43.153  0.00  0.00    -0.076 C 
ATOM      6  C   UNL     1      86.879  52.272  44.471  0.00  0.00    -0.077 C 
ATOM      7  C   UNL     1      85.666  51.785  45.237  0.00  0.00    +0.011 C 
ATOM      8  C   UNL     1      88.088  53.120  42.506  0.00  0.00    -0.044 C 
ENDROOT
BRANCH   7   9
ATOM      9  C   UNL     1      85.067  52.936  46.043  0.00  0.00    -0.039 A 
ATOM     10  C   UNL     1      84.443  52.664  47.290  0.00  0.00    -0.056 A 
ATOM     11  C   UNL     1      83.863  53.695  48.047  0.00  0.00    -0.038 A 
ATOM     12  C   UNL     1      83.921  54.991  47.542  0.00  0.00    +0.047 A 
ATOM     13  C   UNL     1      84.520  55.273  46.343  0.00  0.00    +0.004 A 
ATOM     14  C   UNL     1      85.098  54.269  45.565  0.00  0.00    -0.049 A 
ATOM     15  C   UNL     1      84.399  56.641  46.134  0.00  0.00    -0.013 A 
ATOM     16  C   UNL     1      83.696  57.111  47.249  0.00  0.00    +0.007 A 
ATOM     17  N   UNL     1      83.417  56.101  48.102  0.00  0.00    -0.360 N 
ATOM     18  H   UNL     1      82.940  56.166  48.961  0.00  0.00    +0.000 HD
BRANCH  15  19
ATOM     19  C   UNL     1      84.848  57.441  44.913  0.00  0.00    +0.010 C 
ATOM     20  C   UNL     1      84.659  58.941  45.212  0.00  0.00    -0.052 C 
ATOM     21  C   UNL     1      86.338  57.194  44.590  0.00  0.00    -0.052 C 
BRANCH  19  22
ATOM     22  C   UNL     1      84.019  57.058  43.695  0.00  0.00    -0.081 C 
ATOM     23  C   UNL     1      84.472  56.229  42.747  0.00  0.00    -0.102 C 
ENDBRANCH  19  22
ENDBRANCH  15  19
ENDBRANCH   7   9
BRANCH   1  25
ATOM     24  C   UNL     1      84.809  48.522  44.325  0.00  0.00    -0.058 C 
ATOM     25  C   UNL     1      85.248  49.706  43.871  0.00  0.00    -0.077 C 
BRANCH  24  32
ATOM     26  C   UNL     1      88.484  45.634  42.479  0.00  0.00    -0.013 A 
ATOM     27  C   UNL     1      88.438  44.245  42.312  0.00  0.00    +0.007 A 
ATOM     28  N   UNL     1      87.239  43.754  42.695  0.00  0.00    -0.360 N 
ATOM     29  C   UNL     1      86.520  44.806  43.111  0.00  0.00    +0.047 A 
ATOM     30  C   UNL     1      87.237  45.968  43.004  0.00  0.00    +0.004 A 
ATOM     31  C   UNL     1      86.696  47.195  43.395  0.00  0.00    -0.045 A 
ATOM     32  C   UNL     1      85.375  47.221  43.895  0.00  0.00    -0.025 A 
ATOM     33  C   UNL     1      84.649  46.005  44.013  0.00  0.00    -0.053 A 
ATOM     34  C   UNL     1      85.222  44.787  43.615  0.00  0.00    -0.037 A 
ATOM     35  H   UNL     1      86.951  42.812  42.671  0.00  0.00    +0.000 HD
BRANCH  26  36
ATOM     36  C   UNL     1      89.668  46.565  42.221  0.00  0.00    +0.010 C 
ATOM     37  C   UNL     1      90.456  46.727  43.540  0.00  0.00    -0.052 C 
ATOM     38  C   UNL     1      90.608  45.975  41.146  0.00  0.00    -0.052 C 
BRANCH  36  40
ATOM     39  C   UNL     1      89.674  49.084  42.099  0.00  0.00    -0.102 C 
ATOM     40  C   UNL     1      89.147  47.909  41.727  0.00  0.00    -0.081 C 
ENDBRANCH  36  40
ENDBRANCH  26  36
ENDBRANCH  24  32
ENDBRANCH   1  25
TORSDOF 7
ENDMDL
MODEL 2
REMARK VINA RESULT:   -10.195      1.480      3.944
REMARK INTER + INTRA:         -15.031
REMARK INTER:                 -13.893
REMARK INTRA:                  -1.138
REMARK UNBOUND:                -0.664
REMARK  Name = 
REMARK  13 active torsions:
REMARK  status: ('A' for Active; 'I' for Inactive)
REMARK    1  A    between atoms: C_2  and  C_3
REMARK    2  A    between atoms: C_3  and  C_4
REMARK    3  A    between atoms: C_3  and  C_37
REMARK    4  A    between atoms: C_3  and  C_38
REMARK    5  A    between atoms: C_10  and  C_13
REMARK    6  A    between atoms: C_14  and  C_15
REMARK    7  A    between atoms: C_15  and  C_16
REMARK    8  A    between atoms: C_19  and  C_36
REMARK    9  A    between atoms: C_21  and  C_22
REMARK   10  A    between atoms: C_28  and  C_31
REMARK   11  A    between atoms: C_31  and  C_32
REMARK   12  A    between atoms: C_31  and  C_34
REMARK   13  A    between atoms: C_31  and  C_35
REMARK                            x       y       z     vdW  Elec       q    Type
REMARK                         _______ _______ _______ _____ _____    ______ ____
ROOT
ATOM      1  C   UNL     1      86.031  51.734  42.676  0.00  0.00    -0.003 C 
ATOM      2  C   UNL     1      84.643  51.718  43.362  0.00  0.00    -0.055 C 
ATOM      3  C   UNL     1      85.929  52.465  41.313  0.00  0.00    -0.040 C 
ATOM      4  C   UNL     1      87.282  52.517  40.582  0.00  0.00    -0.031 C 
ATOM      5  C   UNL     1      88.463  52.815  41.486  0.00  0.00    -0.076 C 
ATOM      6  C   UNL     1      88.388  52.711  42.829  0.00  0.00    -0.077 C 
ATOM      7  C   UNL     1      87.086  52.477  43.570  0.00  0.00    +0.011 C 
ATOM      8  C   UNL     1      89.791  53.132  40.856  0.00  0.00    -0.044 C 
ENDROOT
BRANCH   7   9
ATOM      9  C   UNL     1      86.592  53.790  44.173  0.00  0.00    -0.039 A 
ATOM     10  C   UNL     1      86.807  55.006  43.471  0.00  0.00    -0.056 A 
ATOM     11  C   UNL     1      86.385  56.234  44.007  0.00  0.00    -0.038 A 
ATOM     12  C   UNL     1      85.747  56.224  45.244  0.00  0.00    +0.047 A 
ATOM     13  C   UNL     1      85.529  55.062  45.935  0.00  0.00    +0.004 A 
ATOM     14  C   UNL     1      85.942  53.828  45.431  0.00  0.00    -0.049 A 
ATOM     15  C   UNL     1      84.883  55.402  47.117  0.00  0.00    -0.013 A 
ATOM     16  C   UNL     1      84.765  56.795  47.072  0.00  0.00    +0.007 A 
ATOM     17  N   UNL     1      85.286  57.284  45.925  0.00  0.00    -0.360 N 
ATOM     18  H   UNL     1      85.322  58.228  45.646  0.00  0.00    +0.000 HD
BRANCH  15  19
ATOM     19  C   UNL     1      84.479  54.471  48.259  0.00  0.00    +0.010 C 
ATOM     20  C   UNL     1      83.815  55.313  49.366  0.00  0.00    -0.052 C 
ATOM     21  C   UNL     1      83.469  53.402  47.789  0.00  0.00    -0.052 C 
BRANCH  19  22
ATOM     22  C   UNL     1      85.703  53.764  48.825  0.00  0.00    -0.081 C 
ATOM     23  C   UNL     1      85.819  52.431  48.846  0.00  0.00    -0.102 C 
ENDBRANCH  19  22
ENDBRANCH  15  19
ENDBRANCH   7   9
BRANCH   1  25
ATOM     24  C   UNL     1      87.494  49.731  43.157  0.00  0.00    -0.058 C 
ATOM     25  C   UNL     1      86.488  50.290  42.466  0.00  0.00    -0.077 C 
BRANCH  24  32
ATOM     26  C   UNL     1      86.666  44.778  42.973  0.00  0.00    -0.013 A 
ATOM     27  C   UNL     1      87.613  43.793  42.671  0.00  0.00    +0.007 A 
ATOM     28  N   UNL     1      88.827  44.344  42.450  0.00  0.00    -0.360 N 
ATOM     29  C   UNL     1      88.669  45.667  42.599  0.00  0.00    +0.047 A 
ATOM     30  C   UNL     1      87.372  45.977  42.911  0.00  0.00    +0.004 A 
ATOM     31  C   UNL     1      86.966  47.302  43.098  0.00  0.00    -0.045 A 
ATOM     32  C   UNL     1      87.930  48.326  42.974  0.00  0.00    -0.025 A 
ATOM     33  C   UNL     1      89.269  47.989  42.636  0.00  0.00    -0.053 A 
ATOM     34  C   UNL     1      89.645  46.649  42.451  0.00  0.00    -0.037 A 
ATOM     35  H   UNL     1      89.660  43.869  42.226  0.00  0.00    +0.000 HD
BRANCH  26  36
ATOM     36  C   UNL     1      85.172  44.586  43.231  0.00  0.00    +0.010 C 
ATOM     37  C   UNL     1      84.713  43.305  42.500  0.00  0.00    -0.052 C 
ATOM     38  C   UNL     1      84.889  44.428  44.742  0.00  0.00    -0.052 C 
BRANCH  36  40
ATOM     39  C   UNL     1      83.420  46.394  43.400  0.00  0.00    -0.102 C 
ATOM     40  C   UNL     1      84.417  45.808  42.720  0.00  0.00    -0.081 C 
ENDBRANCH  36  40
ENDBRANCH  26  36
ENDBRANCH  24  32
ENDBRANCH   1  25
TORSDOF 7
ENDMDL
MODEL 3
REMARK VINA RESULT:   -10.112      1.273      9.821
REMARK INTER + INTRA:         -14.914
REMARK INTER:                 -13.339
REMARK INTRA:                  -1.575
REMARK UNBOUND:                -0.664
REMARK  Name = 
REMARK  13 active torsions:
REMARK  status: ('A' for Active; 'I' for Inactive)
REMARK    1  A    between atoms: C_2  and  C_3
REMARK    2  A    between atoms: C_3  and  C_4
REMARK    3  A    between atoms: C_3  and  C_37
REMARK    4  A    between atoms: C_3  and  C_38
REMARK    5  A    between atoms: C_10  and  C_13
REMARK    6  A    between atoms: C_14  and  C_15
REMARK    7  A    between atoms: C_15  and  C_16
REMARK    8  A    between atoms: C_19  and  C_36
REMARK    9  A    between atoms: C_21  and  C_22
REMARK   10  A    between atoms: C_28  and  C_31
REMARK   11  A    between atoms: C_31  and  C_32
REMARK   12  A    between atoms: C_31  and  C_34
REMARK   13  A    between atoms: C_31  and  C_35
REMARK                            x       y       z     vdW  Elec       q    Type
REMARK                         _______ _______ _______ _____ _____    ______ ____
ROOT
ATOM      1  C   UNL     1      87.625  50.798  44.376  0.00  0.00    -0.003 C 
ATOM      2  C   UNL     1      88.084  49.861  45.520  0.00  0.00    -0.055 C 
ATOM      3  C   UNL     1      88.858  51.290  43.578  0.00  0.00    -0.040 C 
ATOM      4  C   UNL     1      88.464  52.225  42.422  0.00  0.00    -0.031 C 
ATOM      5  C   UNL     1      87.230  51.782  41.661  0.00  0.00    -0.076 C 
ATOM      6  C   UNL     1      86.373  50.860  42.148  0.00  0.00    -0.077 C 
ATOM      7  C   UNL     1      86.655  50.047  43.396  0.00  0.00    +0.011 C 
ATOM      8  C   UNL     1      86.892  52.474  40.369  0.00  0.00    -0.044 C 
ENDROOT
BRANCH   7   9
ATOM      9  C   UNL     1      87.113  48.643  43.005  0.00  0.00    -0.039 A 
ATOM     10  C   UNL     1      88.372  48.472  42.369  0.00  0.00    -0.056 A 
ATOM     11  C   UNL     1      88.815  47.198  41.976  0.00  0.00    -0.038 A 
ATOM     12  C   UNL     1      87.987  46.109  42.232  0.00  0.00    +0.047 A 
ATOM     13  C   UNL     1      86.772  46.254  42.846  0.00  0.00    +0.004 A 
ATOM     14  C   UNL     1      86.302  47.507  43.241  0.00  0.00    -0.049 A 
ATOM     15  C   UNL     1      86.206  44.988  42.944  0.00  0.00    -0.013 A 
ATOM     16  C   UNL     1      87.139  44.134  42.346  0.00  0.00    +0.007 A 
ATOM     17  N   UNL     1      88.221  44.824  41.924  0.00  0.00    -0.360 N 
ATOM     18  H   UNL     1      89.020  44.459  41.480  0.00  0.00    +0.000 HD
BRANCH  15  19
ATOM     19  C   UNL     1      84.828  44.623  43.493  0.00  0.00    +0.010 C 
ATOM     20  C   UNL     1      84.537  43.150  43.146  0.00  0.00    -0.052 C 
ATOM     21  C   UNL     1      84.770  44.782  45.028  0.00  0.00    -0.052 C 
BRANCH  19  22
ATOM     22  C   UNL     1      83.758  45.511  42.874  0.00  0.00    -0.081 C 
ATOM     23  C   UNL     1      82.932  46.264  43.611  0.00  0.00    -0.102 C 
ENDBRANCH  19  22
ENDBRANCH  15  19
ENDBRANCH   7   9
BRANCH   1  25
ATOM     24  C   UNL     1      86.028  51.870  46.016  0.00  0.00    -0.058 C 
ATOM     25  C   UNL     1      86.885  51.988  44.989  0.00  0.00    -0.077 C 
BRANCH  24  32
ATOM     26  C   UNL     1      84.516  56.662  46.096  0.00  0.00    -0.013 A 
ATOM     27  C   UNL     1      83.712  57.258  47.075  0.00  0.00    +0.007 A 
ATOM     28  N   UNL     1      83.398  56.372  48.044  0.00  0.00    -0.360 N 
ATOM     29  C   UNL     1      83.982  55.215  47.698  0.00  0.00    +0.047 A 
ATOM     30  C   UNL     1      84.667  55.343  46.518  0.00  0.00    +0.004 A 
ATOM     31  C   UNL     1      85.344  54.260  45.951  0.00  0.00    -0.045 A 
ATOM     32  C   UNL     1      85.323  53.021  46.628  0.00  0.00    -0.025 A 
ATOM     33  C   UNL     1      84.596  52.902  47.843  0.00  0.00    -0.053 A 
ATOM     34  C   UNL     1      83.922  54.007  48.387  0.00  0.00    -0.037 A 
ATOM     35  H   UNL     1      82.850  56.541  48.846  0.00  0.00    +0.000 HD
BRANCH  26  36
ATOM     36  C   UNL     1      85.042  57.296  44.809  0.00  0.00    +0.010 C 
ATOM     37  C   UNL     1      85.027  58.831  44.981  0.00  0.00    -0.052 C 
ATOM     38  C   UNL     1      86.489  56.839  44.520  0.00  0.00    -0.052 C 
BRANCH  36  40
ATOM     39  C   UNL     1      84.541  55.984  42.714  0.00  0.00    -0.102 C 
ATOM     40  C   UNL     1      84.156  56.868  43.645  0.00  0.00    -0.081 C 
ENDBRANCH  36  40
ENDBRANCH  26  36
ENDBRANCH  24  32
ENDBRANCH   1  25
TORSDOF 7
ENDMDL
MODEL 4
REMARK VINA RESULT:    -9.983      1.027      9.706
REMARK INTER + INTRA:         -14.733
REMARK INTER:                 -13.128
REMARK INTRA:                  -1.604
REMARK UNBOUND:                -0.664
REMARK  Name = 
REMARK  13 active torsions:
REMARK  status: ('A' for Active; 'I' for Inactive)
REMARK    1  A    between atoms: C_2  and  C_3
REMARK    2  A    between atoms: C_3  and  C_4
REMARK    3  A    between atoms: C_3  and  C_37
REMARK    4  A    between atoms: C_3  and  C_38
REMARK    5  A    between atoms: C_10  and  C_13
REMARK    6  A    between atoms: C_14  and  C_15
REMARK    7  A    between atoms: C_15  and  C_16
REMARK    8  A    between atoms: C_19  and  C_36
REMARK    9  A    between atoms: C_21  and  C_22
REMARK   10  A    between atoms: C_28  and  C_31
REMARK   11  A    between atoms: C_31  and  C_32
REMARK   12  A    between atoms: C_31  and  C_34
REMARK   13  A    between atoms: C_31  and  C_35
REMARK                            x       y       z     vdW  Elec       q    Type
REMARK                         _______ _______ _______ _____ _____    ______ ____
ROOT
ATOM      1  C   UNL     1      86.506  50.583  44.958  0.00  0.00    -0.003 C 
ATOM      2  C   UNL     1      86.541  49.634  46.181  0.00  0.00    -0.055 C 
ATOM      3  C   UNL     1      87.952  50.873  44.482  0.00  0.00    -0.040 C 
ATOM      4  C   UNL     1      87.983  51.810  43.263  0.00  0.00    -0.031 C 
ATOM      5  C   UNL     1      86.916  51.514  42.227  0.00  0.00    -0.076 C 
ATOM      6  C   UNL     1      85.847  50.736  42.493  0.00  0.00    -0.077 C 
ATOM      7  C   UNL     1      85.704  49.937  43.774  0.00  0.00    +0.011 C 
ATOM      8  C   UNL     1      87.000  52.198  40.890  0.00  0.00    -0.044 C 
ENDROOT
BRANCH   7   9
ATOM      9  C   UNL     1      86.039  48.471  43.508  0.00  0.00    -0.039 A 
ATOM     10  C   UNL     1      85.039  47.480  43.703  0.00  0.00    -0.056 A 
ATOM     11  C   UNL     1      85.319  46.120  43.488  0.00  0.00    -0.038 A 
ATOM     12  C   UNL     1      86.602  45.773  43.076  0.00  0.00    +0.047 A 
ATOM     13  C   UNL     1      87.578  46.713  42.882  0.00  0.00    +0.004 A 
ATOM     14  C   UNL     1      87.332  48.071  43.093  0.00  0.00    -0.049 A 
ATOM     15  C   UNL     1      88.726  46.039  42.483  0.00  0.00    -0.013 A 
ATOM     16  C   UNL     1      88.363  44.688  42.481  0.00  0.00    +0.007 A 
ATOM     17  N   UNL     1      87.067  44.538  42.835  0.00  0.00    -0.360 N 
ATOM     18  H   UNL     1      86.566  43.693  42.903  0.00  0.00    +0.000 HD
BRANCH  15  19
ATOM     19  C   UNL     1      90.106  46.632  42.205  0.00  0.00    +0.010 C 
ATOM     20  C   UNL     1      90.917  46.621  43.516  0.00  0.00    -0.052 C 
ATOM     21  C   UNL     1      90.875  45.806  41.151  0.00  0.00    -0.052 C 
BRANCH  19  22
ATOM     22  C   UNL     1      89.976  48.062  41.700  0.00  0.00    -0.081 C 
ATOM     23  C   UNL     1      90.596  49.092  42.289  0.00  0.00    -0.102 C 
ENDBRANCH  19  22
ENDBRANCH  15  19
ENDBRANCH   7   9
BRANCH   1  25
ATOM     24  C   UNL     1      85.533  52.192  46.647  0.00  0.00    -0.058 C 
ATOM     25  C   UNL     1      85.817  51.885  45.371  0.00  0.00    -0.077 C 
BRANCH  24  32
ATOM     26  C   UNL     1      84.469  57.068  46.058  0.00  0.00    -0.013 A 
ATOM     27  C   UNL     1      83.637  57.837  46.880  0.00  0.00    +0.007 A 
ATOM     28  N   UNL     1      83.155  57.098  47.903  0.00  0.00    -0.360 N 
ATOM     29  C   UNL     1      83.659  55.865  47.743  0.00  0.00    +0.047 A 
ATOM     30  C   UNL     1      84.458  55.799  46.633  0.00  0.00    +0.004 A 
ATOM     31  C   UNL     1      85.081  54.606  46.256  0.00  0.00    -0.045 A 
ATOM     32  C   UNL     1      84.883  53.460  47.057  0.00  0.00    -0.025 A 
ATOM     33  C   UNL     1      84.040  53.542  48.199  0.00  0.00    -0.053 A 
ATOM     34  C   UNL     1      83.425  54.754  48.549  0.00  0.00    -0.037 A 
ATOM     35  H   UNL     1      82.554  57.403  48.622  0.00  0.00    +0.000 HD
BRANCH  26  36
ATOM     36  C   UNL     1      85.166  57.504  44.770  0.00  0.00    +0.010 C 
ATOM     37  C   UNL     1      85.405  59.028  44.838  0.00  0.00    -0.052 C 
ATOM     38  C   UNL     1      86.527  56.790  44.612  0.00  0.00    -0.052 C 
BRANCH  36  40
ATOM     39  C   UNL     1      84.501  56.067  42.805  0.00  0.00    -0.102 C 
ATOM     40  C   UNL     1      84.286  57.141  43.579  0.00  0.00    -0.081 C 
ENDBRANCH  36  40
ENDBRANCH  26  36
ENDBRANCH  24  32
ENDBRANCH   1  25
TORSDOF 7
ENDMDL
MODEL 5
REMARK VINA RESULT:    -9.738      1.471      2.423
REMARK INTER + INTRA:         -14.387
REMARK INTER:                 -13.576
REMARK INTRA:                  -0.811
REMARK UNBOUND:                -0.664
REMARK  Name = 
REMARK  13 active torsions:
REMARK  status: ('A' for Active; 'I' for Inactive)
REMARK    1  A    between atoms: C_2  and  C_3
REMARK    2  A    between atoms: C_3  and  C_4
REMARK    3  A    between atoms: C_3  and  C_37
REMARK    4  A    between atoms: C_3  and  C_38
REMARK    5  A    between atoms: C_10  and  C_13
REMARK    6  A    between atoms: C_14  and  C_15
REMARK    7  A    between atoms: C_15  and  C_16
REMARK    8  A    between atoms: C_19  and  C_36
REMARK    9  A    between atoms: C_21  and  C_22
REMARK   10  A    between atoms: C_28  and  C_31
REMARK   11  A    between atoms: C_31  and  C_32
REMARK   12  A    between atoms: C_31  and  C_34
REMARK   13  A    between atoms: C_31  and  C_35
REMARK                            x       y       z     vdW  Elec       q    Type
REMARK                         _______ _______ _______ _____ _____    ______ ____
ROOT
ATOM      1  C   UNL     1      85.043  51.571  45.044  0.00  0.00    -0.003 C 
ATOM      2  C   UNL     1      83.993  52.292  44.165  0.00  0.00    -0.055 C 
ATOM      3  C   UNL     1      86.464  52.055  44.660  0.00  0.00    -0.040 C 
ATOM      4  C   UNL     1      87.555  51.375  45.505  0.00  0.00    -0.031 C 
ATOM      5  C   UNL     1      87.203  51.233  46.973  0.00  0.00    -0.076 C 
ATOM      6  C   UNL     1      85.941  51.377  47.429  0.00  0.00    -0.077 C 
ATOM      7  C   UNL     1      84.800  51.876  46.565  0.00  0.00    +0.011 C 
ATOM      8  C   UNL     1      88.278  50.812  47.936  0.00  0.00    -0.044 C 
ENDROOT
BRANCH   7   9
ATOM      9  C   UNL     1      84.518  53.344  46.879  0.00  0.00    -0.039 A 
ATOM     10  C   UNL     1      83.804  53.680  48.060  0.00  0.00    -0.056 A 
ATOM     11  C   UNL     1      83.508  55.018  48.369  0.00  0.00    -0.038 A 
ATOM     12  C   UNL     1      83.937  56.004  47.486  0.00  0.00    +0.047 A 
ATOM     13  C   UNL     1      84.628  55.700  46.344  0.00  0.00    +0.004 A 
ATOM     14  C   UNL     1      84.931  54.380  46.007  0.00  0.00    -0.049 A 
ATOM     15  C   UNL     1      84.896  56.899  45.694  0.00  0.00    -0.013 A 
ATOM     16  C   UNL     1      84.316  57.881  46.503  0.00  0.00    +0.007 A 
ATOM     17  N   UNL     1      83.742  57.327  47.594  0.00  0.00    -0.360 N 
ATOM     18  H   UNL     1      83.275  57.799  48.321  0.00  0.00    +0.000 HD
BRANCH  15  19
ATOM     19  C   UNL     1      85.587  57.093  44.346  0.00  0.00    +0.010 C 
ATOM     20  C   UNL     1      86.052  58.559  44.240  0.00  0.00    -0.052 C 
ATOM     21  C   UNL     1      86.824  56.180  44.205  0.00  0.00    -0.052 C 
BRANCH  19  22
ATOM     22  C   UNL     1      84.625  56.784  43.208  0.00  0.00    -0.081 C 
ATOM     23  C   UNL     1      84.669  55.636  42.519  0.00  0.00    -0.102 C 
ENDBRANCH  19  22
ENDBRANCH  15  19
ENDBRANCH   7   9
BRANCH   1  25
ATOM     24  C   UNL     1      83.860  49.498  44.215  0.00  0.00    -0.058 C 
ATOM     25  C   UNL     1      84.920  50.064  44.815  0.00  0.00    -0.077 C 
BRANCH  24  32
ATOM     26  C   UNL     1      85.769  44.966  43.182  0.00  0.00    -0.013 A 
ATOM     27  C   UNL     1      85.053  43.765  43.105  0.00  0.00    +0.007 A 
ATOM     28  N   UNL     1      83.736  43.976  43.323  0.00  0.00    -0.360 N 
ATOM     29  C   UNL     1      83.600  45.292  43.547  0.00  0.00    +0.047 A 
ATOM     30  C   UNL     1      84.809  45.931  43.477  0.00  0.00    +0.004 A 
ATOM     31  C   UNL     1      84.916  47.308  43.692  0.00  0.00    -0.045 A 
ATOM     32  C   UNL     1      83.742  48.040  43.972  0.00  0.00    -0.025 A 
ATOM     33  C   UNL     1      82.497  47.359  44.055  0.00  0.00    -0.053 A 
ATOM     34  C   UNL     1      82.422  45.974  43.837  0.00  0.00    -0.037 A 
ATOM     35  H   UNL     1      83.020  43.300  43.319  0.00  0.00    +0.000 HD
BRANCH  26  36
ATOM     36  C   UNL     1      87.280  45.158  43.053  0.00  0.00    +0.010 C 
ATOM     37  C   UNL     1      87.967  44.400  44.209  0.00  0.00    -0.052 C 
ATOM     38  C   UNL     1      87.795  44.595  41.710  0.00  0.00    -0.052 C 
BRANCH  36  40
ATOM     39  C   UNL     1      88.322  47.281  42.176  0.00  0.00    -0.102 C 
ATOM     40  C   UNL     1      87.598  46.648  43.110  0.00  0.00    -0.081 C 
ENDBRANCH  36  40
ENDBRANCH  26  36
ENDBRANCH  24  32
ENDBRANCH   1  25
TORSDOF 7
ENDMDL
MODEL 6
REMARK VINA RESULT:    -9.504      1.721      9.930
REMARK INTER + INTRA:         -14.057
REMARK INTER:                 -12.719
REMARK INTRA:                  -1.338
REMARK UNBOUND:                -0.664
REMARK  Name = 
REMARK  13 active torsions:
REMARK  status: ('A' for Active; 'I' for Inactive)
REMARK    1  A    between atoms: C_2  and  C_3
REMARK    2  A    between atoms: C_3  and  C_4
REMARK    3  A    between atoms: C_3  and  C_37
REMARK    4  A    between atoms: C_3  and  C_38
REMARK    5  A    between atoms: C_10  and  C_13
REMARK    6  A    between atoms: C_14  and  C_15
REMARK    7  A    between atoms: C_15  and  C_16
REMARK    8  A    between atoms: C_19  and  C_36
REMARK    9  A    between atoms: C_21  and  C_22
REMARK   10  A    between atoms: C_28  and  C_31
REMARK   11  A    between atoms: C_31  and  C_32
REMARK   12  A    between atoms: C_31  and  C_34
REMARK   13  A    between atoms: C_31  and  C_35
REMARK                            x       y       z     vdW  Elec       q    Type
REMARK                         _______ _______ _______ _____ _____    ______ ____
ROOT
ATOM      1  C   UNL     1      88.165  50.464  43.453  0.00  0.00    -0.003 C 
ATOM      2  C   UNL     1      87.931  49.767  44.816  0.00  0.00    -0.055 C 
ATOM      3  C   UNL     1      89.685  50.582  43.183  0.00  0.00    -0.040 C 
ATOM      4  C   UNL     1      89.983  51.265  41.837  0.00  0.00    -0.031 C 
ATOM      5  C   UNL     1      89.071  50.829  40.707  0.00  0.00    -0.076 C 
ATOM      6  C   UNL     1      87.912  50.171  40.926  0.00  0.00    -0.077 C 
ATOM      7  C   UNL     1      87.507  49.642  42.287  0.00  0.00    +0.011 C 
ATOM      8  C   UNL     1      89.417  51.237  39.302  0.00  0.00    -0.044 C 
ENDROOT
BRANCH   7   9
ATOM      9  C   UNL     1      87.759  48.138  42.353  0.00  0.00    -0.039 A 
ATOM     10  C   UNL     1      89.025  47.624  41.964  0.00  0.00    -0.056 A 
ATOM     11  C   UNL     1      89.284  46.244  41.992  0.00  0.00    -0.038 A 
ATOM     12  C   UNL     1      88.265  45.395  42.414  0.00  0.00    +0.047 A 
ATOM     13  C   UNL     1      87.039  45.871  42.795  0.00  0.00    +0.004 A 
ATOM     14  C   UNL     1      86.750  47.236  42.772  0.00  0.00    -0.049 A 
ATOM     15  C   UNL     1      86.264  44.774  43.149  0.00  0.00    -0.013 A 
ATOM     16  C   UNL     1      87.092  43.667  42.935  0.00  0.00    +0.007 A 
ATOM     17  N   UNL     1      88.310  44.056  42.496  0.00  0.00    -0.360 N 
ATOM     18  H   UNL     1      89.074  43.475  42.280  0.00  0.00    +0.000 HD
BRANCH  15  19
ATOM     19  C   UNL     1      84.799  44.769  43.582  0.00  0.00    +0.010 C 
ATOM     20  C   UNL     1      84.246  43.338  43.426  0.00  0.00    -0.052 C 
ATOM     21  C   UNL     1      84.643  45.192  45.059  0.00  0.00    -0.052 C 
BRANCH  19  22
ATOM     22  C   UNL     1      83.987  45.723  42.717  0.00  0.00    -0.081 C 
ATOM     23  C   UNL     1      83.149  46.629  43.235  0.00  0.00    -0.102 C 
ENDBRANCH  19  22
ENDBRANCH  15  19
ENDBRANCH   7   9
BRANCH   1  25
ATOM     24  C   UNL     1      86.284  52.106  43.063  0.00  0.00    -0.058 C 
ATOM     25  C   UNL     1      87.528  51.854  43.500  0.00  0.00    -0.077 C 
BRANCH  24  32
ATOM     26  C   UNL     1      84.475  56.091  45.533  0.00  0.00    -0.013 A 
ATOM     27  C   UNL     1      83.960  57.257  44.955  0.00  0.00    +0.007 A 
ATOM     28  N   UNL     1      83.982  57.176  43.607  0.00  0.00    -0.360 N 
ATOM     29  C   UNL     1      84.511  55.979  43.313  0.00  0.00    +0.047 A 
ATOM     30  C   UNL     1      84.831  55.288  44.451  0.00  0.00    +0.004 A 
ATOM     31  C   UNL     1      85.412  54.019  44.392  0.00  0.00    -0.045 A 
ATOM     32  C   UNL     1      85.653  53.446  43.124  0.00  0.00    -0.025 A 
ATOM     33  C   UNL     1      85.328  54.182  41.952  0.00  0.00    -0.053 A 
ATOM     34  C   UNL     1      84.749  55.457  42.044  0.00  0.00    -0.037 A 
ATOM     35  H   UNL     1      83.671  57.858  42.968  0.00  0.00    +0.000 HD
BRANCH  26  36
ATOM     36  C   UNL     1      84.678  55.800  47.019  0.00  0.00    +0.010 C 
ATOM     37  C   UNL     1      86.167  56.030  47.361  0.00  0.00    -0.052 C 
ATOM     38  C   UNL     1      83.814  56.740  47.888  0.00  0.00    -0.052 C 
BRANCH  36  40
ATOM     39  C   UNL     1      83.545  54.000  48.376  0.00  0.00    -0.102 C 
ATOM     40  C   UNL     1      84.268  54.360  47.306  0.00  0.00    -0.081 C 
ENDBRANCH  36  40
ENDBRANCH  26  36
ENDBRANCH  24  32
ENDBRANCH   1  25
TORSDOF 7
ENDMDL
MODEL 7
REMARK VINA RESULT:    -9.269      1.139      9.682
REMARK INTER + INTRA:         -13.726
REMARK INTER:                 -12.637
REMARK INTRA:                  -1.088
REMARK UNBOUND:                -0.664
REMARK  Name = 
REMARK  13 active torsions:
REMARK  status: ('A' for Active; 'I' for Inactive)
REMARK    1  A    between atoms: C_2  and  C_3
REMARK    2  A    between atoms: C_3  and  C_4
REMARK    3  A    between atoms: C_3  and  C_37
REMARK    4  A    between atoms: C_3  and  C_38
REMARK    5  A    between atoms: C_10  and  C_13
REMARK    6  A    between atoms: C_14  and  C_15
REMARK    7  A    between atoms: C_15  and  C_16
REMARK    8  A    between atoms: C_19  and  C_36
REMARK    9  A    between atoms: C_21  and  C_22
REMARK   10  A    between atoms: C_28  and  C_31
REMARK   11  A    between atoms: C_31  and  C_32
REMARK   12  A    between atoms: C_31  and  C_34
REMARK   13  A    between atoms: C_31  and  C_35
REMARK                            x       y       z     vdW  Elec       q    Type
REMARK                         _______ _______ _______ _____ _____    ______ ____
ROOT
ATOM      1  C   UNL     1      84.746  50.433  43.518  0.00  0.00    -0.003 C 
ATOM      2  C   UNL     1      86.247  50.452  43.143  0.00  0.00    -0.055 C 
ATOM      3  C   UNL     1      83.887  50.381  42.229  0.00  0.00    -0.040 C 
ATOM      4  C   UNL     1      82.380  50.355  42.538  0.00  0.00    -0.031 C 
ATOM      5  C   UNL     1      82.002  49.464  43.705  0.00  0.00    -0.076 C 
ATOM      6  C   UNL     1      82.914  49.008  44.590  0.00  0.00    -0.077 C 
ATOM      7  C   UNL     1      84.408  49.179  44.400  0.00  0.00    +0.011 C 
ATOM      8  C   UNL     1      80.548  49.167  43.944  0.00  0.00    -0.044 C 
ENDROOT
BRANCH   7   9
ATOM      9  C   UNL     1      85.018  47.871  43.901  0.00  0.00    -0.039 A 
ATOM     10  C   UNL     1      84.257  46.674  43.971  0.00  0.00    -0.056 A 
ATOM     11  C   UNL     1      84.795  45.449  43.541  0.00  0.00    -0.038 A 
ATOM     12  C   UNL     1      86.094  45.444  43.041  0.00  0.00    +0.047 A 
ATOM     13  C   UNL     1      86.843  46.588  42.964  0.00  0.00    +0.004 A 
ATOM     14  C   UNL     1      86.338  47.818  43.390  0.00  0.00    -0.049 A 
ATOM     15  C   UNL     1      88.077  46.237  42.432  0.00  0.00    -0.013 A 
ATOM     16  C   UNL     1      87.999  44.854  42.232  0.00  0.00    +0.007 A 
ATOM     17  N   UNL     1      86.786  44.384  42.598  0.00  0.00    -0.360 N 
ATOM     18  H   UNL     1      86.474  43.452  42.550  0.00  0.00    +0.000 HD
BRANCH  15  19
ATOM     19  C   UNL     1      89.287  47.142  42.207  0.00  0.00    +0.010 C 
ATOM     20  C   UNL     1      90.339  46.362  41.393  0.00  0.00    -0.052 C 
ATOM     21  C   UNL     1      88.904  48.413  41.416  0.00  0.00    -0.052 C 
BRANCH  19  22
ATOM     22  C   UNL     1      89.888  47.565  43.540  0.00  0.00    -0.081 C 
ATOM     23  C   UNL     1      90.905  48.432  43.629  0.00  0.00    -0.102 C 
ENDBRANCH  19  22
ENDBRANCH  15  19
ENDBRANCH   7   9
BRANCH   1  25
ATOM     24  C   UNL     1      84.724  51.843  45.615  0.00  0.00    -0.058 C 
ATOM     25  C   UNL     1      84.425  51.699  44.314  0.00  0.00    -0.077 C 
BRANCH  24  32
ATOM     26  C   UNL     1      84.607  56.833  46.202  0.00  0.00    -0.013 A 
ATOM     27  C   UNL     1      84.111  57.522  47.314  0.00  0.00    +0.007 A 
ATOM     28  N   UNL     1      83.675  56.661  48.259  0.00  0.00    -0.360 N 
ATOM     29  C   UNL     1      83.876  55.430  47.764  0.00  0.00    +0.047 A 
ATOM     30  C   UNL     1      84.435  55.486  46.515  0.00  0.00    +0.004 A 
ATOM     31  C   UNL     1      84.720  54.324  45.794  0.00  0.00    -0.045 A 
ATOM     32  C   UNL     1      84.435  53.075  46.388  0.00  0.00    -0.025 A 
ATOM     33  C   UNL     1      83.842  53.034  47.679  0.00  0.00    -0.053 A 
ATOM     34  C   UNL     1      83.563  54.220  48.377  0.00  0.00    -0.037 A 
ATOM     35  H   UNL     1      83.288  56.890  49.135  0.00  0.00    +0.000 HD
BRANCH  26  36
ATOM     36  C   UNL     1      85.140  57.428  44.899  0.00  0.00    +0.010 C 
ATOM     37  C   UNL     1      85.278  58.955  45.082  0.00  0.00    -0.052 C 
ATOM     38  C   UNL     1      86.525  56.838  44.550  0.00  0.00    -0.052 C 
BRANCH  36  40
ATOM     39  C   UNL     1      84.468  56.254  42.770  0.00  0.00    -0.102 C 
ATOM     40  C   UNL     1      84.173  57.099  43.768  0.00  0.00    -0.081 C 
ENDBRANCH  36  40
ENDBRANCH  26  36
ENDBRANCH  24  32
ENDBRANCH   1  25
TORSDOF 7
ENDMDL
MODEL 8
REMARK VINA RESULT:    -9.169      1.589      4.012
REMARK INTER + INTRA:         -13.585
REMARK INTER:                 -12.258
REMARK INTRA:                  -1.327
REMARK UNBOUND:                -0.664
REMARK  Name = 
REMARK  13 active torsions:
REMARK  status: ('A' for Active; 'I' for Inactive)
REMARK    1  A    between atoms: C_2  and  C_3
REMARK    2  A    between atoms: C_3  and  C_4
REMARK    3  A    between atoms: C_3  and  C_37
REMARK    4  A    between atoms: C_3  and  C_38
REMARK    5  A    between atoms: C_10  and  C_13
REMARK    6  A    between atoms: C_14  and  C_15
REMARK    7  A    between atoms: C_15  and  C_16
REMARK    8  A    between atoms: C_19  and  C_36
REMARK    9  A    between atoms: C_21  and  C_22
REMARK   10  A    between atoms: C_28  and  C_31
REMARK   11  A    between atoms: C_31  and  C_32
REMARK   12  A    between atoms: C_31  and  C_34
REMARK   13  A    between atoms: C_31  and  C_35
REMARK                            x       y       z     vdW  Elec       q    Type
REMARK                         _______ _______ _______ _____ _____    ______ ____
ROOT
ATOM      1  C   UNL     1      86.788  51.387  43.043  0.00  0.00    -0.003 C 
ATOM      2  C   UNL     1      86.880  52.006  41.627  0.00  0.00    -0.055 C 
ATOM      3  C   UNL     1      87.924  51.951  43.934  0.00  0.00    -0.040 C 
ATOM      4  C   UNL     1      87.882  51.375  45.359  0.00  0.00    -0.031 C 
ATOM      5  C   UNL     1      86.487  51.260  45.940  0.00  0.00    -0.076 C 
ATOM      6  C   UNL     1      85.378  51.334  45.174  0.00  0.00    -0.077 C 
ATOM      7  C   UNL     1      85.408  51.726  43.711  0.00  0.00    +0.011 C 
ATOM      8  C   UNL     1      86.337  50.945  47.403  0.00  0.00    -0.044 C 
ENDROOT
BRANCH   7   9
ATOM      9  C   UNL     1      84.971  53.181  43.556  0.00  0.00    -0.039 A 
ATOM     10  C   UNL     1      84.484  53.634  42.300  0.00  0.00    -0.056 A 
ATOM     11  C   UNL     1      84.094  54.971  42.117  0.00  0.00    -0.038 A 
ATOM     12  C   UNL     1      84.194  55.837  43.201  0.00  0.00    +0.047 A 
ATOM     13  C   UNL     1      84.658  55.419  44.420  0.00  0.00    +0.004 A 
ATOM     14  C   UNL     1      85.060  54.099  44.631  0.00  0.00    -0.049 A 
ATOM     15  C   UNL     1      84.635  56.519  45.268  0.00  0.00    -0.013 A 
ATOM     16  C   UNL     1      84.160  57.570  44.477  0.00  0.00    +0.007 A 
ATOM     17  N   UNL     1      83.887  57.143  43.224  0.00  0.00    -0.360 N 
ATOM     18  H   UNL     1      83.535  57.681  42.479  0.00  0.00    +0.000 HD
BRANCH  15  19
ATOM     19  C   UNL     1      85.115  56.588  46.717  0.00  0.00    +0.010 C 
ATOM     20  C   UNL     1      86.392  55.734  46.852  0.00  0.00    -0.052 C 
ATOM     21  C   UNL     1      85.453  58.037  47.133  0.00  0.00    -0.052 C 
BRANCH  19  22
ATOM     22  C   UNL     1      84.045  56.052  47.656  0.00  0.00    -0.081 C 
ATOM     23  C   UNL     1      84.199  54.919  48.353  0.00  0.00    -0.102 C 
ENDBRANCH  19  22
ENDBRANCH  15  19
ENDBRANCH   7   9
BRANCH   1  25
ATOM     24  C   UNL     1      88.103  49.234  42.891  0.00  0.00    -0.058 C 
ATOM     25  C   UNL     1      86.920  49.868  42.922  0.00  0.00    -0.077 C 
BRANCH  24  32
ATOM     26  C   UNL     1      86.317  44.547  43.196  0.00  0.00    -0.013 A 
ATOM     27  C   UNL     1      87.022  43.374  42.903  0.00  0.00    +0.007 A 
ATOM     28  N   UNL     1      88.292  43.654  42.539  0.00  0.00    -0.360 N 
ATOM     29  C   UNL     1      88.409  44.989  42.587  0.00  0.00    +0.047 A 
ATOM     30  C   UNL     1      87.233  45.574  42.975  0.00  0.00    +0.004 A 
ATOM     31  C   UNL     1      87.112  46.962  43.081  0.00  0.00    -0.045 A 
ATOM     32  C   UNL     1      88.239  47.762  42.793  0.00  0.00    -0.025 A 
ATOM     33  C   UNL     1      89.448  47.140  42.378  0.00  0.00    -0.053 A 
ATOM     34  C   UNL     1      89.538  45.743  42.278  0.00  0.00    -0.037 A 
ATOM     35  H   UNL     1      88.993  43.008  42.290  0.00  0.00    +0.000 HD
BRANCH  26  36
ATOM     36  C   UNL     1      84.846  44.676  43.589  0.00  0.00    +0.010 C 
ATOM     37  C   UNL     1      84.178  43.293  43.435  0.00  0.00    -0.052 C 
ATOM     38  C   UNL     1      84.706  45.140  45.056  0.00  0.00    -0.052 C 
BRANCH  36  40
ATOM     39  C   UNL     1      83.355  46.662  43.145  0.00  0.00    -0.102 C 
ATOM     40  C   UNL     1      84.178  45.709  42.687  0.00  0.00    -0.081 C 
ENDBRANCH  36  40
ENDBRANCH  26  36
ENDBRANCH  24  32
ENDBRANCH   1  25
TORSDOF 7
ENDMDL
MODEL 9
REMARK VINA RESULT:    -9.130      1.446      3.469
REMARK INTER + INTRA:         -13.531
REMARK INTER:                 -12.867
REMARK INTRA:                  -0.664
REMARK UNBOUND:                -0.664
REMARK  Name = 
REMARK  13 active torsions:
REMARK  status: ('A' for Active; 'I' for Inactive)
REMARK    1  A    between atoms: C_2  and  C_3
REMARK    2  A    between atoms: C_3  and  C_4
REMARK    3  A    between atoms: C_3  and  C_37
REMARK    4  A    between atoms: C_3  and  C_38
REMARK    5  A    between atoms: C_10  and  C_13
REMARK    6  A    between atoms: C_14  and  C_15
REMARK    7  A    between atoms: C_15  and  C_16
REMARK    8  A    between atoms: C_19  and  C_36
REMARK    9  A    between atoms: C_21  and  C_22
REMARK   10  A    between atoms: C_28  and  C_31
REMARK   11  A    between atoms: C_31  and  C_32
REMARK   12  A    between atoms: C_31  and  C_34
REMARK   13  A    between atoms: C_31  and  C_35
REMARK                            x       y       z     vdW  Elec       q    Type
REMARK                         _______ _______ _______ _____ _____    ______ ____
ROOT
ATOM      1  C   UNL     1      86.181  51.591  44.935  0.00  0.00    -0.003 C 
ATOM      2  C   UNL     1      85.434  52.471  43.904  0.00  0.00    -0.055 C 
ATOM      3  C   UNL     1      87.561  52.218  45.254  0.00  0.00    -0.040 C 
ATOM      4  C   UNL     1      88.351  51.388  46.280  0.00  0.00    -0.031 C 
ATOM      5  C   UNL     1      87.511  50.851  47.422  0.00  0.00    -0.076 C 
ATOM      6  C   UNL     1      86.162  50.816  47.371  0.00  0.00    -0.077 C 
ATOM      7  C   UNL     1      85.359  51.475  46.268  0.00  0.00    +0.011 C 
ATOM      8  C   UNL     1      88.207  50.239  48.605  0.00  0.00    -0.044 C 
ENDROOT
BRANCH   7   9
ATOM      9  C   UNL     1      84.778  52.796  46.769  0.00  0.00    -0.039 A 
ATOM     10  C   UNL     1      83.963  52.802  47.933  0.00  0.00    -0.056 A 
ATOM     11  C   UNL     1      83.395  53.995  48.410  0.00  0.00    -0.038 A 
ATOM     12  C   UNL     1      83.657  55.170  47.712  0.00  0.00    +0.047 A 
ATOM     13  C   UNL     1      84.441  55.184  46.590  0.00  0.00    +0.004 A 
ATOM     14  C   UNL     1      85.014  54.014  46.088  0.00  0.00    -0.049 A 
ATOM     15  C   UNL     1      84.494  56.498  46.141  0.00  0.00    -0.013 A 
ATOM     16  C   UNL     1      83.697  57.214  47.040  0.00  0.00    +0.007 A 
ATOM     17  N   UNL     1      83.199  56.399  47.995  0.00  0.00    -0.360 N 
ATOM     18  H   UNL     1      82.618  56.655  48.748  0.00  0.00    +0.000 HD
BRANCH  15  19
ATOM     19  C   UNL     1      85.189  57.028  44.888  0.00  0.00    +0.010 C 
ATOM     20  C   UNL     1      84.368  56.600  43.655  0.00  0.00    -0.052 C 
ATOM     21  C   UNL     1      85.282  58.569  44.899  0.00  0.00    -0.052 C 
BRANCH  19  22
ATOM     22  C   UNL     1      86.597  56.459  44.782  0.00  0.00    -0.081 C 
ATOM     23  C   UNL     1      86.973  55.647  43.786  0.00  0.00    -0.102 C 
ENDBRANCH  19  22
ENDBRANCH  15  19
ENDBRANCH   7   9
BRANCH   1  25
ATOM     24  C   UNL     1      87.544  49.728  43.905  0.00  0.00    -0.058 C 
ATOM     25  C   UNL     1      86.362  50.192  44.342  0.00  0.00    -0.077 C 
BRANCH  24  32
ATOM     26  C   UNL     1      86.035  45.025  42.981  0.00  0.00    -0.013 A 
ATOM     27  C   UNL     1      86.745  44.056  42.262  0.00  0.00    +0.007 A 
ATOM     28  N   UNL     1      87.937  44.540  41.850  0.00  0.00    -0.360 N 
ATOM     29  C   UNL     1      87.998  45.806  42.288  0.00  0.00    +0.047 A 
ATOM     30  C   UNL     1      86.863  46.146  42.975  0.00  0.00    +0.004 A 
ATOM     31  C   UNL     1      86.694  47.424  43.513  0.00  0.00    -0.045 A 
ATOM     32  C   UNL     1      87.732  48.368  43.348  0.00  0.00    -0.025 A 
ATOM     33  C   UNL     1      88.898  48.004  42.621  0.00  0.00    -0.053 A 
ATOM     34  C   UNL     1      89.037  46.712  42.089  0.00  0.00    -0.037 A 
ATOM     35  H   UNL     1      88.624  44.059  41.333  0.00  0.00    +0.000 HD
BRANCH  26  36
ATOM     36  C   UNL     1      84.630  44.905  43.569  0.00  0.00    +0.010 C 
ATOM     37  C   UNL     1      84.133  43.459  43.349  0.00  0.00    -0.052 C 
ATOM     38  C   UNL     1      84.639  45.206  45.084  0.00  0.00    -0.052 C 
BRANCH  36  40
ATOM     39  C   UNL     1      82.978  46.811  43.544  0.00  0.00    -0.102 C 
ATOM     40  C   UNL     1      83.714  45.909  42.879  0.00  0.00    -0.081 C 
ENDBRANCH  36  40
ENDBRANCH  26  36
ENDBRANCH  24  32
ENDBRANCH   1  25
TORSDOF 7
ENDMDL
