MODEL 1
REMARK VINA RESULT:    -9.617      0.000      0.000
REMARK INTER + INTRA:         -14.394
REMARK INTER:                 -13.339
REMARK INTRA:                  -1.055
REMARK UNBOUND:                -0.842
REMARK  Name = 
REMARK  13 active torsions:
REMARK  status: ('A' for Active; 'I' for Inactive)
REMARK    1  A    between atoms: C_2  and  C_3
REMARK    2  A    between atoms: C_3  and  C_4
REMARK    3  A    between atoms: C_3  and  C_37
REMARK    4  A    between atoms: C_3  and  C_38
REMARK    5  A    between atoms: C_10  and  C_13
REMARK    6  A    between atoms: C_14  and  C_15
REMARK    7  A    between atoms: C_15  and  C_16
REMARK    8  A    between atoms: C_19  and  C_36
REMARK    9  A    between atoms: C_21  and  C_22
REMARK   10  A    between atoms: C_28  and  C_31
REMARK   11  A    between atoms: C_31  and  C_32
REMARK   12  A    between atoms: C_31  and  C_34
REMARK   13  A    between atoms: C_31  and  C_35
REMARK                            x       y       z     vdW  Elec       q    Type
REMARK                         _______ _______ _______ _____ _____    ______ ____
ROOT
ATOM      1  C   UNL     1      86.174  51.587  42.519  0.00  0.00    -0.003 C 
ATOM      2  C   UNL     1      84.792  51.512  43.211  0.00  0.00    -0.055 C 
ATOM      3  C   UNL     1      86.039  52.321  41.162  0.00  0.00    -0.040 C 
ATOM      4  C   UNL     1      87.386  52.432  40.427  0.00  0.00    -0.031 C 
ATOM      5  C   UNL     1      88.557  52.770  41.327  0.00  0.00    -0.076 C 
ATOM      6  C   UNL     1      88.492  52.655  42.671  0.00  0.00    -0.077 C 
ATOM      7  C   UNL     1      87.203  52.365  43.414  0.00  0.00    +0.011 C 
ATOM      8  C   UNL     1      89.869  53.143  40.695  0.00  0.00    -0.044 C 
ENDROOT
BRANCH   7   9
ATOM      9  C   UNL     1      86.660  53.654  44.028  0.00  0.00    -0.039 A 
ATOM     10  C   UNL     1      86.801  54.877  43.320  0.00  0.00    -0.056 A 
ATOM     11  C   UNL     1      86.332  56.085  43.865  0.00  0.00    -0.038 A 
ATOM     12  C   UNL     1      85.723  56.046  45.116  0.00  0.00    +0.047 A 
ATOM     13  C   UNL     1      85.577  54.876  45.812  0.00  0.00    +0.004 A 
ATOM     14  C   UNL     1      86.038  53.663  45.300  0.00  0.00    -0.049 A 
ATOM     15  C   UNL     1      84.943  55.187  47.009  0.00  0.00    -0.013 A 
ATOM     16  C   UNL     1      84.757  56.572  46.965  0.00  0.00    +0.007 A 
ATOM     17  N   UNL     1      85.228  57.084  45.807  0.00  0.00    -0.360 N 
ATOM     18  H   UNL     1      85.211  58.027  45.526  0.00  0.00    +0.000 HD
BRANCH  15  19
ATOM     19  C   UNL     1      84.611  54.239  48.160  0.00  0.00    +0.010 C 
ATOM     20  C   UNL     1      84.043  55.069  49.330  0.00  0.00    -0.052 C 
ATOM     21  C   UNL     1      83.552  53.194  47.747  0.00  0.00    -0.052 C 
BRANCH  19  22
ATOM     22  C   UNL     1      85.862  53.505  48.620  0.00  0.00    -0.081 C 
ATOM     23  C   UNL     1      85.906  52.174  48.758  0.00  0.00    -0.102 C 
ENDBRANCH  19  22
ENDBRANCH  15  19
ENDBRANCH   7   9
BRANCH   1  25
ATOM     24  C   UNL     1      87.712  49.637  42.989  0.00  0.00    -0.058 C 
ATOM     25  C   UNL     1      86.688  50.163  42.299  0.00  0.00    -0.077 C 
BRANCH  24  32
ATOM     26  C   UNL     1      87.124  44.646  42.965  0.00  0.00    -0.013 A 
ATOM     27  C   UNL     1      88.092  43.702  42.602  0.00  0.00    +0.007 A 
ATOM     28  N   UNL     1      89.253  44.307  42.270  0.00  0.00    -0.360 N 
ATOM     29  C   UNL     1      89.041  45.624  42.408  0.00  0.00    +0.047 A 
ATOM     30  C   UNL     1      87.760  45.877  42.822  0.00  0.00    +0.004 A 
ATOM     31  C   UNL     1      87.305  47.183  43.019  0.00  0.00    -0.045 A 
ATOM     32  C   UNL     1      88.202  48.251  42.795  0.00  0.00    -0.025 A 
ATOM     33  C   UNL     1      89.523  47.973  42.352  0.00  0.00    -0.053 A 
ATOM     34  C   UNL     1      89.950  46.649  42.160  0.00  0.00    -0.037 A 
ATOM     35  H   UNL     1      90.088  43.869  41.985  0.00  0.00    +0.000 HD
BRANCH  26  36
ATOM     36  C   UNL     1      85.668  44.386  43.352  0.00  0.00    +0.010 C 
ATOM     37  C   UNL     1      84.843  44.222  42.057  0.00  0.00    -0.052 C 
ATOM     38  C   UNL     1      85.543  43.096  44.193  0.00  0.00    -0.052 C 
BRANCH  36  40
ATOM     39  C   UNL     1      83.988  46.172  43.945  0.00  0.00    -0.102 C 
ATOM     40  C   UNL     1      85.156  45.558  44.181  0.00  0.00    -0.081 C 
ENDBRANCH  36  40
ENDBRANCH  26  36
ENDBRANCH  24  32
ENDBRANCH   1  25
TORSDOF 7
ENDMDL
MODEL 2
REMARK VINA RESULT:    -9.568      2.151      4.513
REMARK INTER + INTRA:         -14.325
REMARK INTER:                 -13.522
REMARK INTRA:                  -0.803
REMARK UNBOUND:                -0.842
REMARK  Name = 
REMARK  13 active torsions:
REMARK  status: ('A' for Active; 'I' for Inactive)
REMARK    1  A    between atoms: C_2  and  C_3
REMARK    2  A    between atoms: C_3  and  C_4
REMARK    3  A    between atoms: C_3  and  C_37
REMARK    4  A    between atoms: C_3  and  C_38
REMARK    5  A    between atoms: C_10  and  C_13
REMARK    6  A    between atoms: C_14  and  C_15
REMARK    7  A    between atoms: C_15  and  C_16
REMARK    8  A    between atoms: C_19  and  C_36
REMARK    9  A    between atoms: C_21  and  C_22
REMARK   10  A    between atoms: C_28  and  C_31
REMARK   11  A    between atoms: C_31  and  C_32
REMARK   12  A    between atoms: C_31  and  C_34
REMARK   13  A    between atoms: C_31  and  C_35
REMARK                            x       y       z     vdW  Elec       q    Type
REMARK                         _______ _______ _______ _____ _____    ______ ____
ROOT
ATOM      1  C   UNL     1      85.262  51.495  44.666  0.00  0.00    -0.003 C 
ATOM      2  C   UNL     1      84.295  52.270  43.738  0.00  0.00    -0.055 C 
ATOM      3  C   UNL     1      86.717  51.960  44.407  0.00  0.00    -0.040 C 
ATOM      4  C   UNL     1      87.727  51.226  45.306  0.00  0.00    -0.031 C 
ATOM      5  C   UNL     1      87.262  51.039  46.737  0.00  0.00    -0.076 C 
ATOM      6  C   UNL     1      85.973  51.195  47.103  0.00  0.00    -0.077 C 
ATOM      7  C   UNL     1      84.911  51.750  46.175  0.00  0.00    +0.011 C 
ATOM      8  C   UNL     1      88.254  50.560  47.760  0.00  0.00    -0.044 C 
ENDROOT
BRANCH   7   9
ATOM      9  C   UNL     1      84.633  53.211  46.522  0.00  0.00    -0.039 A 
ATOM     10  C   UNL     1      83.913  53.522  47.706  0.00  0.00    -0.056 A 
ATOM     11  C   UNL     1      83.621  54.854  48.045  0.00  0.00    -0.038 A 
ATOM     12  C   UNL     1      84.063  55.859  47.189  0.00  0.00    +0.047 A 
ATOM     13  C   UNL     1      84.760  55.579  46.045  0.00  0.00    +0.004 A 
ATOM     14  C   UNL     1      85.059  54.266  45.678  0.00  0.00    -0.049 A 
ATOM     15  C   UNL     1      85.040  56.791  45.426  0.00  0.00    -0.013 A 
ATOM     16  C   UNL     1      84.459  57.757  46.255  0.00  0.00    +0.007 A 
ATOM     17  N   UNL     1      83.874  57.180  47.328  0.00  0.00    -0.360 N 
ATOM     18  H   UNL     1      83.404  57.637  48.062  0.00  0.00    +0.000 HD
BRANCH  15  19
ATOM     19  C   UNL     1      85.742  57.015  44.088  0.00  0.00    +0.010 C 
ATOM     20  C   UNL     1      86.228  58.477  44.027  0.00  0.00    -0.052 C 
ATOM     21  C   UNL     1      86.968  56.088  43.930  0.00  0.00    -0.052 C 
BRANCH  19  22
ATOM     22  C   UNL     1      84.784  56.750  42.936  0.00  0.00    -0.081 C 
ATOM     23  C   UNL     1      84.780  55.599  42.252  0.00  0.00    -0.102 C 
ENDBRANCH  19  22
ENDBRANCH  15  19
ENDBRANCH   7   9
BRANCH   1  25
ATOM     24  C   UNL     1      83.971  49.427  43.999  0.00  0.00    -0.058 C 
ATOM     25  C   UNL     1      85.127  50.000  44.371  0.00  0.00    -0.077 C 
BRANCH  24  32
ATOM     26  C   UNL     1      85.834  44.912  42.819  0.00  0.00    -0.013 A 
ATOM     27  C   UNL     1      85.102  43.728  42.677  0.00  0.00    +0.007 A 
ATOM     28  N   UNL     1      83.784  43.950  42.876  0.00  0.00    -0.360 N 
ATOM     29  C   UNL     1      83.663  45.257  43.151  0.00  0.00    +0.047 A 
ATOM     30  C   UNL     1      84.883  45.880  43.133  0.00  0.00    +0.004 A 
ATOM     31  C   UNL     1      85.005  47.245  43.408  0.00  0.00    -0.045 A 
ATOM     32  C   UNL     1      83.836  47.983  43.693  0.00  0.00    -0.025 A 
ATOM     33  C   UNL     1      82.580  47.319  43.721  0.00  0.00    -0.053 A 
ATOM     34  C   UNL     1      82.489  45.946  43.444  0.00  0.00    -0.037 A 
ATOM     35  H   UNL     1      83.059  43.286  42.828  0.00  0.00    +0.000 HD
BRANCH  26  36
ATOM     36  C   UNL     1      87.350  45.086  42.730  0.00  0.00    +0.010 C 
ATOM     37  C   UNL     1      87.861  44.291  41.509  0.00  0.00    -0.052 C 
ATOM     38  C   UNL     1      87.724  46.574  42.550  0.00  0.00    -0.052 C 
BRANCH  36  40
ATOM     39  C   UNL     1      88.561  43.372  44.129  0.00  0.00    -0.102 C 
ATOM     40  C   UNL     1      87.986  44.578  44.019  0.00  0.00    -0.081 C 
ENDBRANCH  36  40
ENDBRANCH  26  36
ENDBRANCH  24  32
ENDBRANCH   1  25
TORSDOF 7
ENDMDL
MODEL 3
REMARK VINA RESULT:    -9.565      1.434      3.944
REMARK INTER + INTRA:         -14.321
REMARK INTER:                 -13.013
REMARK INTRA:                  -1.307
REMARK UNBOUND:                -0.842
REMARK  Name = 
REMARK  13 active torsions:
REMARK  status: ('A' for Active; 'I' for Inactive)
REMARK    1  A    between atoms: C_2  and  C_3
REMARK    2  A    between atoms: C_3  and  C_4
REMARK    3  A    between atoms: C_3  and  C_37
REMARK    4  A    between atoms: C_3  and  C_38
REMARK    5  A    between atoms: C_10  and  C_13
REMARK    6  A    between atoms: C_14  and  C_15
REMARK    7  A    between atoms: C_15  and  C_16
REMARK    8  A    between atoms: C_19  and  C_36
REMARK    9  A    between atoms: C_21  and  C_22
REMARK   10  A    between atoms: C_28  and  C_31
REMARK   11  A    between atoms: C_31  and  C_32
REMARK   12  A    between atoms: C_31  and  C_34
REMARK   13  A    between atoms: C_31  and  C_35
REMARK                            x       y       z     vdW  Elec       q    Type
REMARK                         _______ _______ _______ _____ _____    ______ ____
ROOT
ATOM      1  C   UNL     1      84.773  50.908  43.990  0.00  0.00    -0.003 C 
ATOM      2  C   UNL     1      83.423  50.658  44.704  0.00  0.00    -0.055 C 
ATOM      3  C   UNL     1      84.540  51.765  42.720  0.00  0.00    -0.040 C 
ATOM      4  C   UNL     1      85.850  52.052  41.967  0.00  0.00    -0.031 C 
ATOM      5  C   UNL     1      87.022  52.385  42.869  0.00  0.00    -0.076 C 
ATOM      6  C   UNL     1      87.010  52.129  44.194  0.00  0.00    -0.077 C 
ATOM      7  C   UNL     1      85.771  51.668  44.935  0.00  0.00    +0.011 C 
ATOM      8  C   UNL     1      88.282  52.921  42.246  0.00  0.00    -0.044 C 
ENDROOT
BRANCH   7   9
ATOM      9  C   UNL     1      85.155  52.842  45.693  0.00  0.00    -0.039 A 
ATOM     10  C   UNL     1      84.459  52.600  46.908  0.00  0.00    -0.056 A 
ATOM     11  C   UNL     1      83.862  53.654  47.620  0.00  0.00    -0.038 A 
ATOM     12  C   UNL     1      83.975  54.941  47.103  0.00  0.00    +0.047 A 
ATOM     13  C   UNL     1      84.643  55.194  45.934  0.00  0.00    +0.004 A 
ATOM     14  C   UNL     1      85.240  54.167  45.202  0.00  0.00    -0.049 A 
ATOM     15  C   UNL     1      84.563  56.561  45.703  0.00  0.00    -0.013 A 
ATOM     16  C   UNL     1      83.812  57.061  46.772  0.00  0.00    +0.007 A 
ATOM     17  N   UNL     1      83.466  56.069  47.621  0.00  0.00    -0.360 N 
ATOM     18  H   UNL     1      82.945  56.155  48.452  0.00  0.00    +0.000 HD
BRANCH  15  19
ATOM     19  C   UNL     1      85.094  57.335  44.497  0.00  0.00    +0.010 C 
ATOM     20  C   UNL     1      85.019  58.842  44.810  0.00  0.00    -0.052 C 
ATOM     21  C   UNL     1      86.565  56.973  44.194  0.00  0.00    -0.052 C 
BRANCH  19  22
ATOM     22  C   UNL     1      84.257  57.031  43.262  0.00  0.00    -0.081 C 
ATOM     23  C   UNL     1      84.599  56.090  42.374  0.00  0.00    -0.102 C 
ENDBRANCH  19  22
ENDBRANCH  15  19
ENDBRANCH   7   9
BRANCH   1  25
ATOM     24  C   UNL     1      84.727  48.394  43.744  0.00  0.00    -0.058 C 
ATOM     25  C   UNL     1      85.382  49.558  43.610  0.00  0.00    -0.077 C 
BRANCH  24  32
ATOM     26  C   UNL     1      88.525  45.408  42.362  0.00  0.00    -0.013 A 
ATOM     27  C   UNL     1      88.453  44.027  42.144  0.00  0.00    +0.007 A 
ATOM     28  N   UNL     1      87.194  43.576  42.330  0.00  0.00    -0.360 N 
ATOM     29  C   UNL     1      86.460  44.645  42.672  0.00  0.00    +0.047 A 
ATOM     30  C   UNL     1      87.228  45.779  42.709  0.00  0.00    +0.004 A 
ATOM     31  C   UNL     1      86.680  47.016  43.058  0.00  0.00    -0.045 A 
ATOM     32  C   UNL     1      85.302  47.083  43.359  0.00  0.00    -0.025 A 
ATOM     33  C   UNL     1      84.522  45.895  43.329  0.00  0.00    -0.053 A 
ATOM     34  C   UNL     1      85.102  44.666  42.979  0.00  0.00    -0.037 A 
ATOM     35  H   UNL     1      86.878  42.648  42.233  0.00  0.00    +0.000 HD
BRANCH  26  36
ATOM     36  C   UNL     1      89.768  46.296  42.311  0.00  0.00    +0.010 C 
ATOM     37  C   UNL     1      90.707  45.884  43.466  0.00  0.00    -0.052 C 
ATOM     38  C   UNL     1      90.517  46.119  40.971  0.00  0.00    -0.052 C 
BRANCH  36  40
ATOM     39  C   UNL     1      90.142  48.783  42.124  0.00  0.00    -0.102 C 
ATOM     40  C   UNL     1      89.345  47.754  42.443  0.00  0.00    -0.081 C 
ENDBRANCH  36  40
ENDBRANCH  26  36
ENDBRANCH  24  32
ENDBRANCH   1  25
TORSDOF 7
ENDMDL
MODEL 4
REMARK VINA RESULT:    -9.542      1.620      9.891
REMARK INTER + INTRA:         -14.289
REMARK INTER:                 -12.634
REMARK INTRA:                  -1.655
REMARK UNBOUND:                -0.842
REMARK  Name = 
REMARK  13 active torsions:
REMARK  status: ('A' for Active; 'I' for Inactive)
REMARK    1  A    between atoms: C_2  and  C_3
REMARK    2  A    between atoms: C_3  and  C_4
REMARK    3  A    between atoms: C_3  and  C_37
REMARK    4  A    between atoms: C_3  and  C_38
REMARK    5  A    between atoms: C_10  and  C_13
REMARK    6  A    between atoms: C_14  and  C_15
REMARK    7  A    between atoms: C_15  and  C_16
REMARK    8  A    between atoms: C_19  and  C_36
REMARK    9  A    between atoms: C_21  and  C_22
REMARK   10  A    between atoms: C_28  and  C_31
REMARK   11  A    between atoms: C_31  and  C_32
REMARK   12  A    between atoms: C_31  and  C_34
REMARK   13  A    between atoms: C_31  and  C_35
REMARK                            x       y       z     vdW  Elec       q    Type
REMARK                         _______ _______ _______ _____ _____    ______ ____
ROOT
ATOM      1  C   UNL     1      86.503  50.432  44.735  0.00  0.00    -0.003 C 
ATOM      2  C   UNL     1      86.358  49.492  45.956  0.00  0.00    -0.055 C 
ATOM      3  C   UNL     1      88.004  50.665  44.432  0.00  0.00    -0.040 C 
ATOM      4  C   UNL     1      88.213  51.591  43.222  0.00  0.00    -0.031 C 
ATOM      5  C   UNL     1      87.267  51.326  42.068  0.00  0.00    -0.076 C 
ATOM      6  C   UNL     1      86.145  50.589  42.209  0.00  0.00    -0.077 C 
ATOM      7  C   UNL     1      85.822  49.806  43.466  0.00  0.00    +0.011 C 
ATOM      8  C   UNL     1      87.532  51.996  40.748  0.00  0.00    -0.044 C 
ENDROOT
BRANCH   7   9
ATOM      9  C   UNL     1      86.132  48.327  43.247  0.00  0.00    -0.039 A 
ATOM     10  C   UNL     1      85.106  47.363  43.440  0.00  0.00    -0.056 A 
ATOM     11  C   UNL     1      85.361  45.993  43.269  0.00  0.00    -0.038 A 
ATOM     12  C   UNL     1      86.646  45.607  42.900  0.00  0.00    +0.047 A 
ATOM     13  C   UNL     1      87.647  46.521  42.707  0.00  0.00    +0.004 A 
ATOM     14  C   UNL     1      87.426  47.888  42.877  0.00  0.00    -0.049 A 
ATOM     15  C   UNL     1      88.790  45.812  42.357  0.00  0.00    -0.013 A 
ATOM     16  C   UNL     1      88.397  44.469  42.379  0.00  0.00    +0.007 A 
ATOM     17  N   UNL     1      87.090  44.356  42.703  0.00  0.00    -0.360 N 
ATOM     18  H   UNL     1      86.569  43.525  42.779  0.00  0.00    +0.000 HD
BRANCH  15  19
ATOM     19  C   UNL     1      90.189  46.368  42.100  0.00  0.00    +0.010 C 
ATOM     20  C   UNL     1      90.881  46.602  43.458  0.00  0.00    -0.052 C 
ATOM     21  C   UNL     1      91.050  45.381  41.280  0.00  0.00    -0.052 C 
BRANCH  19  22
ATOM     22  C   UNL     1      90.106  47.684  41.340  0.00  0.00    -0.081 C 
ATOM     23  C   UNL     1      90.735  48.793  41.749  0.00  0.00    -0.102 C 
ENDBRANCH  19  22
ENDBRANCH  15  19
ENDBRANCH   7   9
BRANCH   1  25
ATOM     24  C   UNL     1      85.448  52.112  46.301  0.00  0.00    -0.058 C 
ATOM     25  C   UNL     1      85.819  51.762  45.059  0.00  0.00    -0.077 C 
BRANCH  24  32
ATOM     26  C   UNL     1      84.608  57.008  45.540  0.00  0.00    -0.013 A 
ATOM     27  C   UNL     1      83.724  57.816  46.263  0.00  0.00    +0.007 A 
ATOM     28  N   UNL     1      83.118  57.110  47.243  0.00  0.00    -0.360 N 
ATOM     29  C   UNL     1      83.595  55.860  47.152  0.00  0.00    +0.047 A 
ATOM     30  C   UNL     1      84.498  55.750  46.128  0.00  0.00    +0.004 A 
ATOM     31  C   UNL     1      85.116  54.532  45.833  0.00  0.00    -0.045 A 
ATOM     32  C   UNL     1      84.803  53.406  46.626  0.00  0.00    -0.025 A 
ATOM     33  C   UNL     1      83.853  53.534  47.676  0.00  0.00    -0.053 A 
ATOM     34  C   UNL     1      83.246  54.771  47.946  0.00  0.00    -0.037 A 
ATOM     35  H   UNL     1      82.459  57.447  47.894  0.00  0.00    +0.000 HD
BRANCH  26  36
ATOM     36  C   UNL     1      85.444  57.399  44.322  0.00  0.00    +0.010 C 
ATOM     37  C   UNL     1      85.886  58.870  44.488  0.00  0.00    -0.052 C 
ATOM     38  C   UNL     1      86.701  56.509  44.207  0.00  0.00    -0.052 C 
BRANCH  36  40
ATOM     39  C   UNL     1      84.478  56.048  42.423  0.00  0.00    -0.102 C 
ATOM     40  C   UNL     1      84.604  57.220  43.062  0.00  0.00    -0.081 C 
ENDBRANCH  36  40
ENDBRANCH  26  36
ENDBRANCH  24  32
ENDBRANCH   1  25
TORSDOF 7
ENDMDL
MODEL 5
REMARK VINA RESULT:    -9.536      1.282      9.604
REMARK INTER + INTRA:         -14.280
REMARK INTER:                 -13.170
REMARK INTRA:                  -1.110
REMARK UNBOUND:                -0.842
REMARK  Name = 
REMARK  13 active torsions:
REMARK  status: ('A' for Active; 'I' for Inactive)
REMARK    1  A    between atoms: C_2  and  C_3
REMARK    2  A    between atoms: C_3  and  C_4
REMARK    3  A    between atoms: C_3  and  C_37
REMARK    4  A    between atoms: C_3  and  C_38
REMARK    5  A    between atoms: C_10  and  C_13
REMARK    6  A    between atoms: C_14  and  C_15
REMARK    7  A    between atoms: C_15  and  C_16
REMARK    8  A    between atoms: C_19  and  C_36
REMARK    9  A    between atoms: C_21  and  C_22
REMARK   10  A    between atoms: C_28  and  C_31
REMARK   11  A    between atoms: C_31  and  C_32
REMARK   12  A    between atoms: C_31  and  C_34
REMARK   13  A    between atoms: C_31  and  C_35
REMARK                            x       y       z     vdW  Elec       q    Type
REMARK                         _______ _______ _______ _____ _____    ______ ____
ROOT
ATOM      1  C   UNL     1      87.732  50.836  44.062  0.00  0.00    -0.003 C 
ATOM      2  C   UNL     1      88.159  49.954  45.261  0.00  0.00    -0.055 C 
ATOM      3  C   UNL     1      88.990  51.380  43.340  0.00  0.00    -0.040 C 
ATOM      4  C   UNL     1      88.629  52.262  42.133  0.00  0.00    -0.031 C 
ATOM      5  C   UNL     1      87.479  51.732  41.299  0.00  0.00    -0.076 C 
ATOM      6  C   UNL     1      86.643  50.773  41.750  0.00  0.00    -0.077 C 
ATOM      7  C   UNL     1      86.880  50.007  43.037  0.00  0.00    +0.011 C 
ATOM      8  C   UNL     1      87.198  52.371  39.968  0.00  0.00    -0.044 C 
ENDROOT
BRANCH   7   9
ATOM      9  C   UNL     1      87.443  48.624  42.718  0.00  0.00    -0.039 A 
ATOM     10  C   UNL     1      88.727  48.513  42.121  0.00  0.00    -0.056 A 
ATOM     11  C   UNL     1      89.266  47.258  41.795  0.00  0.00    -0.038 A 
ATOM     12  C   UNL     1      88.508  46.126  42.077  0.00  0.00    +0.047 A 
ATOM     13  C   UNL     1      87.269  46.212  42.654  0.00  0.00    +0.004 A 
ATOM     14  C   UNL     1      86.704  47.445  42.983  0.00  0.00    -0.049 A 
ATOM     15  C   UNL     1      86.789  44.915  42.792  0.00  0.00    -0.013 A 
ATOM     16  C   UNL     1      87.793  44.104  42.255  0.00  0.00    +0.007 A 
ATOM     17  N   UNL     1      88.837  44.849  41.831  0.00  0.00    -0.360 N 
ATOM     18  H   UNL     1      89.671  44.521  41.423  0.00  0.00    +0.000 HD
BRANCH  15  19
ATOM     19  C   UNL     1      85.424  44.479  43.323  0.00  0.00    +0.010 C 
ATOM     20  C   UNL     1      84.482  44.250  42.124  0.00  0.00    -0.052 C 
ATOM     21  C   UNL     1      85.522  43.161  44.123  0.00  0.00    -0.052 C 
BRANCH  19  22
ATOM     22  C   UNL     1      84.839  45.553  44.229  0.00  0.00    -0.081 C 
ATOM     23  C   UNL     1      83.619  46.071  44.038  0.00  0.00    -0.102 C 
ENDBRANCH  19  22
ENDBRANCH  15  19
ENDBRANCH   7   9
BRANCH   1  25
ATOM     24  C   UNL     1      86.202  51.941  45.743  0.00  0.00    -0.058 C 
ATOM     25  C   UNL     1      86.884  51.996  44.588  0.00  0.00    -0.077 C 
BRANCH  24  32
ATOM     26  C   UNL     1      84.573  56.694  45.670  0.00  0.00    -0.013 A 
ATOM     27  C   UNL     1      83.634  57.259  46.541  0.00  0.00    +0.007 A 
ATOM     28  N   UNL     1      83.219  56.354  47.454  0.00  0.00    -0.360 N 
ATOM     29  C   UNL     1      83.872  55.216  47.175  0.00  0.00    +0.047 A 
ATOM     30  C   UNL     1      84.700  55.374  46.096  0.00  0.00    +0.004 A 
ATOM     31  C   UNL     1      85.472  54.315  45.611  0.00  0.00    -0.045 A 
ATOM     32  C   UNL     1      85.395  53.068  46.269  0.00  0.00    -0.025 A 
ATOM     33  C   UNL     1      84.519  52.916  47.378  0.00  0.00    -0.053 A 
ATOM     34  C   UNL     1      83.754  53.999  47.840  0.00  0.00    -0.037 A 
ATOM     35  H   UNL     1      82.568  56.500  48.179  0.00  0.00    +0.000 HD
BRANCH  26  36
ATOM     36  C   UNL     1      85.244  57.357  44.468  0.00  0.00    +0.010 C 
ATOM     37  C   UNL     1      85.347  58.873  44.742  0.00  0.00    -0.052 C 
ATOM     38  C   UNL     1      86.665  56.790  44.249  0.00  0.00    -0.052 C 
BRANCH  36  40
ATOM     39  C   UNL     1      84.612  56.024  42.422  0.00  0.00    -0.102 C 
ATOM     40  C   UNL     1      84.414  57.083  43.219  0.00  0.00    -0.081 C 
ENDBRANCH  36  40
ENDBRANCH  26  36
ENDBRANCH  24  32
ENDBRANCH   1  25
TORSDOF 7
ENDMDL
MODEL 6
REMARK VINA RESULT:    -9.288      1.499      2.821
REMARK INTER + INTRA:         -13.930
REMARK INTER:                 -12.347
REMARK INTRA:                  -1.583
REMARK UNBOUND:                -0.842
REMARK  Name = 
REMARK  13 active torsions:
REMARK  status: ('A' for Active; 'I' for Inactive)
REMARK    1  A    between atoms: C_2  and  C_3
REMARK    2  A    between atoms: C_3  and  C_4
REMARK    3  A    between atoms: C_3  and  C_37
REMARK    4  A    between atoms: C_3  and  C_38
REMARK    5  A    between atoms: C_10  and  C_13
REMARK    6  A    between atoms: C_14  and  C_15
REMARK    7  A    between atoms: C_15  and  C_16
REMARK    8  A    between atoms: C_19  and  C_36
REMARK    9  A    between atoms: C_21  and  C_22
REMARK   10  A    between atoms: C_28  and  C_31
REMARK   11  A    between atoms: C_31  and  C_32
REMARK   12  A    between atoms: C_31  and  C_34
REMARK   13  A    between atoms: C_31  and  C_35
REMARK                            x       y       z     vdW  Elec       q    Type
REMARK                         _______ _______ _______ _____ _____    ______ ____
ROOT
ATOM      1  C   UNL     1      87.189  51.384  43.055  0.00  0.00    -0.003 C 
ATOM      2  C   UNL     1      87.542  51.949  41.658  0.00  0.00    -0.055 C 
ATOM      3  C   UNL     1      88.163  51.961  44.113  0.00  0.00    -0.040 C 
ATOM      4  C   UNL     1      87.859  51.437  45.527  0.00  0.00    -0.031 C 
ATOM      5  C   UNL     1      86.380  51.366  45.856  0.00  0.00    -0.076 C 
ATOM      6  C   UNL     1      85.425  51.432  44.905  0.00  0.00    -0.077 C 
ATOM      7  C   UNL     1      85.721  51.770  43.457  0.00  0.00    +0.011 C 
ATOM      8  C   UNL     1      85.970  51.107  47.279  0.00  0.00    -0.044 C 
ENDROOT
BRANCH   7   9
ATOM      9  C   UNL     1      85.351  53.226  43.181  0.00  0.00    -0.039 A 
ATOM     10  C   UNL     1      85.119  53.645  41.843  0.00  0.00    -0.056 A 
ATOM     11  C   UNL     1      84.798  54.981  41.551  0.00  0.00    -0.038 A 
ATOM     12  C   UNL     1      84.710  55.880  42.609  0.00  0.00    +0.047 A 
ATOM     13  C   UNL     1      84.928  55.495  43.905  0.00  0.00    +0.004 A 
ATOM     14  C   UNL     1      85.255  54.176  44.226  0.00  0.00    -0.049 A 
ATOM     15  C   UNL     1      84.769  56.622  44.702  0.00  0.00    -0.013 A 
ATOM     16  C   UNL     1      84.474  57.654  43.805  0.00  0.00    +0.007 A 
ATOM     17  N   UNL     1      84.432  57.191  42.536  0.00  0.00    -0.360 N 
ATOM     18  H   UNL     1      84.239  57.710  41.723  0.00  0.00    +0.000 HD
BRANCH  15  19
ATOM     19  C   UNL     1      84.969  56.731  46.212  0.00  0.00    +0.010 C 
ATOM     20  C   UNL     1      85.254  58.204  46.564  0.00  0.00    -0.052 C 
ATOM     21  C   UNL     1      83.710  56.281  46.985  0.00  0.00    -0.052 C 
BRANCH  19  22
ATOM     22  C   UNL     1      86.143  55.868  46.655  0.00  0.00    -0.081 C 
ATOM     23  C   UNL     1      86.057  55.004  47.674  0.00  0.00    -0.102 C 
ENDBRANCH  19  22
ENDBRANCH  15  19
ENDBRANCH   7   9
BRANCH   1  25
ATOM     24  C   UNL     1      88.411  49.220  42.595  0.00  0.00    -0.058 C 
ATOM     25  C   UNL     1      87.305  49.859  43.008  0.00  0.00    -0.077 C 
BRANCH  24  32
ATOM     26  C   UNL     1      86.561  44.562  42.954  0.00  0.00    -0.013 A 
ATOM     27  C   UNL     1      87.273  43.373  42.759  0.00  0.00    +0.007 A 
ATOM     28  N   UNL     1      88.569  43.629  42.477  0.00  0.00    -0.360 N 
ATOM     29  C   UNL     1      88.695  44.965  42.482  0.00  0.00    +0.047 A 
ATOM     30  C   UNL     1      87.500  45.572  42.760  0.00  0.00    +0.004 A 
ATOM     31  C   UNL     1      87.386  46.964  42.803  0.00  0.00    -0.045 A 
ATOM     32  C   UNL     1      88.539  47.744  42.566  0.00  0.00    -0.025 A 
ATOM     33  C   UNL     1      89.769  47.098  42.264  0.00  0.00    -0.053 A 
ATOM     34  C   UNL     1      89.851  45.697  42.225  0.00  0.00    -0.037 A 
ATOM     35  H   UNL     1      89.279  42.968  42.305  0.00  0.00    +0.000 HD
BRANCH  26  36
ATOM     36  C   UNL     1      85.066  44.718  43.234  0.00  0.00    +0.010 C 
ATOM     37  C   UNL     1      84.410  43.322  43.161  0.00  0.00    -0.052 C 
ATOM     38  C   UNL     1      84.828  45.310  44.641  0.00  0.00    -0.052 C 
BRANCH  36  40
ATOM     39  C   UNL     1      83.459  46.508  42.475  0.00  0.00    -0.102 C 
ATOM     40  C   UNL     1      84.461  45.661  42.200  0.00  0.00    -0.081 C 
ENDBRANCH  36  40
ENDBRANCH  26  36
ENDBRANCH  24  32
ENDBRANCH   1  25
TORSDOF 7
ENDMDL
MODEL 7
REMARK VINA RESULT:    -8.719      2.017     10.006
REMARK INTER + INTRA:         -13.129
REMARK INTER:                 -12.140
REMARK INTRA:                  -0.989
REMARK UNBOUND:                -0.842
REMARK  Name = 
REMARK  13 active torsions:
REMARK  status: ('A' for Active; 'I' for Inactive)
REMARK    1  A    between atoms: C_2  and  C_3
REMARK    2  A    between atoms: C_3  and  C_4
REMARK    3  A    between atoms: C_3  and  C_37
REMARK    4  A    between atoms: C_3  and  C_38
REMARK    5  A    between atoms: C_10  and  C_13
REMARK    6  A    between atoms: C_14  and  C_15
REMARK    7  A    between atoms: C_15  and  C_16
REMARK    8  A    between atoms: C_19  and  C_36
REMARK    9  A    between atoms: C_21  and  C_22
REMARK   10  A    between atoms: C_28  and  C_31
REMARK   11  A    between atoms: C_31  and  C_32
REMARK   12  A    between atoms: C_31  and  C_34
REMARK   13  A    between atoms: C_31  and  C_35
REMARK                            x       y       z     vdW  Elec       q    Type
REMARK                         _______ _______ _______ _____ _____    ______ ____
ROOT
ATOM      1  C   UNL     1      84.427  50.301  43.166  0.00  0.00    -0.003 C 
ATOM      2  C   UNL     1      85.927  50.248  42.789  0.00  0.00    -0.055 C 
ATOM      3  C   UNL     1      83.565  50.273  41.879  0.00  0.00    -0.040 C 
ATOM      4  C   UNL     1      82.059  50.320  42.190  0.00  0.00    -0.031 C 
ATOM      5  C   UNL     1      81.643  49.461  43.368  0.00  0.00    -0.076 C 
ATOM      6  C   UNL     1      82.534  48.974  44.257  0.00  0.00    -0.077 C 
ATOM      7  C   UNL     1      84.034  49.074  44.063  0.00  0.00    +0.011 C 
ATOM      8  C   UNL     1      80.177  49.233  43.613  0.00  0.00    -0.044 C 
ENDROOT
BRANCH   7   9
ATOM      9  C   UNL     1      84.584  47.734  43.579  0.00  0.00    -0.039 A 
ATOM     10  C   UNL     1      83.727  46.602  43.539  0.00  0.00    -0.056 A 
ATOM     11  C   UNL     1      84.205  45.349  43.119  0.00  0.00    -0.038 A 
ATOM     12  C   UNL     1      85.540  45.251  42.741  0.00  0.00    +0.047 A 
ATOM     13  C   UNL     1      86.381  46.332  42.770  0.00  0.00    +0.004 A 
ATOM     14  C   UNL     1      85.937  47.587  43.189  0.00  0.00    -0.049 A 
ATOM     15  C   UNL     1      87.628  45.894  42.342  0.00  0.00    -0.013 A 
ATOM     16  C   UNL     1      87.460  44.529  42.089  0.00  0.00    +0.007 A 
ATOM     17  N   UNL     1      86.185  44.150  42.327  0.00  0.00    -0.360 N 
ATOM     18  H   UNL     1      85.806  43.247  42.220  0.00  0.00    +0.000 HD
BRANCH  15  19
ATOM     19  C   UNL     1      88.921  46.704  42.258  0.00  0.00    +0.010 C 
ATOM     20  C   UNL     1      90.114  45.741  42.426  0.00  0.00    -0.052 C 
ATOM     21  C   UNL     1      89.058  47.413  40.893  0.00  0.00    -0.052 C 
BRANCH  19  22
ATOM     22  C   UNL     1      88.960  47.756  43.357  0.00  0.00    -0.081 C 
ATOM     23  C   UNL     1      89.348  49.018  43.132  0.00  0.00    -0.102 C 
ENDBRANCH  19  22
ENDBRANCH  15  19
ENDBRANCH   7   9
BRANCH   1  25
ATOM     24  C   UNL     1      84.681  51.828  45.164  0.00  0.00    -0.058 C 
ATOM     25  C   UNL     1      84.166  51.590  43.947  0.00  0.00    -0.077 C 
BRANCH  24  32
ATOM     26  C   UNL     1      84.897  56.817  45.723  0.00  0.00    -0.013 A 
ATOM     27  C   UNL     1      84.407  57.548  46.811  0.00  0.00    +0.007 A 
ATOM     28  N   UNL     1      83.872  56.727  47.740  0.00  0.00    -0.360 N 
ATOM     29  C   UNL     1      84.005  55.482  47.260  0.00  0.00    +0.047 A 
ATOM     30  C   UNL     1      84.617  55.489  46.034  0.00  0.00    +0.004 A 
ATOM     31  C   UNL     1      84.848  54.303  45.332  0.00  0.00    -0.045 A 
ATOM     32  C   UNL     1      84.449  53.082  45.918  0.00  0.00    -0.025 A 
ATOM     33  C   UNL     1      83.803  53.094  47.184  0.00  0.00    -0.053 A 
ATOM     34  C   UNL     1      83.581  54.302  47.865  0.00  0.00    -0.037 A 
ATOM     35  H   UNL     1      83.466  56.990  48.599  0.00  0.00    +0.000 HD
BRANCH  26  36
ATOM     36  C   UNL     1      85.525  57.363  44.440  0.00  0.00    +0.010 C 
ATOM     37  C   UNL     1      85.912  58.839  44.678  0.00  0.00    -0.052 C 
ATOM     38  C   UNL     1      86.795  56.567  44.066  0.00  0.00    -0.052 C 
BRANCH  36  40
ATOM     39  C   UNL     1      84.513  56.214  42.436  0.00  0.00    -0.102 C 
ATOM     40  C   UNL     1      84.520  57.238  43.301  0.00  0.00    -0.081 C 
ENDBRANCH  36  40
ENDBRANCH  26  36
ENDBRANCH  24  32
ENDBRANCH   1  25
TORSDOF 7
ENDMDL
MODEL 8
REMARK VINA RESULT:    -8.660      1.671      2.934
REMARK INTER + INTRA:         -13.046
REMARK INTER:                 -12.386
REMARK INTRA:                  -0.659
REMARK UNBOUND:                -0.842
REMARK  Name = 
REMARK  13 active torsions:
REMARK  status: ('A' for Active; 'I' for Inactive)
REMARK    1  A    between atoms: C_2  and  C_3
REMARK    2  A    between atoms: C_3  and  C_4
REMARK    3  A    between atoms: C_3  and  C_37
REMARK    4  A    between atoms: C_3  and  C_38
REMARK    5  A    between atoms: C_10  and  C_13
REMARK    6  A    between atoms: C_14  and  C_15
REMARK    7  A    between atoms: C_15  and  C_16
REMARK    8  A    between atoms: C_19  and  C_36
REMARK    9  A    between atoms: C_21  and  C_22
REMARK   10  A    between atoms: C_28  and  C_31
REMARK   11  A    between atoms: C_31  and  C_32
REMARK   12  A    between atoms: C_31  and  C_34
REMARK   13  A    between atoms: C_31  and  C_35
REMARK                            x       y       z     vdW  Elec       q    Type
REMARK                         _______ _______ _______ _____ _____    ______ ____
ROOT
ATOM      1  C   UNL     1      85.617  51.432  44.050  0.00  0.00    -0.003 C 
ATOM      2  C   UNL     1      86.709  52.268  44.762  0.00  0.00    -0.055 C 
ATOM      3  C   UNL     1      84.374  51.310  44.966  0.00  0.00    -0.040 C 
ATOM      4  C   UNL     1      83.249  50.491  44.310  0.00  0.00    -0.031 C 
ATOM      5  C   UNL     1      83.046  50.788  42.837  0.00  0.00    -0.076 C 
ATOM      6  C   UNL     1      83.965  51.446  42.099  0.00  0.00    -0.077 C 
ATOM      7  C   UNL     1      85.186  52.112  42.702  0.00  0.00    +0.011 C 
ATOM      8  C   UNL     1      81.827  50.236  42.151  0.00  0.00    -0.044 C 
ENDROOT
BRANCH   7   9
ATOM      9  C   UNL     1      84.957  53.619  42.798  0.00  0.00    -0.039 A 
ATOM     10  C   UNL     1      84.629  54.352  41.626  0.00  0.00    -0.056 A 
ATOM     11  C   UNL     1      84.434  55.742  41.674  0.00  0.00    -0.038 A 
ATOM     12  C   UNL     1      84.567  56.380  42.903  0.00  0.00    +0.047 A 
ATOM     13  C   UNL     1      84.881  55.691  44.044  0.00  0.00    +0.004 A 
ATOM     14  C   UNL     1      85.088  54.311  44.027  0.00  0.00    -0.049 A 
ATOM     15  C   UNL     1      84.942  56.616  45.080  0.00  0.00    -0.013 A 
ATOM     16  C   UNL     1      84.670  57.847  44.474  0.00  0.00    +0.007 A 
ATOM     17  N   UNL     1      84.436  57.691  43.153  0.00  0.00    -0.360 N 
ATOM     18  H   UNL     1      84.214  58.398  42.504  0.00  0.00    +0.000 HD
BRANCH  15  19
ATOM     19  C   UNL     1      85.319  56.359  46.537  0.00  0.00    +0.010 C 
ATOM     20  C   UNL     1      86.561  55.445  46.569  0.00  0.00    -0.052 C 
ATOM     21  C   UNL     1      85.664  57.672  47.274  0.00  0.00    -0.052 C 
BRANCH  19  22
ATOM     22  C   UNL     1      84.171  55.679  47.270  0.00  0.00    -0.081 C 
ATOM     23  C   UNL     1      84.368  54.746  48.210  0.00  0.00    -0.102 C 
ENDBRANCH  19  22
ENDBRANCH  15  19
ENDBRANCH   7   9
BRANCH   1  25
ATOM     24  C   UNL     1      87.388  49.853  43.180  0.00  0.00    -0.058 C 
ATOM     25  C   UNL     1      86.186  50.045  43.745  0.00  0.00    -0.077 C 
BRANCH  24  32
ATOM     26  C   UNL     1      87.099  44.845  42.897  0.00  0.00    -0.013 A 
ATOM     27  C   UNL     1      88.111  43.982  42.461  0.00  0.00    +0.007 A 
ATOM     28  N   UNL     1      89.226  44.673  42.137  0.00  0.00    -0.360 N 
ATOM     29  C   UNL     1      88.939  45.966  42.351  0.00  0.00    +0.047 A 
ATOM     30  C   UNL     1      87.657  46.118  42.807  0.00  0.00    +0.004 A 
ATOM     31  C   UNL     1      87.130  47.382  43.085  0.00  0.00    -0.045 A 
ATOM     32  C   UNL     1      87.955  48.513  42.900  0.00  0.00    -0.025 A 
ATOM     33  C   UNL     1      89.279  48.339  42.412  0.00  0.00    -0.053 A 
ATOM     34  C   UNL     1      89.779  47.056  42.138  0.00  0.00    -0.037 A 
ATOM     35  H   UNL     1      90.078  44.303  41.810  0.00  0.00    +0.000 HD
BRANCH  26  36
ATOM     36  C   UNL     1      85.672  44.477  43.301  0.00  0.00    +0.010 C 
ATOM     37  C   UNL     1      84.852  44.226  42.017  0.00  0.00    -0.052 C 
ATOM     38  C   UNL     1      85.657  43.194  44.162  0.00  0.00    -0.052 C 
BRANCH  36  40
ATOM     39  C   UNL     1      83.844  46.106  43.908  0.00  0.00    -0.102 C 
ATOM     40  C   UNL     1      85.075  45.618  44.117  0.00  0.00    -0.081 C 
ENDBRANCH  36  40
ENDBRANCH  26  36
ENDBRANCH  24  32
ENDBRANCH   1  25
TORSDOF 7
ENDMDL
MODEL 9
REMARK VINA RESULT:    -8.009      1.924      3.838
REMARK INTER + INTRA:         -12.129
REMARK INTER:                 -11.287
REMARK INTRA:                  -0.842
REMARK UNBOUND:                -0.842
REMARK  Name = 
REMARK  13 active torsions:
REMARK  status: ('A' for Active; 'I' for Inactive)
REMARK    1  A    between atoms: C_2  and  C_3
REMARK    2  A    between atoms: C_3  and  C_4
REMARK    3  A    between atoms: C_3  and  C_37
REMARK    4  A    between atoms: C_3  and  C_38
REMARK    5  A    between atoms: C_10  and  C_13
REMARK    6  A    between atoms: C_14  and  C_15
REMARK    7  A    between atoms: C_15  and  C_16
REMARK    8  A    between atoms: C_19  and  C_36
REMARK    9  A    between atoms: C_21  and  C_22
REMARK   10  A    between atoms: C_28  and  C_31
REMARK   11  A    between atoms: C_31  and  C_32
REMARK   12  A    between atoms: C_31  and  C_34
REMARK   13  A    between atoms: C_31  and  C_35
REMARK                            x       y       z     vdW  Elec       q    Type
REMARK                         _______ _______ _______ _____ _____    ______ ____
ROOT
ATOM      1  C   UNL     1      86.442  51.093  43.391  0.00  0.00    -0.003 C 
ATOM      2  C   UNL     1      86.647  51.424  41.893  0.00  0.00    -0.055 C 
ATOM      3  C   UNL     1      87.676  51.560  44.202  0.00  0.00    -0.040 C 
ATOM      4  C   UNL     1      87.529  51.261  45.704  0.00  0.00    -0.031 C 
ATOM      5  C   UNL     1      86.144  51.534  46.257  0.00  0.00    -0.076 C 
ATOM      6  C   UNL     1      85.068  51.699  45.459  0.00  0.00    -0.077 C 
ATOM      7  C   UNL     1      85.166  51.816  43.952  0.00  0.00    +0.011 C 
ATOM      8  C   UNL     1      85.946  51.515  47.747  0.00  0.00    -0.044 C 
ENDROOT
BRANCH   7   9
ATOM      9  C   UNL     1      85.036  53.280  43.537  0.00  0.00    -0.039 A 
ATOM     10  C   UNL     1      84.970  53.612  42.158  0.00  0.00    -0.056 A 
ATOM     11  C   UNL     1      84.871  54.950  41.741  0.00  0.00    -0.038 A 
ATOM     12  C   UNL     1      84.836  55.940  42.718  0.00  0.00    +0.047 A 
ATOM     13  C   UNL     1      84.896  55.640  44.053  0.00  0.00    +0.004 A 
ATOM     14  C   UNL     1      85.001  54.321  44.497  0.00  0.00    -0.049 A 
ATOM     15  C   UNL     1      84.844  56.842  44.748  0.00  0.00    -0.013 A 
ATOM     16  C   UNL     1      84.772  57.825  43.755  0.00  0.00    +0.007 A 
ATOM     17  N   UNL     1      84.760  57.265  42.525  0.00  0.00    -0.360 N 
ATOM     18  H   UNL     1      84.706  57.735  41.662  0.00  0.00    +0.000 HD
BRANCH  15  19
ATOM     19  C   UNL     1      84.943  57.050  46.258  0.00  0.00    +0.010 C 
ATOM     20  C   UNL     1      85.105  58.558  46.535  0.00  0.00    -0.052 C 
ATOM     21  C   UNL     1      83.671  56.557  46.982  0.00  0.00    -0.052 C 
BRANCH  19  22
ATOM     22  C   UNL     1      86.142  56.299  46.819  0.00  0.00    -0.081 C 
ATOM     23  C   UNL     1      86.015  55.263  47.657  0.00  0.00    -0.102 C 
ENDBRANCH  19  22
ENDBRANCH  15  19
ENDBRANCH   7   9
BRANCH   1  25
ATOM     24  C   UNL     1      85.068  48.972  43.412  0.00  0.00    -0.058 C 
ATOM     25  C   UNL     1      86.258  49.581  43.535  0.00  0.00    -0.077 C 
BRANCH  24  32
ATOM     26  C   UNL     1      86.738  44.233  43.326  0.00  0.00    -0.013 A 
ATOM     27  C   UNL     1      85.982  43.086  43.595  0.00  0.00    +0.007 A 
ATOM     28  N   UNL     1      84.698  43.408  43.865  0.00  0.00    -0.360 N 
ATOM     29  C   UNL     1      84.622  44.744  43.781  0.00  0.00    +0.047 A 
ATOM     30  C   UNL     1      85.838  45.288  43.462  0.00  0.00    +0.004 A 
ATOM     31  C   UNL     1      86.006  46.670  43.336  0.00  0.00    -0.045 A 
ATOM     32  C   UNL     1      84.884  47.506  43.530  0.00  0.00    -0.025 A 
ATOM     33  C   UNL     1      83.633  46.927  43.874  0.00  0.00    -0.053 A 
ATOM     34  C   UNL     1      83.497  45.534  43.998  0.00  0.00    -0.037 A 
ATOM     35  H   UNL     1      83.965  42.786  44.079  0.00  0.00    +0.000 HD
BRANCH  26  36
ATOM     36  C   UNL     1      88.235  44.314  43.031  0.00  0.00    +0.010 C 
ATOM     37  C   UNL     1      88.606  43.160  42.075  0.00  0.00    -0.052 C 
ATOM     38  C   UNL     1      88.592  45.657  42.357  0.00  0.00    -0.052 C 
BRANCH  36  40
ATOM     39  C   UNL     1      89.062  43.086  45.073  0.00  0.00    -0.102 C 
ATOM     40  C   UNL     1      89.007  44.207  44.342  0.00  0.00    -0.081 C 
ENDBRANCH  36  40
ENDBRANCH  26  36
ENDBRANCH  24  32
ENDBRANCH   1  25
TORSDOF 7
ENDMDL
