MODEL 1
REMARK VINA RESULT:   -10.269      0.000      0.000
REMARK INTER + INTRA:         -13.391
REMARK INTER:                 -11.863
REMARK INTRA:                  -1.528
REMARK UNBOUND:                -1.321
REMARK  Name = 
REMARK  5 active torsions:
REMARK  status: ('A' for Active; 'I' for Inactive)
REMARK    1  A    between atoms: C_1  and  C_2
REMARK    2  A    between atoms: C_4  and  C_20
REMARK    3  A    between atoms: C_5  and  C_8
REMARK    4  A    between atoms: C_5  and  C_9
REMARK    5  A    between atoms: C_10  and  C_11
REMARK                            x       y       z     vdW  Elec       q    Type
REMARK                         _______ _______ _______ _____ _____    ______ ____
ROOT
ATOM      1  C   UNL     1      85.624  56.262  46.596  0.00  0.00    -0.044 C 
ATOM      2  C   UNL     1      85.501  55.831  45.160  0.00  0.00    -0.076 C 
ATOM      3  C   UNL     1      86.454  55.033  44.632  0.00  0.00    -0.077 C 
ATOM      4  C   UNL     1      86.446  54.601  43.178  0.00  0.00    +0.011 C 
ATOM      5  C   UNL     1      85.000  54.575  42.568  0.00  0.00    -0.003 C 
ATOM      6  C   UNL     1      84.348  55.944  42.888  0.00  0.00    -0.040 C 
ATOM      7  C   UNL     1      84.240  56.189  44.400  0.00  0.00    -0.031 C 
ATOM      8  C   UNL     1      85.087  54.413  41.031  0.00  0.00    -0.055 C 
ENDROOT
BRANCH   4   9
ATOM      9  C   UNL     1      87.231  53.309  42.965  0.00  0.00    -0.039 A 
ATOM     10  C   UNL     1      88.069  53.114  41.828  0.00  0.00    -0.056 A 
ATOM     11  C   UNL     1      88.804  51.926  41.666  0.00  0.00    -0.038 A 
ATOM     12  C   UNL     1      88.683  50.946  42.646  0.00  0.00    +0.046 A 
ATOM     13  C   UNL     1      87.872  51.115  43.734  0.00  0.00    -0.000 A 
ATOM     14  C   UNL     1      87.131  52.277  43.928  0.00  0.00    -0.049 A 
ATOM     15  C   UNL     1      87.968  49.975  44.501  0.00  0.00    -0.037 A 
ATOM     16  C   UNL     1      88.857  49.152  43.817  0.00  0.00    +0.003 A 
ATOM     17  N   UNL     1      89.291  49.749  42.683  0.00  0.00    -0.361 N 
ATOM     18  H   UNL     1      89.922  49.382  42.023  0.00  0.00    +0.000 HD
ENDBRANCH   4   9
BRANCH   5  19
ATOM     19  C   UNL     1      84.158  53.443  43.155  0.00  0.00    -0.077 C 
ATOM     20  C   UNL     1      83.805  52.358  42.446  0.00  0.00    -0.058 C 
BRANCH  20  21
ATOM     21  C   UNL     1      83.001  51.225  42.976  0.00  0.00    -0.025 A 
ATOM     22  C   UNL     1      83.676  50.224  43.723  0.00  0.00    -0.053 A 
ATOM     23  C   UNL     1      82.978  49.137  44.279  0.00  0.00    -0.037 A 
ATOM     24  C   UNL     1      81.602  49.070  44.075  0.00  0.00    +0.046 A 
ATOM     25  C   UNL     1      80.937  50.026  43.358  0.00  0.00    +0.000 A 
ATOM     26  C   UNL     1      81.596  51.120  42.798  0.00  0.00    -0.045 A 
ATOM     27  C   UNL     1      79.605  49.672  43.339  0.00  0.00    -0.037 A 
ATOM     28  C   UNL     1      79.534  48.490  44.070  0.00  0.00    +0.003 A 
ATOM     29  N   UNL     1      80.757  48.126  44.518  0.00  0.00    -0.361 N 
ATOM     30  H   UNL     1      80.980  47.333  45.056  0.00  0.00    +0.000 HD
ENDBRANCH  20  21
ENDBRANCH   5  19
TORSDOF 3
ENDMDL
MODEL 2
REMARK VINA RESULT:   -10.196      2.039      3.128
REMARK INTER + INTRA:         -13.305
REMARK INTER:                 -12.078
REMARK INTRA:                  -1.228
REMARK UNBOUND:                -1.321
REMARK  Name = 
REMARK  5 active torsions:
REMARK  status: ('A' for Active; 'I' for Inactive)
REMARK    1  A    between atoms: C_1  and  C_2
REMARK    2  A    between atoms: C_4  and  C_20
REMARK    3  A    between atoms: C_5  and  C_8
REMARK    4  A    between atoms: C_5  and  C_9
REMARK    5  A    between atoms: C_10  and  C_11
REMARK                            x       y       z     vdW  Elec       q    Type
REMARK                         _______ _______ _______ _____ _____    ______ ____
ROOT
ATOM      1  C   UNL     1      86.073  52.235  48.807  0.00  0.00    -0.044 C 
ATOM      2  C   UNL     1      85.930  52.400  47.318  0.00  0.00    -0.076 C 
ATOM      3  C   UNL     1      86.708  51.659  46.501  0.00  0.00    -0.077 C 
ATOM      4  C   UNL     1      86.678  51.802  44.990  0.00  0.00    +0.011 C 
ATOM      5  C   UNL     1      85.295  52.327  44.465  0.00  0.00    -0.003 C 
ATOM      6  C   UNL     1      84.947  53.592  45.289  0.00  0.00    -0.040 C 
ATOM      7  C   UNL     1      84.820  53.284  46.788  0.00  0.00    -0.031 C 
ATOM      8  C   UNL     1      85.422  52.723  42.975  0.00  0.00    -0.055 C 
ENDROOT
BRANCH   4   9
ATOM      9  C   UNL     1      87.168  50.537  44.290  0.00  0.00    -0.039 A 
ATOM     10  C   UNL     1      86.440  49.312  44.348  0.00  0.00    -0.056 A 
ATOM     11  C   UNL     1      86.898  48.166  43.674  0.00  0.00    -0.038 A 
ATOM     12  C   UNL     1      88.084  48.265  42.953  0.00  0.00    +0.046 A 
ATOM     13  C   UNL     1      88.797  49.429  42.901  0.00  0.00    -0.000 A 
ATOM     14  C   UNL     1      88.376  50.583  43.554  0.00  0.00    -0.049 A 
ATOM     15  C   UNL     1      89.910  49.196  42.123  0.00  0.00    -0.037 A 
ATOM     16  C   UNL     1      89.808  47.864  41.734  0.00  0.00    +0.003 A 
ATOM     17  N   UNL     1      88.690  47.298  42.245  0.00  0.00    -0.361 N 
ATOM     18  H   UNL     1      88.386  46.370  42.123  0.00  0.00    +0.000 HD
ENDBRANCH   4   9
BRANCH   5  19
ATOM     19  C   UNL     1      84.195  51.278  44.624  0.00  0.00    -0.077 C 
ATOM     20  C   UNL     1      83.282  51.033  43.669  0.00  0.00    -0.058 C 
BRANCH  20  21
ATOM     21  C   UNL     1      82.204  50.014  43.771  0.00  0.00    -0.025 A 
ATOM     22  C   UNL     1      80.896  50.388  43.366  0.00  0.00    -0.053 A 
ATOM     23  C   UNL     1      79.831  49.470  43.408  0.00  0.00    -0.037 A 
ATOM     24  C   UNL     1      80.097  48.181  43.861  0.00  0.00    +0.046 A 
ATOM     25  C   UNL     1      81.351  47.804  44.255  0.00  0.00    +0.000 A 
ATOM     26  C   UNL     1      82.431  48.686  44.221  0.00  0.00    -0.045 A 
ATOM     27  C   UNL     1      81.280  46.484  44.645  0.00  0.00    -0.037 A 
ATOM     28  C   UNL     1      79.950  46.122  44.455  0.00  0.00    +0.003 A 
ATOM     29  N   UNL     1      79.231  47.162  43.977  0.00  0.00    -0.361 N 
ATOM     30  H   UNL     1      78.272  47.170  43.759  0.00  0.00    +0.000 HD
ENDBRANCH  20  21
ENDBRANCH   5  19
TORSDOF 3
ENDMDL
MODEL 3
REMARK VINA RESULT:    -9.907      2.743      5.672
REMARK INTER + INTRA:         -12.965
REMARK INTER:                 -11.495
REMARK INTRA:                  -1.470
REMARK UNBOUND:                -1.321
REMARK  Name = 
REMARK  5 active torsions:
REMARK  status: ('A' for Active; 'I' for Inactive)
REMARK    1  A    between atoms: C_1  and  C_2
REMARK    2  A    between atoms: C_4  and  C_20
REMARK    3  A    between atoms: C_5  and  C_8
REMARK    4  A    between atoms: C_5  and  C_9
REMARK    5  A    between atoms: C_10  and  C_11
REMARK                            x       y       z     vdW  Elec       q    Type
REMARK                         _______ _______ _______ _____ _____    ______ ____
ROOT
ATOM      1  C   UNL     1      89.852  50.621  41.489  0.00  0.00    -0.044 C 
ATOM      2  C   UNL     1      88.862  49.872  42.338  0.00  0.00    -0.076 C 
ATOM      3  C   UNL     1      88.676  50.257  43.619  0.00  0.00    -0.077 C 
ATOM      4  C   UNL     1      87.746  49.523  44.567  0.00  0.00    +0.011 C 
ATOM      5  C   UNL     1      86.588  48.778  43.815  0.00  0.00    -0.003 C 
ATOM      6  C   UNL     1      87.245  47.932  42.695  0.00  0.00    -0.040 C 
ATOM      7  C   UNL     1      88.005  48.806  41.686  0.00  0.00    -0.031 C 
ATOM      8  C   UNL     1      85.860  47.826  44.794  0.00  0.00    -0.055 C 
ENDROOT
BRANCH   4   9
ATOM      9  C   UNL     1      87.268  50.423  45.704  0.00  0.00    -0.039 A 
ATOM     10  C   UNL     1      87.241  49.978  47.058  0.00  0.00    -0.056 A 
ATOM     11  C   UNL     1      86.821  50.833  48.093  0.00  0.00    -0.038 A 
ATOM     12  C   UNL     1      86.428  52.124  47.752  0.00  0.00    +0.046 A 
ATOM     13  C   UNL     1      86.437  52.558  46.456  0.00  0.00    -0.000 A 
ATOM     14  C   UNL     1      86.846  51.741  45.407  0.00  0.00    -0.049 A 
ATOM     15  C   UNL     1      85.991  53.861  46.455  0.00  0.00    -0.037 A 
ATOM     16  C   UNL     1      85.729  54.156  47.789  0.00  0.00    +0.003 A 
ATOM     17  N   UNL     1      85.997  53.090  48.579  0.00  0.00    -0.361 N 
ATOM     18  H   UNL     1      85.896  53.035  49.557  0.00  0.00    +0.000 HD
ENDBRANCH   4   9
BRANCH   5  19
ATOM     19  C   UNL     1      85.583  49.757  43.211  0.00  0.00    -0.077 C 
ATOM     20  C   UNL     1      84.344  49.924  43.705  0.00  0.00    -0.058 C 
BRANCH  20  21
ATOM     21  C   UNL     1      83.338  50.874  43.163  0.00  0.00    -0.025 A 
ATOM     22  C   UNL     1      81.966  50.522  43.268  0.00  0.00    -0.053 A 
ATOM     23  C   UNL     1      80.956  51.382  42.802  0.00  0.00    -0.037 A 
ATOM     24  C   UNL     1      81.341  52.593  42.231  0.00  0.00    +0.046 A 
ATOM     25  C   UNL     1      82.657  52.948  42.122  0.00  0.00    +0.000 A 
ATOM     26  C   UNL     1      83.684  52.122  42.578  0.00  0.00    -0.045 A 
ATOM     27  C   UNL     1      82.700  54.186  41.519  0.00  0.00    -0.037 A 
ATOM     28  C   UNL     1      81.369  54.526  41.295  0.00  0.00    +0.003 A 
ATOM     29  N   UNL     1      80.543  53.549  41.731  0.00  0.00    -0.361 N 
ATOM     30  H   UNL     1      79.560  53.541  41.690  0.00  0.00    +0.000 HD
ENDBRANCH  20  21
ENDBRANCH   5  19
TORSDOF 3
ENDMDL
MODEL 4
REMARK VINA RESULT:    -9.834      2.081      4.948
REMARK INTER + INTRA:         -12.881
REMARK INTER:                 -11.520
REMARK INTRA:                  -1.361
REMARK UNBOUND:                -1.321
REMARK  Name = 
REMARK  5 active torsions:
REMARK  status: ('A' for Active; 'I' for Inactive)
REMARK    1  A    between atoms: C_1  and  C_2
REMARK    2  A    between atoms: C_4  and  C_20
REMARK    3  A    between atoms: C_5  and  C_8
REMARK    4  A    between atoms: C_5  and  C_9
REMARK    5  A    between atoms: C_10  and  C_11
REMARK                            x       y       z     vdW  Elec       q    Type
REMARK                         _______ _______ _______ _____ _____    ______ ____
ROOT
ATOM      1  C   UNL     1      88.353  52.139  39.824  0.00  0.00    -0.044 C 
ATOM      2  C   UNL     1      88.109  52.068  41.307  0.00  0.00    -0.076 C 
ATOM      3  C   UNL     1      87.691  53.176  41.955  0.00  0.00    -0.077 C 
ATOM      4  C   UNL     1      87.479  53.215  43.457  0.00  0.00    +0.011 C 
ATOM      5  C   UNL     1      87.136  51.804  44.051  0.00  0.00    -0.003 C 
ATOM      6  C   UNL     1      88.210  50.817  43.528  0.00  0.00    -0.040 C 
ATOM      7  C   UNL     1      88.202  50.721  41.995  0.00  0.00    -0.031 C 
ATOM      8  C   UNL     1      87.220  51.856  45.596  0.00  0.00    -0.055 C 
ENDROOT
BRANCH   4   9
ATOM      9  C   UNL     1      86.501  54.314  43.864  0.00  0.00    -0.039 A 
ATOM     10  C   UNL     1      85.509  54.812  42.969  0.00  0.00    -0.056 A 
ATOM     11  C   UNL     1      84.602  55.807  43.374  0.00  0.00    -0.038 A 
ATOM     12  C   UNL     1      84.707  56.293  44.673  0.00  0.00    +0.046 A 
ATOM     13  C   UNL     1      85.662  55.834  45.537  0.00  0.00    -0.000 A 
ATOM     14  C   UNL     1      86.575  54.851  45.172  0.00  0.00    -0.049 A 
ATOM     15  C   UNL     1      85.504  56.514  46.725  0.00  0.00    -0.037 A 
ATOM     16  C   UNL     1      84.431  57.373  46.512  0.00  0.00    +0.003 A 
ATOM     17  N   UNL     1      83.947  57.236  45.255  0.00  0.00    -0.361 N 
ATOM     18  H   UNL     1      83.194  57.725  44.852  0.00  0.00    +0.000 HD
ENDBRANCH   4   9
BRANCH   5  19
ATOM     19  C   UNL     1      85.744  51.336  43.630  0.00  0.00    -0.077 C 
ATOM     20  C   UNL     1      84.677  51.404  44.444  0.00  0.00    -0.058 C 
BRANCH  20  21
ATOM     21  C   UNL     1      83.302  50.977  44.075  0.00  0.00    -0.025 A 
ATOM     22  C   UNL     1      82.584  51.776  43.146  0.00  0.00    -0.053 A 
ATOM     23  C   UNL     1      81.289  51.420  42.728  0.00  0.00    -0.037 A 
ATOM     24  C   UNL     1      80.729  50.259  43.255  0.00  0.00    +0.046 A 
ATOM     25  C   UNL     1      81.405  49.479  44.151  0.00  0.00    +0.000 A 
ATOM     26  C   UNL     1      82.693  49.798  44.582  0.00  0.00    -0.045 A 
ATOM     27  C   UNL     1      80.585  48.420  44.475  0.00  0.00    -0.037 A 
ATOM     28  C   UNL     1      79.425  48.620  43.733  0.00  0.00    +0.003 A 
ATOM     29  N   UNL     1      79.517  49.745  42.989  0.00  0.00    -0.361 N 
ATOM     30  H   UNL     1      78.837  50.111  42.380  0.00  0.00    +0.000 HD
ENDBRANCH  20  21
ENDBRANCH   5  19
TORSDOF 3
ENDMDL
MODEL 5
REMARK VINA RESULT:    -9.701      2.263      3.265
REMARK INTER + INTRA:         -12.724
REMARK INTER:                 -11.483
REMARK INTRA:                  -1.241
REMARK UNBOUND:                -1.321
REMARK  Name = 
REMARK  5 active torsions:
REMARK  status: ('A' for Active; 'I' for Inactive)
REMARK    1  A    between atoms: C_1  and  C_2
REMARK    2  A    between atoms: C_4  and  C_20
REMARK    3  A    between atoms: C_5  and  C_8
REMARK    4  A    between atoms: C_5  and  C_9
REMARK    5  A    between atoms: C_10  and  C_11
REMARK                            x       y       z     vdW  Elec       q    Type
REMARK                         _______ _______ _______ _____ _____    ______ ____
ROOT
ATOM      1  C   UNL     1      84.210  56.801  43.199  0.00  0.00    -0.044 C 
ATOM      2  C   UNL     1      84.869  55.492  42.859  0.00  0.00    -0.076 C 
ATOM      3  C   UNL     1      85.577  54.849  43.811  0.00  0.00    -0.077 C 
ATOM      4  C   UNL     1      86.326  53.557  43.543  0.00  0.00    +0.011 C 
ATOM      5  C   UNL     1      85.694  52.730  42.368  0.00  0.00    -0.003 C 
ATOM      6  C   UNL     1      85.529  53.698  41.169  0.00  0.00    -0.040 C 
ATOM      7  C   UNL     1      84.595  54.872  41.504  0.00  0.00    -0.031 C 
ATOM      8  C   UNL     1      86.657  51.591  41.957  0.00  0.00    -0.055 C 
ENDROOT
BRANCH   4   9
ATOM      9  C   UNL     1      86.545  52.751  44.820  0.00  0.00    -0.039 A 
ATOM     10  C   UNL     1      87.391  51.603  44.853  0.00  0.00    -0.056 A 
ATOM     11  C   UNL     1      87.598  50.891  46.048  0.00  0.00    -0.038 A 
ATOM     12  C   UNL     1      86.949  51.338  47.194  0.00  0.00    +0.046 A 
ATOM     13  C   UNL     1      86.125  52.429  47.173  0.00  0.00    -0.000 A 
ATOM     14  C   UNL     1      85.896  53.158  46.010  0.00  0.00    -0.049 A 
ATOM     15  C   UNL     1      85.638  52.603  48.450  0.00  0.00    -0.037 A 
ATOM     16  C   UNL     1      86.209  51.578  49.198  0.00  0.00    +0.003 A 
ATOM     17  N   UNL     1      87.009  50.807  48.426  0.00  0.00    -0.361 N 
ATOM     18  H   UNL     1      87.528  50.019  48.709  0.00  0.00    +0.000 HD
ENDBRANCH   4   9
BRANCH   5  19
ATOM     19  C   UNL     1      84.340  52.140  42.757  0.00  0.00    -0.077 C 
ATOM     20  C   UNL     1      84.135  50.819  42.892  0.00  0.00    -0.058 C 
BRANCH  20  21
ATOM     21  C   UNL     1      82.841  50.198  43.283  0.00  0.00    -0.025 A 
ATOM     22  C   UNL     1      81.649  50.921  43.013  0.00  0.00    -0.053 A 
ATOM     23  C   UNL     1      80.387  50.387  43.330  0.00  0.00    -0.037 A 
ATOM     24  C   UNL     1      80.340  49.126  43.918  0.00  0.00    +0.046 A 
ATOM     25  C   UNL     1      81.479  48.416  44.184  0.00  0.00    +0.000 A 
ATOM     26  C   UNL     1      82.746  48.913  43.879  0.00  0.00    -0.045 A 
ATOM     27  C   UNL     1      81.095  47.225  44.761  0.00  0.00    -0.037 A 
ATOM     28  C   UNL     1      79.705  47.277  44.809  0.00  0.00    +0.003 A 
ATOM     29  N   UNL     1      79.249  48.441  44.293  0.00  0.00    -0.361 N 
ATOM     30  H   UNL     1      78.311  48.726  44.210  0.00  0.00    +0.000 HD
ENDBRANCH  20  21
ENDBRANCH   5  19
TORSDOF 3
ENDMDL
MODEL 6
REMARK VINA RESULT:    -9.576      2.805      4.441
REMARK INTER + INTRA:         -12.577
REMARK INTER:                 -11.104
REMARK INTRA:                  -1.473
REMARK UNBOUND:                -1.321
REMARK  Name = 
REMARK  5 active torsions:
REMARK  status: ('A' for Active; 'I' for Inactive)
REMARK    1  A    between atoms: C_1  and  C_2
REMARK    2  A    between atoms: C_4  and  C_20
REMARK    3  A    between atoms: C_5  and  C_8
REMARK    4  A    between atoms: C_5  and  C_9
REMARK    5  A    between atoms: C_10  and  C_11
REMARK                            x       y       z     vdW  Elec       q    Type
REMARK                         _______ _______ _______ _____ _____    ______ ____
ROOT
ATOM      1  C   UNL     1      87.626  50.562  48.115  0.00  0.00    -0.044 C 
ATOM      2  C   UNL     1      87.346  50.696  46.643  0.00  0.00    -0.076 C 
ATOM      3  C   UNL     1      87.672  49.677  45.820  0.00  0.00    -0.077 C 
ATOM      4  C   UNL     1      87.485  49.747  44.316  0.00  0.00    +0.011 C 
ATOM      5  C   UNL     1      86.334  50.731  43.900  0.00  0.00    -0.003 C 
ATOM      6  C   UNL     1      86.598  52.072  44.630  0.00  0.00    -0.040 C 
ATOM      7  C   UNL     1      86.578  51.908  46.157  0.00  0.00    -0.031 C 
ATOM      8  C   UNL     1      86.388  50.977  42.373  0.00  0.00    -0.055 C 
ENDROOT
BRANCH   4   9
ATOM      9  C   UNL     1      87.369  48.359  43.692  0.00  0.00    -0.039 A 
ATOM     10  C   UNL     1      88.211  47.941  42.620  0.00  0.00    -0.056 A 
ATOM     11  C   UNL     1      88.105  46.647  42.077  0.00  0.00    -0.038 A 
ATOM     12  C   UNL     1      87.148  45.793  42.616  0.00  0.00    +0.046 A 
ATOM     13  C   UNL     1      86.326  46.186  43.635  0.00  0.00    -0.000 A 
ATOM     14  C   UNL     1      86.403  47.456  44.196  0.00  0.00    -0.049 A 
ATOM     15  C   UNL     1      85.499  45.125  43.930  0.00  0.00    -0.037 A 
ATOM     16  C   UNL     1      85.876  44.115  43.050  0.00  0.00    +0.003 A 
ATOM     17  N   UNL     1      86.884  44.529  42.247  0.00  0.00    -0.361 N 
ATOM     18  H   UNL     1      87.331  44.010  41.540  0.00  0.00    +0.000 HD
ENDBRANCH   4   9
BRANCH   5  19
ATOM     19  C   UNL     1      84.959  50.186  44.283  0.00  0.00    -0.077 C 
ATOM     20  C   UNL     1      84.038  49.835  43.370  0.00  0.00    -0.058 C 
BRANCH  20  21
ATOM     21  C   UNL     1      82.693  49.286  43.693  0.00  0.00    -0.025 A 
ATOM     22  C   UNL     1      81.572  50.144  43.542  0.00  0.00    -0.053 A 
ATOM     23  C   UNL     1      80.267  49.688  43.802  0.00  0.00    -0.037 A 
ATOM     24  C   UNL     1      80.107  48.368  44.215  0.00  0.00    +0.046 A 
ATOM     25  C   UNL     1      81.176  47.529  44.366  0.00  0.00    +0.000 A 
ATOM     26  C   UNL     1      82.482  47.946  44.112  0.00  0.00    -0.045 A 
ATOM     27  C   UNL     1      80.686  46.310  44.783  0.00  0.00    -0.037 A 
ATOM     28  C   UNL     1      79.307  46.481  44.858  0.00  0.00    +0.003 A 
ATOM     29  N   UNL     1      78.958  47.740  44.510  0.00  0.00    -0.361 N 
ATOM     30  H   UNL     1      78.050  48.117  44.481  0.00  0.00    +0.000 HD
ENDBRANCH  20  21
ENDBRANCH   5  19
TORSDOF 3
ENDMDL
MODEL 7
REMARK VINA RESULT:    -9.371      2.042      5.032
REMARK INTER + INTRA:         -12.336
REMARK INTER:                 -10.989
REMARK INTRA:                  -1.347
REMARK UNBOUND:                -1.321
REMARK  Name = 
REMARK  5 active torsions:
REMARK  status: ('A' for Active; 'I' for Inactive)
REMARK    1  A    between atoms: C_1  and  C_2
REMARK    2  A    between atoms: C_4  and  C_20
REMARK    3  A    between atoms: C_5  and  C_8
REMARK    4  A    between atoms: C_5  and  C_9
REMARK    5  A    between atoms: C_10  and  C_11
REMARK                            x       y       z     vdW  Elec       q    Type
REMARK                         _______ _______ _______ _____ _____    ______ ____
ROOT
ATOM      1  C   UNL     1      89.877  48.837  41.305  0.00  0.00    -0.044 C 
ATOM      2  C   UNL     1      89.230  49.560  42.454  0.00  0.00    -0.076 C 
ATOM      3  C   UNL     1      88.593  50.726  42.218  0.00  0.00    -0.077 C 
ATOM      4  C   UNL     1      87.966  51.556  43.323  0.00  0.00    +0.011 C 
ATOM      5  C   UNL     1      87.539  50.686  44.557  0.00  0.00    -0.003 C 
ATOM      6  C   UNL     1      88.763  49.821  44.948  0.00  0.00    -0.040 C 
ATOM      7  C   UNL     1      89.192  48.883  43.809  0.00  0.00    -0.031 C 
ATOM      8  C   UNL     1      87.183  51.610  45.746  0.00  0.00    -0.055 C 
ENDROOT
BRANCH   4   9
ATOM      9  C   UNL     1      86.861  52.466  42.793  0.00  0.00    -0.039 A 
ATOM     10  C   UNL     1      85.980  52.054  41.750  0.00  0.00    -0.056 A 
ATOM     11  C   UNL     1      84.951  52.900  41.296  0.00  0.00    -0.038 A 
ATOM     12  C   UNL     1      84.826  54.150  41.892  0.00  0.00    +0.046 A 
ATOM     13  C   UNL     1      85.672  54.562  42.883  0.00  0.00    -0.000 A 
ATOM     14  C   UNL     1      86.699  53.753  43.359  0.00  0.00    -0.049 A 
ATOM     15  C   UNL     1      85.290  55.833  43.251  0.00  0.00    -0.037 A 
ATOM     16  C   UNL     1      84.201  56.133  42.439  0.00  0.00    +0.003 A 
ATOM     17  N   UNL     1      83.921  55.102  41.609  0.00  0.00    -0.361 N 
ATOM     18  H   UNL     1      83.203  55.058  40.937  0.00  0.00    +0.000 HD
ENDBRANCH   4   9
BRANCH   5  19
ATOM     19  C   UNL     1      86.346  49.789  44.230  0.00  0.00    -0.077 C 
ATOM     20  C   UNL     1      85.103  50.043  44.674  0.00  0.00    -0.058 C 
BRANCH  20  21
ATOM     21  C   UNL     1      83.909  49.210  44.371  0.00  0.00    -0.025 A 
ATOM     22  C   UNL     1      84.124  47.890  43.895  0.00  0.00    -0.053 A 
ATOM     23  C   UNL     1      83.044  47.034  43.613  0.00  0.00    -0.037 A 
ATOM     24  C   UNL     1      81.754  47.521  43.813  0.00  0.00    +0.046 A 
ATOM     25  C   UNL     1      81.530  48.790  44.270  0.00  0.00    +0.000 A 
ATOM     26  C   UNL     1      82.577  49.663  44.565  0.00  0.00    -0.045 A 
ATOM     27  C   UNL     1      80.166  48.961  44.355  0.00  0.00    -0.037 A 
ATOM     28  C   UNL     1      79.622  47.749  43.939  0.00  0.00    +0.003 A 
ATOM     29  N   UNL     1      80.597  46.873  43.608  0.00  0.00    -0.361 N 
ATOM     30  H   UNL     1      80.481  45.951  43.284  0.00  0.00    +0.000 HD
ENDBRANCH  20  21
ENDBRANCH   5  19
TORSDOF 3
ENDMDL
MODEL 8
REMARK VINA RESULT:    -9.343      2.557      4.277
REMARK INTER + INTRA:         -12.303
REMARK INTER:                 -10.988
REMARK INTRA:                  -1.315
REMARK UNBOUND:                -1.321
REMARK  Name = 
REMARK  5 active torsions:
REMARK  status: ('A' for Active; 'I' for Inactive)
REMARK    1  A    between atoms: C_1  and  C_2
REMARK    2  A    between atoms: C_4  and  C_20
REMARK    3  A    between atoms: C_5  and  C_8
REMARK    4  A    between atoms: C_5  and  C_9
REMARK    5  A    between atoms: C_10  and  C_11
REMARK                            x       y       z     vdW  Elec       q    Type
REMARK                         _______ _______ _______ _____ _____    ______ ____
ROOT
ATOM      1  C   UNL     1      84.277  55.293  41.438  0.00  0.00    -0.044 C 
ATOM      2  C   UNL     1      85.171  54.201  41.962  0.00  0.00    -0.076 C 
ATOM      3  C   UNL     1      85.420  54.140  43.287  0.00  0.00    -0.077 C 
ATOM      4  C   UNL     1      86.357  53.114  43.898  0.00  0.00    +0.011 C 
ATOM      5  C   UNL     1      86.454  51.805  43.038  0.00  0.00    -0.003 C 
ATOM      6  C   UNL     1      86.756  52.240  41.582  0.00  0.00    -0.040 C 
ATOM      7  C   UNL     1      85.641  53.126  41.005  0.00  0.00    -0.031 C 
ATOM      8  C   UNL     1      87.627  50.934  43.549  0.00  0.00    -0.055 C 
ENDROOT
BRANCH   4   9
ATOM      9  C   UNL     1      86.046  52.867  45.371  0.00  0.00    -0.039 A 
ATOM     10  C   UNL     1      86.930  52.134  46.217  0.00  0.00    -0.056 A 
ATOM     11  C   UNL     1      86.635  51.940  47.578  0.00  0.00    -0.038 A 
ATOM     12  C   UNL     1      85.452  52.481  48.072  0.00  0.00    +0.046 A 
ATOM     13  C   UNL     1      84.590  53.174  47.269  0.00  0.00    -0.000 A 
ATOM     14  C   UNL     1      84.848  53.386  45.918  0.00  0.00    -0.049 A 
ATOM     15  C   UNL     1      83.524  53.565  48.049  0.00  0.00    -0.037 A 
ATOM     16  C   UNL     1      83.806  53.075  49.320  0.00  0.00    +0.003 A 
ATOM     17  N   UNL     1      84.986  52.412  49.329  0.00  0.00    -0.361 N 
ATOM     18  H   UNL     1      85.413  51.970  50.099  0.00  0.00    +0.000 HD
ENDBRANCH   4   9
BRANCH   5  19
ATOM     19  C   UNL     1      85.158  50.998  43.088  0.00  0.00    -0.077 C 
ATOM     20  C   UNL     1      85.020  49.890  43.835  0.00  0.00    -0.058 C 
BRANCH  20  21
ATOM     21  C   UNL     1      83.776  49.081  43.927  0.00  0.00    -0.025 A 
ATOM     22  C   UNL     1      83.880  47.677  43.743  0.00  0.00    -0.053 A 
ATOM     23  C   UNL     1      82.751  46.844  43.843  0.00  0.00    -0.037 A 
ATOM     24  C   UNL     1      81.524  47.439  44.127  0.00  0.00    +0.046 A 
ATOM     25  C   UNL     1      81.406  48.789  44.307  0.00  0.00    +0.000 A 
ATOM     26  C   UNL     1      82.505  49.643  44.221  0.00  0.00    -0.045 A 
ATOM     27  C   UNL     1      80.079  49.054  44.567  0.00  0.00    -0.037 A 
ATOM     28  C   UNL     1      79.449  47.814  44.535  0.00  0.00    +0.003 A 
ATOM     29  N   UNL     1      80.336  46.830  44.265  0.00  0.00    -0.361 N 
ATOM     30  H   UNL     1      80.149  45.867  44.187  0.00  0.00    +0.000 HD
ENDBRANCH  20  21
ENDBRANCH   5  19
TORSDOF 3
ENDMDL
MODEL 9
REMARK VINA RESULT:    -9.290      3.312      6.471
REMARK INTER + INTRA:         -12.241
REMARK INTER:                 -10.919
REMARK INTRA:                  -1.321
REMARK UNBOUND:                -1.321
REMARK  Name = 
REMARK  5 active torsions:
REMARK  status: ('A' for Active; 'I' for Inactive)
REMARK    1  A    between atoms: C_1  and  C_2
REMARK    2  A    between atoms: C_4  and  C_20
REMARK    3  A    between atoms: C_5  and  C_8
REMARK    4  A    between atoms: C_5  and  C_9
REMARK    5  A    between atoms: C_10  and  C_11
REMARK                            x       y       z     vdW  Elec       q    Type
REMARK                         _______ _______ _______ _____ _____    ______ ____
ROOT
ATOM      1  C   UNL     1      89.103  49.304  44.024  0.00  0.00    -0.044 C 
ATOM      2  C   UNL     1      87.642  49.582  44.249  0.00  0.00    -0.076 C 
ATOM      3  C   UNL     1      87.286  50.564  45.104  0.00  0.00    -0.077 C 
ATOM      4  C   UNL     1      85.839  50.873  45.440  0.00  0.00    +0.011 C 
ATOM      5  C   UNL     1      84.856  50.468  44.286  0.00  0.00    -0.003 C 
ATOM      6  C   UNL     1      85.182  49.001  43.906  0.00  0.00    -0.040 C 
ATOM      7  C   UNL     1      86.624  48.846  43.400  0.00  0.00    -0.031 C 
ATOM      8  C   UNL     1      83.397  50.536  44.799  0.00  0.00    -0.055 C 
ENDROOT
BRANCH   4   9
ATOM      9  C   UNL     1      85.664  52.308  45.929  0.00  0.00    -0.039 A 
ATOM     10  C   UNL     1      86.539  53.357  45.521  0.00  0.00    -0.056 A 
ATOM     11  C   UNL     1      86.343  54.677  45.964  0.00  0.00    -0.038 A 
ATOM     12  C   UNL     1      85.272  54.925  46.817  0.00  0.00    +0.046 A 
ATOM     13  C   UNL     1      84.433  53.926  47.227  0.00  0.00    -0.000 A 
ATOM     14  C   UNL     1      84.596  52.609  46.809  0.00  0.00    -0.049 A 
ATOM     15  C   UNL     1      83.494  54.491  48.060  0.00  0.00    -0.037 A 
ATOM     16  C   UNL     1      83.822  55.842  48.112  0.00  0.00    +0.003 A 
ATOM     17  N   UNL     1      84.910  56.103  47.352  0.00  0.00    -0.361 N 
ATOM     18  H   UNL     1      85.347  56.976  47.218  0.00  0.00    +0.000 HD
ENDBRANCH   4   9
BRANCH   5  19
ATOM     19  C   UNL     1      85.012  51.374  43.066  0.00  0.00    -0.077 C 
ATOM     20  C   UNL     1      84.119  52.327  42.750  0.00  0.00    -0.058 C 
BRANCH  20  21
ATOM     21  C   UNL     1      84.236  53.242  41.584  0.00  0.00    -0.025 A 
ATOM     22  C   UNL     1      85.490  53.321  40.923  0.00  0.00    -0.053 A 
ATOM     23  C   UNL     1      85.669  54.144  39.797  0.00  0.00    -0.037 A 
ATOM     24  C   UNL     1      84.577  54.882  39.347  0.00  0.00    +0.046 A 
ATOM     25  C   UNL     1      83.362  54.818  39.972  0.00  0.00    +0.000 A 
ATOM     26  C   UNL     1      83.148  54.009  41.087  0.00  0.00    -0.045 A 
ATOM     27  C   UNL     1      82.506  55.658  39.292  0.00  0.00    -0.037 A 
ATOM     28  C   UNL     1      83.269  56.196  38.261  0.00  0.00    +0.003 A 
ATOM     29  N   UNL     1      84.534  55.719  38.299  0.00  0.00    -0.361 N 
ATOM     30  H   UNL     1      85.270  55.941  37.685  0.00  0.00    +0.000 HD
ENDBRANCH  20  21
ENDBRANCH   5  19
TORSDOF 3
ENDMDL
