=
 OpenBabel09092515023D

 30 34  0  0  1  0  0  0  0  0999 V2000
   90.0910   52.3890   40.9620 C   0  0  0  0  0  1  0  0  0  0  0  0
   88.9100   51.6790   41.5660 C   0  0  0  0  0  0  0  0  0  0  0  0
   88.7680   50.3550   41.3600 C   0  0  0  0  0  3  0  0  0  0  0  0
   87.5860   49.5580   41.8760 C   0  0  2  0  0  3  0  0  0  0  0  0
   86.9010   50.2170   43.1270 C   0  0  2  0  0  0  0  0  0  0  0  0
   86.6790   51.7170   42.7990 C   0  0  0  0  0  2  0  0  0  0  0  0
   87.9900   52.4530   42.4850 C   0  0  0  0  0  2  0  0  0  0  0  0
   87.7730   50.0670   44.4020 C   0  0  0  0  0  1  0  0  0  0  0  0
   87.9660   48.0960   42.0810 C   0  0  0  0  0  0  0  0  0  0  0  0
   89.3290   47.6800   42.0890 C   0  0  0  0  0  3  0  0  0  0  0  0
   89.6720   46.3330   42.2950 C   0  0  0  0  0  3  0  0  0  0  0  0
   88.6410   45.4190   42.4830 C   0  0  0  0  0  0  0  0  0  0  0  0
   87.3290   45.8030   42.4670 C   0  0  0  0  0  0  0  0  0  0  0  0
   86.9500   47.1270   42.2650 C   0  0  0  0  0  3  0  0  0  0  0  0
   86.5660   44.6740   42.6760 C   0  0  0  0  0  3  0  0  0  0  0  0
   87.4820   43.6360   42.8110 C   0  0  0  0  0  3  0  0  0  0  0  0
   88.7490   44.0960   42.6930 N   0  0  0  0  0  0  0  0  0  0  0  0
   89.5790   43.5700   42.7490 H   0  0  0  0  0  0  0  0  0  0  0  0
   85.5410   49.5670   43.3670 C   0  0  0  0  0  3  0  0  0  0  0  0
   84.3840   50.1330   42.9870 C   0  0  0  0  0  3  0  0  0  0  0  0
   83.0530   49.5230   43.2210 C   0  0  0  0  0  0  0  0  0  0  0  0
   81.8980   50.3180   42.9990 C   0  0  0  0  0  3  0  0  0  0  0  0
   80.6090   49.7930   43.1970 C   0  0  0  0  0  3  0  0  0  0  0  0
   80.5010   48.4670   43.6060 C   0  0  0  0  0  0  0  0  0  0  0  0
   81.6060   47.6870   43.8100 C   0  0  0  0  0  0  0  0  0  0  0  0
   82.8970   48.1720   43.6240 C   0  0  0  0  0  3  0  0  0  0  0  0
   81.1640   46.4380   44.1910 C   0  0  0  0  0  3  0  0  0  0  0  0
   79.7750   46.5320   44.2000 C   0  0  0  0  0  3  0  0  0  0  0  0
   79.3750   47.7740   43.8420 N   0  0  0  0  0  0  0  0  0  0  0  0
   78.4500   48.1020   43.7690 H   0  0  0  0  0  0  0  0  0  0  0  0
  1  2  1  0  0  0  0
  2  7  1  0  0  0  0
  3  2  2  0  0  0  0
  3  4  1  0  0  0  0
  4  9  1  1  0  0  0
  4  5  1  0  0  0  0
  5 19  1  0  0  0  0
  5  8  1  1  0  0  0
  6  5  1  0  0  0  0
  7  6  1  0  0  0  0
  9 10  2  0  0  0  0
  9 14  1  0  0  0  0
 10 11  1  0  0  0  0
 11 12  2  0  0  0  0
 12 17  1  0  0  0  0
 13 12  1  0  0  0  0
 13 15  1  0  0  0  0
 14 13  2  0  0  0  0
 15 16  2  0  0  0  0
 17 18  1  0  0  0  0
 17 16  1  0  0  0  0
 20 21  1  0  0  0  0
 20 19  2  0  0  0  0
 21 26  1  0  0  0  0
 22 23  1  0  0  0  0
 22 21  2  0  0  0  0
 23 24  2  0  0  0  0
 24 25  1  0  0  0  0
 24 29  1  0  0  0  0
 25 27  1  0  0  0  0
 26 25  2  0  0  0  0
 27 28  2  0  0  0  0
 29 28  1  0  0  0  0
 30 29  1  0  0  0  0
M  END
>  <MODEL>
1

>  <REMARK>
 VINA RESULT:   -10.469      0.000      0.000
 INTER + INTRA:         -13.512
 INTER:                 -12.371
 INTRA:                  -1.141
 UNBOUND:                -1.207
  Name = 
  5 active torsions:
  status: ('A' for Active; 'I' for Inactive)
    1  A    between atoms: C_1  and  C_2
    2  A    between atoms: C_4  and  C_20
    3  A    between atoms: C_5  and  C_8
    4  A    between atoms: C_5  and  C_9
    5  A    between atoms: C_10  and  C_11
                            x       y       z     vdW  Elec       q    Type
                         _______ _______ _______ _____ _____    ______ ____

>  <TORSDO>
F 3

$$$$
=
 OpenBabel09092515023D

 30 34  0  0  1  0  0  0  0  0999 V2000
   88.8850   47.6430   42.2460 C   0  0  0  0  0  1  0  0  0  0  0  0
   88.0950   48.7260   42.9270 C   0  0  0  0  0  0  0  0  0  0  0  0
   86.7640   48.7940   42.7200 C   0  0  0  0  0  3  0  0  0  0  0  0
   85.8880   49.8800   43.3140 C   0  0  2  0  0  3  0  0  0  0  0  0
   86.4940   50.5130   44.6170 C   0  0  2  0  0  0  0  0  0  0  0  0
   87.9770   50.8590   44.3200 C   0  0  0  0  0  2  0  0  0  0  0  0
   88.8000   49.6270   43.9190 C   0  0  0  0  0  2  0  0  0  0  0  0
   86.3970   49.5430   45.8240 C   0  0  0  0  0  1  0  0  0  0  0  0
   84.4530   49.3880   43.4770 C   0  0  0  0  0  0  0  0  0  0  0  0
   83.3630   50.3010   43.5600 C   0  0  0  0  0  3  0  0  0  0  0  0
   82.0430   49.8390   43.6940 C   0  0  0  0  0  3  0  0  0  0  0  0
   81.8350   48.4650   43.7490 C   0  0  0  0  0  0  0  0  0  0  0  0
   82.8730   47.5780   43.6810 C   0  0  0  0  0  0  0  0  0  0  0  0
   84.1940   47.9970   43.5500 C   0  0  0  0  0  3  0  0  0  0  0  0
   82.3390   46.3110   43.7670 C   0  0  0  0  0  3  0  0  0  0  0  0
   80.9670   46.5020   43.8870 C   0  0  0  0  0  3  0  0  0  0  0  0
   80.6630   47.8200   43.8750 N   0  0  0  0  0  0  0  0  0  0  0  0
   79.7680   48.2240   43.9440 H   0  0  0  0  0  0  0  0  0  0  0  0
   85.7530   51.8050   44.9500 C   0  0  0  0  0  3  0  0  0  0  0  0
   86.3770   52.9190   45.3670 C   0  0  0  0  0  3  0  0  0  0  0  0
   85.6740   54.1790   45.7050 C   0  0  0  0  0  0  0  0  0  0  0  0
   84.6070   54.1270   46.6410 C   0  0  0  0  0  3  0  0  0  0  0  0
   83.9070   55.2900   47.0070 C   0  0  0  0  0  3  0  0  0  0  0  0
   84.3000   56.4950   46.4320 C   0  0  0  0  0  0  0  0  0  0  0  0
   85.3350   56.5610   45.5400 C   0  0  0  0  0  0  0  0  0  0  0  0
   86.0510   55.4310   45.1550 C   0  0  0  0  0  3  0  0  0  0  0  0
   85.4780   57.8810   45.1730 C   0  0  0  0  0  3  0  0  0  0  0  0
   84.4930   58.5640   45.8800 C   0  0  0  0  0  3  0  0  0  0  0  0
   83.7760   57.7120   46.6480 N   0  0  0  0  0  0  0  0  0  0  0  0
   83.0250   57.9380   47.2430 H   0  0  0  0  0  0  0  0  0  0  0  0
  1  2  1  0  0  0  0
  2  7  1  0  0  0  0
  3  2  2  0  0  0  0
  3  4  1  0  0  0  0
  4  9  1  1  0  0  0
  4  5  1  0  0  0  0
  5 19  1  0  0  0  0
  5  8  1  1  0  0  0
  6  5  1  0  0  0  0
  7  6  1  0  0  0  0
  9 14  2  0  0  0  0
  9 10  1  0  0  0  0
 10 11  2  0  0  0  0
 11 12  1  0  0  0  0
 12 17  1  0  0  0  0
 13 12  2  0  0  0  0
 13 15  1  0  0  0  0
 14 13  1  0  0  0  0
 15 16  2  0  0  0  0
 17 16  1  0  0  0  0
 17 18  1  0  0  0  0
 19 20  2  0  0  0  0
 20 21  1  0  0  0  0
 21 22  1  0  0  0  0
 22 23  2  0  0  0  0
 24 29  1  0  0  0  0
 24 23  1  0  0  0  0
 25 24  2  0  0  0  0
 26 25  1  0  0  0  0
 26 21  2  0  0  0  0
 27 25  1  0  0  0  0
 27 28  2  0  0  0  0
 28 29  1  0  0  0  0
 29 30  1  0  0  0  0
M  END
>  <MODEL>
2

>  <REMARK>
 VINA RESULT:   -10.206      3.949      6.802
 INTER + INTRA:         -13.202
 INTER:                 -12.178
 INTRA:                  -1.024
 UNBOUND:                -1.207
  Name = 
  5 active torsions:
  status: ('A' for Active; 'I' for Inactive)
    1  A    between atoms: C_1  and  C_2
    2  A    between atoms: C_4  and  C_20
    3  A    between atoms: C_5  and  C_8
    4  A    between atoms: C_5  and  C_9
    5  A    between atoms: C_10  and  C_11
                            x       y       z     vdW  Elec       q    Type
                         _______ _______ _______ _____ _____    ______ ____

>  <TORSDO>
F 3

$$$$
=
 OpenBabel09092515023D

 30 34  0  0  1  0  0  0  0  0999 V2000
   84.4560   55.0880   48.4670 C   0  0  0  0  0  1  0  0  0  0  0  0
   84.8090   53.8490   47.6900 C   0  0  0  0  0  0  0  0  0  0  0  0
   84.2100   53.6290   46.5030 C   0  0  0  0  0  3  0  0  0  0  0  0
   84.4540   52.3860   45.6700 C   0  0  2  0  0  3  0  0  0  0  0  0
   85.8420   51.7120   45.9650 C   0  0  2  0  0  0  0  0  0  0  0  0
   85.9830   51.5940   47.5060 C   0  0  0  0  0  2  0  0  0  0  0  0
   85.9150   52.9560   48.2100 C   0  0  0  0  0  2  0  0  0  0  0  0
   87.0160   52.5390   45.3780 C   0  0  0  0  0  1  0  0  0  0  0  0
   84.2070   52.6670   44.1920 C   0  0  0  0  0  0  0  0  0  0  0  0
   83.6880   51.6640   43.3240 C   0  0  0  0  0  3  0  0  0  0  0  0
   83.4480   51.9370   41.9670 C   0  0  0  0  0  3  0  0  0  0  0  0
   83.7400   53.2130   41.4960 C   0  0  0  0  0  0  0  0  0  0  0  0
   84.2480   54.1820   42.3170 C   0  0  0  0  0  0  0  0  0  0  0  0
   84.5010   53.9490   43.6650 C   0  0  0  0  0  3  0  0  0  0  0  0
   84.4290   55.3150   41.5530 C   0  0  0  0  0  3  0  0  0  0  0  0
   84.0090   54.9630   40.2750 C   0  0  0  0  0  3  0  0  0  0  0  0
   83.5880   53.6780   40.2450 N   0  0  0  0  0  0  0  0  0  0  0  0
   83.2420   53.1840   39.4670 H   0  0  0  0  0  0  0  0  0  0  0  0
   85.8660   50.3080   45.3680 C   0  0  0  0  0  3  0  0  0  0  0  0
   86.7000   49.9500   44.3780 C   0  0  0  0  0  3  0  0  0  0  0  0
   86.7320   48.5950   43.7770 C   0  0  0  0  0  0  0  0  0  0  0  0
   87.6710   48.3360   42.7440 C   0  0  0  0  0  3  0  0  0  0  0  0
   87.7530   47.0680   42.1410 C   0  0  0  0  0  3  0  0  0  0  0  0
   86.8930   46.0740   42.5960 C   0  0  0  0  0  0  0  0  0  0  0  0
   85.9930   46.3060   43.5990 C   0  0  0  0  0  0  0  0  0  0  0  0
   85.8830   47.5480   44.2200 C   0  0  0  0  0  3  0  0  0  0  0  0
   85.3100   45.1300   43.8210 C   0  0  0  0  0  3  0  0  0  0  0  0
   85.8470   44.2220   42.9130 C   0  0  0  0  0  3  0  0  0  0  0  0
   86.8140   44.8040   42.1660 N   0  0  0  0  0  0  0  0  0  0  0  0
   87.3490   44.3830   41.4560 H   0  0  0  0  0  0  0  0  0  0  0  0
  2  7  1  0  0  0  0
  2  1  1  0  0  0  0
  3  2  2  0  0  0  0
  4  9  1  6  0  0  0
  4  5  1  0  0  0  0
  4  3  1  0  0  0  0
  5  8  1  6  0  0  0
  5  6  1  0  0  0  0
  6  7  1  0  0  0  0
 10  9  2  0  0  0  0
 11 10  1  0  0  0  0
 12 11  2  0  0  0  0
 12 13  1  0  0  0  0
 13 14  2  0  0  0  0
 14  9  1  0  0  0  0
 15 13  1  0  0  0  0
 16 15  2  0  0  0  0
 17 16  1  0  0  0  0
 17 12  1  0  0  0  0
 18 17  1  0  0  0  0
 19  5  1  0  0  0  0
 20 19  2  0  0  0  0
 21 26  1  0  0  0  0
 21 20  1  0  0  0  0
 22 21  2  0  0  0  0
 23 24  2  0  0  0  0
 23 22  1  0  0  0  0
 24 25  1  0  0  0  0
 25 27  1  0  0  0  0
 25 26  2  0  0  0  0
 28 27  2  0  0  0  0
 29 24  1  0  0  0  0
 29 28  1  0  0  0  0
 30 29  1  0  0  0  0
M  END
>  <MODEL>
3

>  <REMARK>
 VINA RESULT:   -10.077      3.588      7.133
 INTER + INTRA:         -13.052
 INTER:                 -11.814
 INTRA:                  -1.237
 UNBOUND:                -1.207
  Name = 
  5 active torsions:
  status: ('A' for Active; 'I' for Inactive)
    1  A    between atoms: C_1  and  C_2
    2  A    between atoms: C_4  and  C_20
    3  A    between atoms: C_5  and  C_8
    4  A    between atoms: C_5  and  C_9
    5  A    between atoms: C_10  and  C_11
                            x       y       z     vdW  Elec       q    Type
                         _______ _______ _______ _____ _____    ______ ____

>  <TORSDO>
F 3

$$$$
=
 OpenBabel09092515023D

 30 34  0  0  1  0  0  0  0  0999 V2000
   83.8400   54.9550   48.7770 C   0  0  0  0  0  1  0  0  0  0  0  0
   84.5530   53.9240   47.9460 C   0  0  0  0  0  0  0  0  0  0  0  0
   84.0620   53.6100   46.7300 C   0  0  0  0  0  3  0  0  0  0  0  0
   84.6730   52.5460   45.8400 C   0  0  2  0  0  3  0  0  0  0  0  0
   86.1940   52.2920   46.1410 C   0  0  2  0  0  0  0  0  0  0  0  0
   86.3420   52.1280   47.6760 C   0  0  0  0  0  2  0  0  0  0  0  0
   85.8660   53.3640   48.4510 C   0  0  0  0  0  2  0  0  0  0  0  0
   87.0800   53.4610   45.6360 C   0  0  0  0  0  1  0  0  0  0  0  0
   84.3750   52.8320   44.3720 C   0  0  0  0  0  0  0  0  0  0  0  0
   83.8380   51.8280   43.5160 C   0  0  0  0  0  3  0  0  0  0  0  0
   83.5500   52.1050   42.1690 C   0  0  0  0  0  3  0  0  0  0  0  0
   83.8130   53.3860   41.6960 C   0  0  0  0  0  0  0  0  0  0  0  0
   84.3380   54.3570   42.5040 C   0  0  0  0  0  0  0  0  0  0  0  0
   84.6370   54.1200   43.8420 C   0  0  0  0  0  3  0  0  0  0  0  0
   84.4810   55.4950   41.7410 C   0  0  0  0  0  3  0  0  0  0  0  0
   84.0220   55.1450   40.4760 C   0  0  0  0  0  3  0  0  0  0  0  0
   83.6150   53.8560   40.4530 N   0  0  0  0  0  0  0  0  0  0  0  0
   83.2480   53.3630   39.6840 H   0  0  0  0  0  0  0  0  0  0  0  0
   86.6390   50.9960   45.4690 C   0  0  0  0  0  3  0  0  0  0  0  0
   87.3670   50.9710   44.3400 C   0  0  0  0  0  3  0  0  0  0  0  0
   87.8000   49.7230   43.6670 C   0  0  0  0  0  0  0  0  0  0  0  0
   86.8020   48.8480   43.1630 C   0  0  0  0  0  3  0  0  0  0  0  0
   87.1510   47.6530   42.5090 C   0  0  0  0  0  3  0  0  0  0  0  0
   88.5030   47.3610   42.3620 C   0  0  0  0  0  0  0  0  0  0  0  0
   89.4740   48.2030   42.8310 C   0  0  0  0  0  0  0  0  0  0  0  0
   89.1670   49.3940   43.4830 C   0  0  0  0  0  3  0  0  0  0  0  0
   90.6930   47.6410   42.5190 C   0  0  0  0  0  3  0  0  0  0  0  0
   90.3870   46.4540   41.8610 C   0  0  0  0  0  3  0  0  0  0  0  0
   89.0470   46.2870   41.7680 N   0  0  0  0  0  0  0  0  0  0  0  0
   88.5700   45.5350   41.3500 H   0  0  0  0  0  0  0  0  0  0  0  0
  2  7  1  0  0  0  0
  2  1  1  0  0  0  0
  3  2  2  0  0  0  0
  4  9  1  6  0  0  0
  4  5  1  0  0  0  0
  4  3  1  0  0  0  0
  5  8  1  6  0  0  0
  5  6  1  0  0  0  0
  6  7  1  0  0  0  0
 10  9  2  0  0  0  0
 11 10  1  0  0  0  0
 12 11  2  0  0  0  0
 12 13  1  0  0  0  0
 13 14  2  0  0  0  0
 14  9  1  0  0  0  0
 15 13  1  0  0  0  0
 16 15  2  0  0  0  0
 17 16  1  0  0  0  0
 17 12  1  0  0  0  0
 18 17  1  0  0  0  0
 19  5  1  0  0  0  0
 20 19  2  0  0  0  0
 21 20  1  0  0  0  0
 22 21  2  0  0  0  0
 23 22  1  0  0  0  0
 24 23  2  0  0  0  0
 24 25  1  0  0  0  0
 25 26  2  0  0  0  0
 26 21  1  0  0  0  0
 27 25  1  0  0  0  0
 28 27  2  0  0  0  0
 29 28  1  0  0  0  0
 29 24  1  0  0  0  0
 30 29  1  0  0  0  0
M  END
>  <MODEL>
4

>  <REMARK>
 VINA RESULT:   -10.024      3.707      7.893
 INTER + INTRA:         -12.989
 INTER:                 -11.788
 INTRA:                  -1.201
 UNBOUND:                -1.207
  Name = 
  5 active torsions:
  status: ('A' for Active; 'I' for Inactive)
    1  A    between atoms: C_1  and  C_2
    2  A    between atoms: C_4  and  C_20
    3  A    between atoms: C_5  and  C_8
    4  A    between atoms: C_5  and  C_9
    5  A    between atoms: C_10  and  C_11
                            x       y       z     vdW  Elec       q    Type
                         _______ _______ _______ _____ _____    ______ ____

>  <TORSDO>
F 3

$$$$
=
 OpenBabel09092515023D

 30 34  0  0  1  0  0  0  0  0999 V2000
   91.4350   49.0880   42.6760 C   0  0  0  0  0  1  0  0  0  0  0  0
   89.9510   48.9150   42.8500 C   0  0  0  0  0  0  0  0  0  0  0  0
   89.3470   49.4840   43.9130 C   0  0  0  0  0  3  0  0  0  0  0  0
   87.8690   49.3220   44.2100 C   0  0  2  0  0  3  0  0  0  0  0  0
   87.0190   48.9910   42.9310 C   0  0  2  0  0  0  0  0  0  0  0  0
   87.7390   47.8410   42.1790 C   0  0  0  0  0  2  0  0  0  0  0  0
   89.1690   48.2130   41.7610 C   0  0  0  0  0  2  0  0  0  0  0  0
   86.8690   50.2290   42.0070 C   0  0  0  0  0  1  0  0  0  0  0  0
   87.3440   50.5110   45.0080 C   0  0  0  0  0  0  0  0  0  0  0  0
   87.2410   51.8060   44.4250 C   0  0  0  0  0  3  0  0  0  0  0  0
   86.7410   52.8930   45.1620 C   0  0  0  0  0  3  0  0  0  0  0  0
   86.3570   52.6650   46.4800 C   0  0  0  0  0  0  0  0  0  0  0  0
   86.4610   51.4290   47.0550 C   0  0  0  0  0  0  0  0  0  0  0  0
   86.9520   50.3300   46.3570 C   0  0  0  0  0  3  0  0  0  0  0  0
   86.0090   51.5390   48.3520 C   0  0  0  0  0  3  0  0  0  0  0  0
   85.6450   52.8730   48.4980 C   0  0  0  0  0  3  0  0  0  0  0  0
   85.8600   53.5580   47.3510 N   0  0  0  0  0  0  0  0  0  0  0  0
   85.6860   54.5130   47.1890 H   0  0  0  0  0  0  0  0  0  0  0  0
   85.6340   48.5050   43.3490 C   0  0  0  0  0  3  0  0  0  0  0  0
   84.5170   49.2250   43.1540 C   0  0  0  0  0  3  0  0  0  0  0  0
   83.1650   48.7740   43.5620 C   0  0  0  0  0  0  0  0  0  0  0  0
   82.2000   49.7590   43.9040 C   0  0  0  0  0  3  0  0  0  0  0  0
   80.8990   49.3930   44.2920 C   0  0  0  0  0  3  0  0  0  0  0  0
   80.5850   48.0380   44.3200 C   0  0  0  0  0  0  0  0  0  0  0  0
   81.5010   47.0810   43.9810 C   0  0  0  0  0  0  0  0  0  0  0  0
   82.7970   47.4050   43.5920 C   0  0  0  0  0  3  0  0  0  0  0  0
   80.8800   45.8560   44.0980 C   0  0  0  0  0  3  0  0  0  0  0  0
   79.5840   46.1450   44.5160 C   0  0  0  0  0  3  0  0  0  0  0  0
   79.4090   47.4790   44.6510 N   0  0  0  0  0  0  0  0  0  0  0  0
   78.5890   47.9450   44.9320 H   0  0  0  0  0  0  0  0  0  0  0  0
  1  2  1  0  0  0  0
  2  3  2  0  0  0  0
  3  4  1  0  0  0  0
  4  9  1  6  0  0  0
  5  8  1  6  0  0  0
  5 19  1  0  0  0  0
  5  4  1  0  0  0  0
  6  5  1  0  0  0  0
  7  6  1  0  0  0  0
  7  2  1  0  0  0  0
  9 14  1  0  0  0  0
 10  9  2  0  0  0  0
 10 11  1  0  0  0  0
 11 12  2  0  0  0  0
 12 13  1  0  0  0  0
 12 17  1  0  0  0  0
 13 15  1  0  0  0  0
 14 13  2  0  0  0  0
 15 16  2  0  0  0  0
 17 16  1  0  0  0  0
 18 17  1  0  0  0  0
 20 19  2  0  0  0  0
 20 21  1  0  0  0  0
 21 26  2  0  0  0  0
 21 22  1  0  0  0  0
 22 23  2  0  0  0  0
 23 24  1  0  0  0  0
 24 29  1  0  0  0  0
 25 27  1  0  0  0  0
 25 24  2  0  0  0  0
 26 25  1  0  0  0  0
 27 28  2  0  0  0  0
 28 29  1  0  0  0  0
 29 30  1  0  0  0  0
M  END
>  <MODEL>
5

>  <REMARK>
 VINA RESULT:    -9.910      2.680      4.885
 INTER + INTRA:         -12.855
 INTER:                 -11.907
 INTRA:                  -0.948
 UNBOUND:                -1.207
  Name = 
  5 active torsions:
  status: ('A' for Active; 'I' for Inactive)
    1  A    between atoms: C_1  and  C_2
    2  A    between atoms: C_4  and  C_20
    3  A    between atoms: C_5  and  C_8
    4  A    between atoms: C_5  and  C_9
    5  A    between atoms: C_10  and  C_11
                            x       y       z     vdW  Elec       q    Type
                         _______ _______ _______ _____ _____    ______ ____

>  <TORSDO>
F 3

$$$$
=
 OpenBabel09092515023D

 30 34  0  0  1  0  0  0  0  0999 V2000
   86.6910   56.4840   44.0050 C   0  0  0  0  0  1  0  0  0  0  0  0
   86.2200   55.0650   44.1610 C   0  0  0  0  0  0  0  0  0  0  0  0
   86.6770   54.1270   43.3070 C   0  0  0  0  0  3  0  0  0  0  0  0
   86.2210   52.6810   43.3440 C   0  0  2  0  0  3  0  0  0  0  0  0
   85.6920   52.2400   44.7560 C   0  0  2  0  0  0  0  0  0  0  0  0
   84.6980   53.3280   45.2410 C   0  0  0  0  0  2  0  0  0  0  0  0
   85.3470   54.7150   45.3470 C   0  0  0  0  0  2  0  0  0  0  0  0
   86.8500   52.0760   45.7750 C   0  0  0  0  0  1  0  0  0  0  0  0
   87.2940   51.7610   42.7730 C   0  0  0  0  0  0  0  0  0  0  0  0
   88.5050   52.2820   42.2350 C   0  0  0  0  0  3  0  0  0  0  0  0
   89.4970   51.4260   41.7250 C   0  0  0  0  0  3  0  0  0  0  0  0
   89.2560   50.0560   41.7570 C   0  0  0  0  0  0  0  0  0  0  0  0
   88.0930   49.5440   42.2620 C   0  0  0  0  0  0  0  0  0  0  0  0
   87.0880   50.3590   42.7730 C   0  0  0  0  0  3  0  0  0  0  0  0
   88.1620   48.1720   42.1450 C   0  0  0  0  0  3  0  0  0  0  0  0
   89.3980   47.9190   41.5590 C   0  0  0  0  0  3  0  0  0  0  0  0
   90.0630   49.0740   41.3250 N   0  0  0  0  0  0  0  0  0  0  0  0
   90.9540   49.1730   40.9200 H   0  0  0  0  0  0  0  0  0  0  0  0
   84.9410   50.9180   44.6310 C   0  0  0  0  0  3  0  0  0  0  0  0
   83.7690   50.8020   43.9850 C   0  0  0  0  0  3  0  0  0  0  0  0
   83.0190   49.5290   43.8620 C   0  0  0  0  0  0  0  0  0  0  0  0
   83.7490   48.3380   43.6040 C   0  0  0  0  0  3  0  0  0  0  0  0
   83.0940   47.1000   43.4850 C   0  0  0  0  0  3  0  0  0  0  0  0
   81.7110   47.0760   43.6370 C   0  0  0  0  0  0  0  0  0  0  0  0
   80.9980   48.2140   43.8980 C   0  0  0  0  0  0  0  0  0  0  0  0
   81.6120   49.4570   44.0230 C   0  0  0  0  0  3  0  0  0  0  0  0
   79.6730   47.8540   44.0040 C   0  0  0  0  0  3  0  0  0  0  0  0
   79.6520   46.4790   43.7940 C   0  0  0  0  0  3  0  0  0  0  0  0
   80.9000   46.0080   43.5690 N   0  0  0  0  0  0  0  0  0  0  0  0
   81.1610   45.0750   43.3940 H   0  0  0  0  0  0  0  0  0  0  0  0
  1  2  1  0  0  0  0
  2  7  1  0  0  0  0
  3  4  1  0  0  0  0
  3  2  2  0  0  0  0
  4  9  1  1  0  0  0
  4  5  1  0  0  0  0
  5  6  1  0  0  0  0
  5  8  1  1  0  0  0
  6  7  1  0  0  0  0
 10  9  2  0  0  0  0
 11 12  2  0  0  0  0
 11 10  1  0  0  0  0
 12 13  1  0  0  0  0
 13 14  2  0  0  0  0
 14  9  1  0  0  0  0
 15 13  1  0  0  0  0
 16 15  2  0  0  0  0
 17 16  1  0  0  0  0
 17 12  1  0  0  0  0
 18 17  1  0  0  0  0
 19  5  1  0  0  0  0
 20 19  2  0  0  0  0
 21 20  1  0  0  0  0
 21 26  1  0  0  0  0
 22 21  2  0  0  0  0
 23 22  1  0  0  0  0
 23 24  2  0  0  0  0
 24 25  1  0  0  0  0
 25 27  1  0  0  0  0
 25 26  2  0  0  0  0
 28 27  2  0  0  0  0
 29 24  1  0  0  0  0
 29 28  1  0  0  0  0
 30 29  1  0  0  0  0
M  END
>  <MODEL>
6

>  <REMARK>
 VINA RESULT:    -9.647      2.151      3.630
 INTER + INTRA:         -12.545
 INTER:                 -11.610
 INTRA:                  -0.935
 UNBOUND:                -1.207
  Name = 
  5 active torsions:
  status: ('A' for Active; 'I' for Inactive)
    1  A    between atoms: C_1  and  C_2
    2  A    between atoms: C_4  and  C_20
    3  A    between atoms: C_5  and  C_8
    4  A    between atoms: C_5  and  C_9
    5  A    between atoms: C_10  and  C_11
                            x       y       z     vdW  Elec       q    Type
                         _______ _______ _______ _____ _____    ______ ____

>  <TORSDO>
F 3

$$$$
=
 OpenBabel09092515023D

 30 34  0  0  1  0  0  0  0  0999 V2000
   84.4110   58.9320   46.1820 C   0  0  0  0  0  1  0  0  0  0  0  0
   85.0850   57.7790   45.4910 C   0  0  0  0  0  0  0  0  0  0  0  0
   85.6190   56.7920   46.2380 C   0  0  0  0  0  3  0  0  0  0  0  0
   86.3680   55.6160   45.6420 C   0  0  2  0  0  3  0  0  0  0  0  0
   85.9580   55.3170   44.1550 C   0  0  2  0  0  0  0  0  0  0  0  0
   85.9890   56.6630   43.3850 C   0  0  0  0  0  2  0  0  0  0  0  0
   85.0320   57.7050   43.9800 C   0  0  0  0  0  2  0  0  0  0  0  0
   84.5470   54.6780   44.0670 C   0  0  0  0  0  1  0  0  0  0  0  0
   86.2850   54.4000   46.5600 C   0  0  0  0  0  0  0  0  0  0  0  0
   85.5850   54.4560   47.7990 C   0  0  0  0  0  3  0  0  0  0  0  0
   85.4990   53.3270   48.6310 C   0  0  0  0  0  3  0  0  0  0  0  0
   86.1250   52.1580   48.2120 C   0  0  0  0  0  0  0  0  0  0  0  0
   86.8090   52.0950   47.0290 C   0  0  0  0  0  0  0  0  0  0  0  0
   86.9170   53.1910   46.1800 C   0  0  0  0  0  3  0  0  0  0  0  0
   87.3100   50.8160   46.9100 C   0  0  0  0  0  3  0  0  0  0  0  0
   86.8900   50.1530   48.0590 C   0  0  0  0  0  3  0  0  0  0  0  0
   86.1660   50.9780   48.8510 N   0  0  0  0  0  0  0  0  0  0  0  0
   85.7550   50.7570   49.7180 H   0  0  0  0  0  0  0  0  0  0  0  0
   86.9780   54.3730   43.5230 C   0  0  0  0  0  3  0  0  0  0  0  0
   86.6710   53.1280   43.1240 C   0  0  0  0  0  3  0  0  0  0  0  0
   87.6500   52.1940   42.5180 C   0  0  0  0  0  0  0  0  0  0  0  0
   88.1080   52.4570   41.2000 C   0  0  0  0  0  3  0  0  0  0  0  0
   89.0420   51.6120   40.5750 C   0  0  0  0  0  3  0  0  0  0  0  0
   89.5100   50.5160   41.2920 C   0  0  0  0  0  0  0  0  0  0  0  0
   89.0870   50.2580   42.5670 C   0  0  0  0  0  0  0  0  0  0  0  0
   88.1650   51.0720   43.2180 C   0  0  0  0  0  3  0  0  0  0  0  0
   89.7420   49.1240   42.9970 C   0  0  0  0  0  3  0  0  0  0  0  0
   90.5470   48.7420   41.9290 C   0  0  0  0  0  3  0  0  0  0  0  0
   90.4020   49.5960   40.8890 N   0  0  0  0  0  0  0  0  0  0  0  0
   90.8570   49.5530   40.0170 H   0  0  0  0  0  0  0  0  0  0  0  0
  2  1  1  0  0  0  0
  2  3  2  0  0  0  0
  4  3  1  0  0  0  0
  4  9  1  1  0  0  0
  5  8  1  6  0  0  0
  5  4  1  0  0  0  0
  6  7  1  0  0  0  0
  6  5  1  0  0  0  0
  7  2  1  0  0  0  0
  9 10  1  0  0  0  0
 10 11  2  0  0  0  0
 12 11  1  0  0  0  0
 12 17  1  0  0  0  0
 13 12  2  0  0  0  0
 14  9  2  0  0  0  0
 14 13  1  0  0  0  0
 15 13  1  0  0  0  0
 15 16  2  0  0  0  0
 16 17  1  0  0  0  0
 17 18  1  0  0  0  0
 19  5  1  0  0  0  0
 20 19  2  0  0  0  0
 21 20  1  0  0  0  0
 21 26  1  0  0  0  0
 22 21  2  0  0  0  0
 23 22  1  0  0  0  0
 23 24  2  0  0  0  0
 24 25  1  0  0  0  0
 25 27  1  0  0  0  0
 25 26  2  0  0  0  0
 28 27  2  0  0  0  0
 29 24  1  0  0  0  0
 29 28  1  0  0  0  0
 30 29  1  0  0  0  0
M  END
>  <MODEL>
7

>  <REMARK>
 VINA RESULT:    -9.570      4.837      8.078
 INTER + INTRA:         -12.455
 INTER:                 -11.644
 INTRA:                  -0.810
 UNBOUND:                -1.207
  Name = 
  5 active torsions:
  status: ('A' for Active; 'I' for Inactive)
    1  A    between atoms: C_1  and  C_2
    2  A    between atoms: C_4  and  C_20
    3  A    between atoms: C_5  and  C_8
    4  A    between atoms: C_5  and  C_9
    5  A    between atoms: C_10  and  C_11
                            x       y       z     vdW  Elec       q    Type
                         _______ _______ _______ _____ _____    ______ ____

>  <TORSDO>
F 3

$$$$
=
 OpenBabel09092515023D

 30 34  0  0  1  0  0  0  0  0999 V2000
   85.6240   55.9160   44.7270 C   0  0  0  0  0  1  0  0  0  0  0  0
   85.8270   54.5810   44.0650 C   0  0  0  0  0  0  0  0  0  0  0  0
   84.8540   53.6520   44.1560 C   0  0  0  0  0  3  0  0  0  0  0  0
   84.9830   52.2580   43.5730 C   0  0  2  0  0  3  0  0  0  0  0  0
   86.0070   52.1820   42.3850 C   0  0  2  0  0  0  0  0  0  0  0  0
   87.3040   52.9010   42.8420 C   0  0  0  0  0  2  0  0  0  0  0  0
   87.0630   54.3700   43.2170 C   0  0  0  0  0  2  0  0  0  0  0  0
   85.4460   52.8490   41.1010 C   0  0  0  0  0  1  0  0  0  0  0  0
   83.6100   51.6820   43.2410 C   0  0  0  0  0  0  0  0  0  0  0  0
   82.7220   52.3510   42.3510 C   0  0  0  0  0  3  0  0  0  0  0  0
   81.4660   51.8040   42.0380 C   0  0  0  0  0  3  0  0  0  0  0  0
   81.1150   50.5950   42.6290 C   0  0  0  0  0  0  0  0  0  0  0  0
   81.9540   49.9470   43.4920 C   0  0  0  0  0  0  0  0  0  0  0  0
   83.2040   50.4580   43.8280 C   0  0  0  0  0  3  0  0  0  0  0  0
   81.3170   48.7960   43.9000 C   0  0  0  0  0  3  0  0  0  0  0  0
   80.0910   48.8060   43.2440 C   0  0  0  0  0  3  0  0  0  0  0  0
   79.9720   49.9070   42.4670 N   0  0  0  0  0  0  0  0  0  0  0  0
   79.2060   50.1540   41.9010 H   0  0  0  0  0  0  0  0  0  0  0  0
   86.3410   50.7230   42.0900 C   0  0  0  0  0  3  0  0  0  0  0  0
   86.6780   49.8420   43.0470 C   0  0  0  0  0  3  0  0  0  0  0  0
   87.0150   48.4240   42.7790 C   0  0  0  0  0  0  0  0  0  0  0  0
   88.2160   48.1370   42.0770 C   0  0  0  0  0  3  0  0  0  0  0  0
   88.5930   46.8110   41.7990 C   0  0  0  0  0  3  0  0  0  0  0  0
   87.7590   45.7900   42.2430 C   0  0  0  0  0  0  0  0  0  0  0  0
   86.6070   46.0520   42.9320 C   0  0  0  0  0  0  0  0  0  0  0  0
   86.2020   47.3520   43.2260 C   0  0  0  0  0  3  0  0  0  0  0  0
   86.0240   44.8410   43.2370 C   0  0  0  0  0  3  0  0  0  0  0  0
   86.8770   43.8830   42.6990 C   0  0  0  0  0  3  0  0  0  0  0  0
   87.9360   44.4670   42.0930 N   0  0  0  0  0  0  0  0  0  0  0  0
   88.6820   44.0170   41.6360 H   0  0  0  0  0  0  0  0  0  0  0  0
  2  3  2  0  0  0  0
  2  1  1  0  0  0  0
  4  9  1  6  0  0  0
  4  3  1  0  0  0  0
  5  8  1  6  0  0  0
  5  6  1  0  0  0  0
  5  4  1  0  0  0  0
  6  7  1  0  0  0  0
  7  2  1  0  0  0  0
  9 14  1  0  0  0  0
 10  9  2  0  0  0  0
 11 10  1  0  0  0  0
 11 12  2  0  0  0  0
 12 13  1  0  0  0  0
 13 14  2  0  0  0  0
 13 15  1  0  0  0  0
 16 15  2  0  0  0  0
 17 12  1  0  0  0  0
 17 16  1  0  0  0  0
 18 17  1  0  0  0  0
 19  5  1  0  0  0  0
 19 20  2  0  0  0  0
 21 20  1  0  0  0  0
 21 26  1  0  0  0  0
 22 21  2  0  0  0  0
 23 22  1  0  0  0  0
 23 24  2  0  0  0  0
 24 25  1  0  0  0  0
 25 26  2  0  0  0  0
 25 27  1  0  0  0  0
 28 27  2  0  0  0  0
 29 24  1  0  0  0  0
 29 28  1  0  0  0  0
 30 29  1  0  0  0  0
M  END
>  <MODEL>
8

>  <REMARK>
 VINA RESULT:    -9.436      1.791      6.471
 INTER + INTRA:         -12.298
 INTER:                 -11.138
 INTRA:                  -1.159
 UNBOUND:                -1.207
  Name = 
  5 active torsions:
  status: ('A' for Active; 'I' for Inactive)
    1  A    between atoms: C_1  and  C_2
    2  A    between atoms: C_4  and  C_20
    3  A    between atoms: C_5  and  C_8
    4  A    between atoms: C_5  and  C_9
    5  A    between atoms: C_10  and  C_11
                            x       y       z     vdW  Elec       q    Type
                         _______ _______ _______ _____ _____    ______ ____

>  <TORSDO>
F 3

$$$$
=
 OpenBabel09092515023D

 30 34  0  0  1  0  0  0  0  0999 V2000
   84.6310   57.1810   43.0580 C   0  0  0  0  0  1  0  0  0  0  0  0
   85.0460   55.7370   43.0050 C   0  0  0  0  0  0  0  0  0  0  0  0
   85.5120   55.1480   44.1250 C   0  0  0  0  0  3  0  0  0  0  0  0
   86.0070   53.7160   44.1630 C   0  0  2  0  0  3  0  0  0  0  0  0
   85.3900   52.8230   43.0280 C   0  0  2  0  0  0  0  0  0  0  0  0
   85.5290   53.6040   41.6940 C   0  0  0  0  0  2  0  0  0  0  0  0
   84.8090   54.9590   41.7280 C   0  0  0  0  0  2  0  0  0  0  0  0
   83.9000   52.4910   43.3060 C   0  0  0  0  0  1  0  0  0  0  0  0
   85.8540   53.1280   45.5620 C   0  0  0  0  0  0  0  0  0  0  0  0
   86.7760   52.1650   46.0640 C   0  0  0  0  0  3  0  0  0  0  0  0
   86.6380   51.6410   47.3610 C   0  0  0  0  0  3  0  0  0  0  0  0
   85.5700   52.0840   48.1330 C   0  0  0  0  0  0  0  0  0  0  0  0
   84.6720   53.0000   47.6590 C   0  0  0  0  0  0  0  0  0  0  0  0
   84.7750   53.5410   46.3810 C   0  0  0  0  0  3  0  0  0  0  0  0
   83.7440   53.2220   48.6540 C   0  0  0  0  0  3  0  0  0  0  0  0
   84.1410   52.4060   49.7080 C   0  0  0  0  0  3  0  0  0  0  0  0
   85.2570   51.7130   49.3860 N   0  0  0  0  0  0  0  0  0  0  0  0
   85.7400   51.0690   49.9520 H   0  0  0  0  0  0  0  0  0  0  0  0
   86.1820   51.5230   42.9120 C   0  0  0  0  0  3  0  0  0  0  0  0
   87.4240   51.4670   42.4030 C   0  0  0  0  0  3  0  0  0  0  0  0
   88.2040   50.2130   42.2730 C   0  0  0  0  0  0  0  0  0  0  0  0
   89.6100   50.3090   42.0980 C   0  0  0  0  0  3  0  0  0  0  0  0
   90.4050   49.1550   41.9760 C   0  0  0  0  0  3  0  0  0  0  0  0
   89.7720   47.9180   42.0440 C   0  0  0  0  0  0  0  0  0  0  0  0
   88.4200   47.8120   42.2260 C   0  0  0  0  0  0  0  0  0  0  0  0
   87.6020   48.9310   42.3510 C   0  0  0  0  0  3  0  0  0  0  0  0
   88.1130   46.4690   42.2620 C   0  0  0  0  0  3  0  0  0  0  0  0
   89.3290   45.8140   42.0930 C   0  0  0  0  0  3  0  0  0  0  0  0
   90.3400   46.7040   41.9590 N   0  0  0  0  0  0  0  0  0  0  0  0
   91.2940   46.5030   41.8290 H   0  0  0  0  0  0  0  0  0  0  0  0
  2  1  1  0  0  0  0
  2  3  2  0  0  0  0
  3  4  1  0  0  0  0
  4  9  1  1  0  0  0
  5  8  1  1  0  0  0
  5  4  1  0  0  0  0
  6  7  1  0  0  0  0
  6  5  1  0  0  0  0
  7  2  1  0  0  0  0
  9 10  2  0  0  0  0
  9 14  1  0  0  0  0
 10 11  1  0  0  0  0
 11 12  2  0  0  0  0
 12 17  1  0  0  0  0
 13 12  1  0  0  0  0
 13 15  1  0  0  0  0
 14 13  2  0  0  0  0
 15 16  2  0  0  0  0
 17 16  1  0  0  0  0
 17 18  1  0  0  0  0
 19  5  1  0  0  0  0
 20 19  2  0  0  0  0
 21 26  1  0  0  0  0
 21 20  1  0  0  0  0
 22 21  2  0  0  0  0
 23 24  2  0  0  0  0
 23 22  1  0  0  0  0
 24 25  1  0  0  0  0
 25 27  1  0  0  0  0
 25 26  2  0  0  0  0
 28 27  2  0  0  0  0
 29 24  1  0  0  0  0
 29 28  1  0  0  0  0
 30 29  1  0  0  0  0
M  END
>  <MODEL>
9

>  <REMARK>
 VINA RESULT:    -9.299      3.758      7.553
 INTER + INTRA:         -12.137
 INTER:                 -10.930
 INTRA:                  -1.207
 UNBOUND:                -1.207
  Name = 
  5 active torsions:
  status: ('A' for Active; 'I' for Inactive)
    1  A    between atoms: C_1  and  C_2
    2  A    between atoms: C_4  and  C_20
    3  A    between atoms: C_5  and  C_8
    4  A    between atoms: C_5  and  C_9
    5  A    between atoms: C_10  and  C_11
                            x       y       z     vdW  Elec       q    Type
                         _______ _______ _______ _____ _____    ______ ____

>  <TORSDO>
F 3

$$$$
