=
 OpenBabel08112514243D

 30 34  0  0  1  0  0  0  0  0999 V2000
   89.9670   52.3470   41.1960 C   0  0  0  0  0  1  0  0  0  0  0  0
   88.8050   51.6410   41.8380 C   0  0  0  0  0  0  0  0  0  0  0  0
   88.6580   50.3150   41.6440 C   0  0  0  0  0  3  0  0  0  0  0  0
   87.4920   49.5210   42.2000 C   0  0  2  0  0  3  0  0  0  0  0  0
   86.8450   50.1860   43.4670 C   0  0  2  0  0  0  0  0  0  0  0  0
   86.6120   51.6850   43.1380 C   0  0  0  0  0  2  0  0  0  0  0  0
   87.9120   52.4190   42.7810 C   0  0  0  0  0  2  0  0  0  0  0  0
   87.7540   50.0440   44.7160 C   0  0  0  0  0  1  0  0  0  0  0  0
   87.8790   48.0590   42.4010 C   0  0  0  0  0  0  0  0  0  0  0  0
   89.2420   47.6470   42.3880 C   0  0  0  0  0  3  0  0  0  0  0  0
   89.5920   46.3010   42.5910 C   0  0  0  0  0  3  0  0  0  0  0  0
   88.5660   45.3850   42.7970 C   0  0  0  0  0  0  0  0  0  0  0  0
   87.2530   45.7660   42.8020 C   0  0  0  0  0  0  0  0  0  0  0  0
   86.8680   47.0880   42.6030 C   0  0  0  0  0  3  0  0  0  0  0  0
   86.4960   44.6360   43.0250 C   0  0  0  0  0  3  0  0  0  0  0  0
   87.4170   43.6010   43.1470 C   0  0  0  0  0  3  0  0  0  0  0  0
   88.6800   44.0630   43.0080 N   0  0  0  0  0  0  0  0  0  0  0  0
   89.5130   43.5390   43.0510 H   0  0  0  0  0  0  0  0  0  0  0  0
   85.4930   49.5370   43.7520 C   0  0  0  0  0  3  0  0  0  0  0  0
   84.3320   50.0410   43.3030 C   0  0  0  0  0  3  0  0  0  0  0  0
   83.0090   49.4310   43.5780 C   0  0  0  0  0  0  0  0  0  0  0  0
   81.8510   50.2440   43.4480 C   0  0  0  0  0  3  0  0  0  0  0  0
   80.5690   49.7200   43.6890 C   0  0  0  0  0  3  0  0  0  0  0  0
   80.4690   48.3800   44.0470 C   0  0  0  0  0  0  0  0  0  0  0  0
   81.5750   47.5830   44.1620 C   0  0  0  0  0  0  0  0  0  0  0  0
   82.8600   48.0660   43.9310 C   0  0  0  0  0  3  0  0  0  0  0  0
   81.1400   46.3230   44.5120 C   0  0  0  0  0  3  0  0  0  0  0  0
   79.7550   46.4270   44.5950 C   0  0  0  0  0  3  0  0  0  0  0  0
   79.3500   47.6860   44.3100 N   0  0  0  0  0  0  0  0  0  0  0  0
   78.4250   48.0230   44.2980 H   0  0  0  0  0  0  0  0  0  0  0  0
  1  2  1  0  0  0  0
  2  7  1  0  0  0  0
  3  2  2  0  0  0  0
  3  4  1  0  0  0  0
  4  9  1  1  0  0  0
  4  5  1  0  0  0  0
  5 19  1  0  0  0  0
  5  8  1  1  0  0  0
  6  5  1  0  0  0  0
  7  6  1  0  0  0  0
  9 14  1  0  0  0  0
 10  9  2  0  0  0  0
 10 11  1  0  0  0  0
 11 12  2  0  0  0  0
 12 13  1  0  0  0  0
 12 17  1  0  0  0  0
 13 15  1  0  0  0  0
 14 13  2  0  0  0  0
 15 16  2  0  0  0  0
 17 18  1  0  0  0  0
 17 16  1  0  0  0  0
 20 21  1  0  0  0  0
 20 19  2  0  0  0  0
 21 26  1  0  0  0  0
 22 21  2  0  0  0  0
 22 23  1  0  0  0  0
 23 24  2  0  0  0  0
 24 25  1  0  0  0  0
 24 29  1  0  0  0  0
 25 27  1  0  0  0  0
 26 25  2  0  0  0  0
 27 28  2  0  0  0  0
 29 28  1  0  0  0  0
 30 29  1  0  0  0  0
M  END
>  <MODEL>
1

>  <REMARK>
 VINA RESULT:   -10.390      0.000      0.000
 INTER + INTRA:         -13.178
 INTER:                 -12.005
 INTRA:                  -1.173
 UNBOUND:                -0.966
  Name = 
  5 active torsions:
  status: ('A' for Active; 'I' for Inactive)
    1  A    between atoms: C_1  and  C_2
    2  A    between atoms: C_4  and  C_20
    3  A    between atoms: C_5  and  C_8
    4  A    between atoms: C_5  and  C_9
    5  A    between atoms: C_10  and  C_11
                            x       y       z     vdW  Elec       q    Type
                         _______ _______ _______ _____ _____    ______ ____

>  <TORSDO>
F 3

$$$$
=
 OpenBabel08112514243D

 30 34  0  0  1  0  0  0  0  0999 V2000
   83.6690   55.3050   48.8170 C   0  0  0  0  0  1  0  0  0  0  0  0
   84.3840   54.2360   48.0370 C   0  0  0  0  0  0  0  0  0  0  0  0
   83.8940   53.8630   46.8380 C   0  0  0  0  0  3  0  0  0  0  0  0
   84.5080   52.7580   46.0000 C   0  0  2  0  0  3  0  0  0  0  0  0
   86.0280   52.5210   46.3150 C   0  0  2  0  0  0  0  0  0  0  0  0
   86.1750   52.4310   47.8570 C   0  0  0  0  0  2  0  0  0  0  0  0
   85.6960   53.7030   48.5700 C   0  0  0  0  0  2  0  0  0  0  0  0
   86.9140   53.6650   45.7550 C   0  0  0  0  0  1  0  0  0  0  0  0
   84.2110   52.9730   44.5200 C   0  0  0  0  0  0  0  0  0  0  0  0
   83.6970   51.9210   43.7090 C   0  0  0  0  0  3  0  0  0  0  0  0
   83.4100   52.1320   42.3490 C   0  0  0  0  0  3  0  0  0  0  0  0
   83.6510   53.3950   41.8200 C   0  0  0  0  0  0  0  0  0  0  0  0
   84.1540   54.4110   42.5860 C   0  0  0  0  0  0  0  0  0  0  0  0
   84.4510   54.2390   43.9340 C   0  0  0  0  0  3  0  0  0  0  0  0
   84.2790   55.5170   41.7730 C   0  0  0  0  0  3  0  0  0  0  0  0
   83.8330   55.1010   40.5230 C   0  0  0  0  0  3  0  0  0  0  0  0
   83.4500   53.8050   40.5560 N   0  0  0  0  0  0  0  0  0  0  0  0
   83.0960   53.2710   39.8090 H   0  0  0  0  0  0  0  0  0  0  0  0
   86.4760   51.1940   45.7070 C   0  0  0  0  0  3  0  0  0  0  0  0
   87.2110   51.1160   44.5860 C   0  0  0  0  0  3  0  0  0  0  0  0
   87.6460   49.8370   43.9750 C   0  0  0  0  0  0  0  0  0  0  0  0
   86.6710   48.8290   43.7530 C   0  0  0  0  0  3  0  0  0  0  0  0
   87.0220   47.5980   43.1710 C   0  0  0  0  0  3  0  0  0  0  0  0
   88.3510   47.4040   42.8080 C   0  0  0  0  0  0  0  0  0  0  0  0
   89.2970   48.3720   43.0040 C   0  0  0  0  0  0  0  0  0  0  0  0
   88.9870   49.6020   43.5770 C   0  0  0  0  0  3  0  0  0  0  0  0
   90.4940   47.8790   42.5320 C   0  0  0  0  0  3  0  0  0  0  0  0
   90.2020   46.6020   42.0640 C   0  0  0  0  0  3  0  0  0  0  0  0
   88.8910   46.3160   42.2360 N   0  0  0  0  0  0  0  0  0  0  0  0
   88.4280   45.4830   41.9900 H   0  0  0  0  0  0  0  0  0  0  0  0
  2  7  1  0  0  0  0
  2  1  1  0  0  0  0
  3  2  2  0  0  0  0
  4  9  1  6  0  0  0
  4  5  1  0  0  0  0
  4  3  1  0  0  0  0
  5  8  1  6  0  0  0
  5  6  1  0  0  0  0
  6  7  1  0  0  0  0
 10  9  2  0  0  0  0
 11 10  1  0  0  0  0
 12 11  2  0  0  0  0
 12 13  1  0  0  0  0
 13 14  2  0  0  0  0
 14  9  1  0  0  0  0
 15 13  1  0  0  0  0
 16 17  1  0  0  0  0
 16 15  2  0  0  0  0
 17 12  1  0  0  0  0
 18 17  1  0  0  0  0
 19  5  1  0  0  0  0
 20 19  2  0  0  0  0
 21 20  1  0  0  0  0
 22 21  1  0  0  0  0
 23 22  2  0  0  0  0
 24 25  2  0  0  0  0
 24 23  1  0  0  0  0
 25 26  1  0  0  0  0
 26 21  2  0  0  0  0
 27 25  1  0  0  0  0
 28 29  1  0  0  0  0
 28 27  2  0  0  0  0
 29 24  1  0  0  0  0
 30 29  1  0  0  0  0
M  END
>  <MODEL>
2

>  <REMARK>
 VINA RESULT:   -10.322      3.771      7.899
 INTER + INTRA:         -13.098
 INTER:                 -11.886
 INTRA:                  -1.213
 UNBOUND:                -0.966
  Name = 
  5 active torsions:
  status: ('A' for Active; 'I' for Inactive)
    1  A    between atoms: C_1  and  C_2
    2  A    between atoms: C_4  and  C_20
    3  A    between atoms: C_5  and  C_8
    4  A    between atoms: C_5  and  C_9
    5  A    between atoms: C_10  and  C_11
                            x       y       z     vdW  Elec       q    Type
                         _______ _______ _______ _____ _____    ______ ____

>  <TORSDO>
F 3

$$$$
=
 OpenBabel08112514243D

 30 34  0  0  1  0  0  0  0  0999 V2000
   86.4570   51.7170   49.3640 C   0  0  0  0  0  1  0  0  0  0  0  0
   85.9660   52.1840   48.0220 C   0  0  0  0  0  0  0  0  0  0  0  0
   86.7950   52.1110   46.9610 C   0  0  0  0  0  3  0  0  0  0  0  0
   86.4170   52.6070   45.5790 C   0  0  2  0  0  3  0  0  0  0  0  0
   84.8650   52.6320   45.3390 C   0  0  2  0  0  0  0  0  0  0  0  0
   84.2160   53.3290   46.5630 C   0  0  0  0  0  2  0  0  0  0  0  0
   84.5190   52.6050   47.8830 C   0  0  0  0  0  2  0  0  0  0  0  0
   84.2900   51.2010   45.1650 C   0  0  0  0  0  1  0  0  0  0  0  0
   87.1950   51.8570   44.5030 C   0  0  0  0  0  0  0  0  0  0  0  0
   87.6420   50.5200   44.7100 C   0  0  0  0  0  3  0  0  0  0  0  0
   88.3440   49.8300   43.7070 C   0  0  0  0  0  3  0  0  0  0  0  0
   88.5950   50.4940   42.5120 C   0  0  0  0  0  0  0  0  0  0  0  0
   88.1800   51.7810   42.3040 C   0  0  0  0  0  0  0  0  0  0  0  0
   87.4850   52.4970   43.2730 C   0  0  0  0  0  3  0  0  0  0  0  0
   88.5850   52.1450   41.0380 C   0  0  0  0  0  3  0  0  0  0  0  0
   89.2410   51.0280   40.5310 C   0  0  0  0  0  3  0  0  0  0  0  0
   89.2440   50.0220   41.4350 N   0  0  0  0  0  0  0  0  0  0  0  0
   89.6410   49.1280   41.3260 H   0  0  0  0  0  0  0  0  0  0  0  0
   84.5530   53.4540   44.0920 C   0  0  0  0  0  3  0  0  0  0  0  0
   83.6820   53.0530   43.1510 C   0  0  0  0  0  3  0  0  0  0  0  0
   83.3740   53.8330   41.9280 C   0  0  0  0  0  0  0  0  0  0  0  0
   82.0170   54.1450   41.6500 C   0  0  0  0  0  3  0  0  0  0  0  0
   81.6630   54.8870   40.5100 C   0  0  0  0  0  3  0  0  0  0  0  0
   82.6860   55.3160   39.6690 C   0  0  0  0  0  0  0  0  0  0  0  0
   83.9980   55.0340   39.9320 C   0  0  0  0  0  0  0  0  0  0  0  0
   84.3860   54.3010   41.0510 C   0  0  0  0  0  3  0  0  0  0  0  0
   84.7510   55.6040   38.9290 C   0  0  0  0  0  3  0  0  0  0  0  0
   83.8290   56.2160   38.0860 C   0  0  0  0  0  3  0  0  0  0  0  0
   82.5680   56.0370   38.5430 N   0  0  0  0  0  0  0  0  0  0  0  0
   81.7360   56.3680   38.1340 H   0  0  0  0  0  0  0  0  0  0  0  0
  2  1  1  0  0  0  0
  3  2  2  0  0  0  0
  4  9  1  6  0  0  0
  4  3  1  0  0  0  0
  5  8  1  6  0  0  0
  5  4  1  0  0  0  0
  5  6  1  0  0  0  0
  6  7  1  0  0  0  0
  7  2  1  0  0  0  0
  9 10  1  0  0  0  0
 11 10  2  0  0  0  0
 12 11  1  0  0  0  0
 13 12  2  0  0  0  0
 13 14  1  0  0  0  0
 14  9  2  0  0  0  0
 15 13  1  0  0  0  0
 16 15  2  0  0  0  0
 16 17  1  0  0  0  0
 17 12  1  0  0  0  0
 18 17  1  0  0  0  0
 19  5  1  0  0  0  0
 20 19  2  0  0  0  0
 21 20  1  0  0  0  0
 22 21  1  0  0  0  0
 23 22  2  0  0  0  0
 24 25  2  0  0  0  0
 24 23  1  0  0  0  0
 25 26  1  0  0  0  0
 26 21  2  0  0  0  0
 27 25  1  0  0  0  0
 28 29  1  0  0  0  0
 28 27  2  0  0  0  0
 29 24  1  0  0  0  0
 30 29  1  0  0  0  0
M  END
>  <MODEL>
3

>  <REMARK>
 VINA RESULT:   -10.063      4.389      6.773
 INTER + INTRA:         -12.794
 INTER:                 -11.478
 INTRA:                  -1.317
 UNBOUND:                -0.966
  Name = 
  5 active torsions:
  status: ('A' for Active; 'I' for Inactive)
    1  A    between atoms: C_1  and  C_2
    2  A    between atoms: C_4  and  C_20
    3  A    between atoms: C_5  and  C_8
    4  A    between atoms: C_5  and  C_9
    5  A    between atoms: C_10  and  C_11
                            x       y       z     vdW  Elec       q    Type
                         _______ _______ _______ _____ _____    ______ ____

>  <TORSDO>
F 3

$$$$
=
 OpenBabel08112514243D

 30 34  0  0  1  0  0  0  0  0999 V2000
   88.8210   47.6390   42.5700 C   0  0  0  0  0  1  0  0  0  0  0  0
   88.0230   48.7240   43.2390 C   0  0  0  0  0  0  0  0  0  0  0  0
   86.6880   48.7620   43.0560 C   0  0  0  0  0  3  0  0  0  0  0  0
   85.8030   49.8460   43.6390 C   0  0  2  0  0  3  0  0  0  0  0  0
   86.4210   50.5230   44.9140 C   0  0  2  0  0  0  0  0  0  0  0  0
   87.8910   50.8890   44.5800 C   0  0  0  0  0  2  0  0  0  0  0  0
   88.7300   49.6620   44.1940 C   0  0  0  0  0  2  0  0  0  0  0  0
   86.3660   49.5820   46.1460 C   0  0  0  0  0  1  0  0  0  0  0  0
   84.3810   49.3320   43.8420 C   0  0  0  0  0  0  0  0  0  0  0  0
   83.2990   50.2260   44.0840 C   0  0  0  0  0  3  0  0  0  0  0  0
   81.9890   49.7450   44.2540 C   0  0  0  0  0  3  0  0  0  0  0  0
   81.7840   48.3720   44.1850 C   0  0  0  0  0  0  0  0  0  0  0  0
   82.8160   47.5020   43.9620 C   0  0  0  0  0  0  0  0  0  0  0  0
   84.1260   47.9400   43.7920 C   0  0  0  0  0  3  0  0  0  0  0  0
   82.2880   46.2290   43.9560 C   0  0  0  0  0  3  0  0  0  0  0  0
   80.9260   46.3990   44.1800 C   0  0  0  0  0  3  0  0  0  0  0  0
   80.6230   47.7100   44.3190 N   0  0  0  0  0  0  0  0  0  0  0  0
   79.7340   48.1000   44.4840 H   0  0  0  0  0  0  0  0  0  0  0  0
   85.6620   51.8090   45.2290 C   0  0  0  0  0  3  0  0  0  0  0  0
   86.1370   52.7540   46.0570 C   0  0  0  0  0  3  0  0  0  0  0  0
   85.4100   54.0040   46.3830 C   0  0  0  0  0  0  0  0  0  0  0  0
   84.3690   53.9480   47.3470 C   0  0  0  0  0  3  0  0  0  0  0  0
   83.6490   55.1010   47.7040 C   0  0  0  0  0  3  0  0  0  0  0  0
   83.9950   56.3010   47.0900 C   0  0  0  0  0  0  0  0  0  0  0  0
   85.0040   56.3720   46.1700 C   0  0  0  0  0  0  0  0  0  0  0  0
   85.7390   55.2510   45.7920 C   0  0  0  0  0  3  0  0  0  0  0  0
   85.1040   57.6860   45.7670 C   0  0  0  0  0  3  0  0  0  0  0  0
   84.1200   58.3600   46.4830 C   0  0  0  0  0  3  0  0  0  0  0  0
   83.4450   57.5100   47.2900 N   0  0  0  0  0  0  0  0  0  0  0  0
   82.7040   57.7310   47.8990 H   0  0  0  0  0  0  0  0  0  0  0  0
  1  2  1  0  0  0  0
  2  7  1  0  0  0  0
  3  2  2  0  0  0  0
  3  4  1  0  0  0  0
  4  9  1  1  0  0  0
  4  5  1  0  0  0  0
  5 19  1  0  0  0  0
  5  8  1  1  0  0  0
  6  5  1  0  0  0  0
  7  6  1  0  0  0  0
  9 10  1  0  0  0  0
 10 11  2  0  0  0  0
 12 11  1  0  0  0  0
 12 17  1  0  0  0  0
 13 12  2  0  0  0  0
 14  9  2  0  0  0  0
 14 13  1  0  0  0  0
 15 13  1  0  0  0  0
 15 16  2  0  0  0  0
 16 17  1  0  0  0  0
 17 18  1  0  0  0  0
 19 20  2  0  0  0  0
 20 21  1  0  0  0  0
 21 22  1  0  0  0  0
 22 23  2  0  0  0  0
 24 29  1  0  0  0  0
 24 23  1  0  0  0  0
 25 24  2  0  0  0  0
 26 25  1  0  0  0  0
 26 21  2  0  0  0  0
 27 25  1  0  0  0  0
 27 28  2  0  0  0  0
 28 29  1  0  0  0  0
 29 30  1  0  0  0  0
M  END
>  <MODEL>
4

>  <REMARK>
 VINA RESULT:    -9.884      4.005      6.738
 INTER + INTRA:         -12.584
 INTER:                 -11.613
 INTRA:                  -0.971
 UNBOUND:                -0.966
  Name = 
  5 active torsions:
  status: ('A' for Active; 'I' for Inactive)
    1  A    between atoms: C_1  and  C_2
    2  A    between atoms: C_4  and  C_20
    3  A    between atoms: C_5  and  C_8
    4  A    between atoms: C_5  and  C_9
    5  A    between atoms: C_10  and  C_11
                            x       y       z     vdW  Elec       q    Type
                         _______ _______ _______ _____ _____    ______ ____

>  <TORSDO>
F 3

$$$$
=
 OpenBabel08112514243D

 30 34  0  0  1  0  0  0  0  0999 V2000
   84.2100   58.8770   46.1910 C   0  0  0  0  0  1  0  0  0  0  0  0
   84.8740   57.7150   45.5050 C   0  0  0  0  0  0  0  0  0  0  0  0
   85.4730   56.7680   46.2550 C   0  0  0  0  0  3  0  0  0  0  0  0
   86.2180   55.5880   45.6610 C   0  0  2  0  0  3  0  0  0  0  0  0
   85.7350   55.2260   44.2110 C   0  0  2  0  0  0  0  0  0  0  0  0
   85.6900   56.5430   43.3930 C   0  0  0  0  0  2  0  0  0  0  0  0
   84.7410   57.5840   44.0030 C   0  0  0  0  0  2  0  0  0  0  0  0
   84.3380   54.5510   44.2240 C   0  0  0  0  0  1  0  0  0  0  0  0
   86.2160   54.4060   46.6250 C   0  0  0  0  0  0  0  0  0  0  0  0
   85.5080   54.4600   47.8600 C   0  0  0  0  0  3  0  0  0  0  0  0
   85.4980   53.3600   48.7350 C   0  0  0  0  0  3  0  0  0  0  0  0
   86.2050   52.2220   48.3610 C   0  0  0  0  0  0  0  0  0  0  0  0
   86.8960   52.1620   47.1820 C   0  0  0  0  0  0  0  0  0  0  0  0
   86.9310   53.2300   46.2920 C   0  0  0  0  0  3  0  0  0  0  0  0
   87.4840   50.9170   47.1130 C   0  0  0  0  0  3  0  0  0  0  0  0
   87.1070   50.2710   48.2860 C   0  0  0  0  0  3  0  0  0  0  0  0
   86.3250   51.0730   49.0450 N   0  0  0  0  0  0  0  0  0  0  0  0
   85.9260   50.8580   49.9190 H   0  0  0  0  0  0  0  0  0  0  0  0
   86.7430   54.2840   43.5570 C   0  0  0  0  0  3  0  0  0  0  0  0
   86.4580   53.0060   43.2550 C   0  0  0  0  0  3  0  0  0  0  0  0
   87.4260   52.0730   42.6300 C   0  0  0  0  0  0  0  0  0  0  0  0
   87.8460   52.3290   41.2980 C   0  0  0  0  0  3  0  0  0  0  0  0
   88.7670   51.4840   40.6540 C   0  0  0  0  0  3  0  0  0  0  0  0
   89.2630   50.3970   41.3670 C   0  0  0  0  0  0  0  0  0  0  0  0
   88.8780   50.1480   42.6560 C   0  0  0  0  0  0  0  0  0  0  0  0
   87.9680   50.9610   43.3250 C   0  0  0  0  0  3  0  0  0  0  0  0
   89.5510   49.0220   43.0770 C   0  0  0  0  0  3  0  0  0  0  0  0
   90.3290   48.6360   41.9890 C   0  0  0  0  0  3  0  0  0  0  0  0
   90.1500   49.4800   40.9470 N   0  0  0  0  0  0  0  0  0  0  0  0
   90.5810   49.4320   40.0630 H   0  0  0  0  0  0  0  0  0  0  0  0
  2  1  1  0  0  0  0
  2  3  2  0  0  0  0
  4  3  1  0  0  0  0
  4  9  1  1  0  0  0
  5  8  1  1  0  0  0
  5  4  1  0  0  0  0
  6  7  1  0  0  0  0
  6  5  1  0  0  0  0
  7  2  1  0  0  0  0
  9 10  1  0  0  0  0
 10 11  2  0  0  0  0
 12 11  1  0  0  0  0
 12 17  1  0  0  0  0
 13 12  2  0  0  0  0
 14  9  2  0  0  0  0
 14 13  1  0  0  0  0
 15 13  1  0  0  0  0
 15 16  2  0  0  0  0
 16 17  1  0  0  0  0
 17 18  1  0  0  0  0
 19  5  1  0  0  0  0
 20 19  2  0  0  0  0
 21 20  1  0  0  0  0
 21 26  1  0  0  0  0
 22 21  2  0  0  0  0
 23 22  1  0  0  0  0
 23 24  2  0  0  0  0
 24 25  1  0  0  0  0
 25 27  1  0  0  0  0
 25 26  2  0  0  0  0
 28 27  2  0  0  0  0
 29 24  1  0  0  0  0
 29 28  1  0  0  0  0
 30 29  1  0  0  0  0
M  END
>  <MODEL>
5

>  <REMARK>
 VINA RESULT:    -9.817      4.805      7.999
 INTER + INTRA:         -12.505
 INTER:                 -11.605
 INTRA:                  -0.900
 UNBOUND:                -0.966
  Name = 
  5 active torsions:
  status: ('A' for Active; 'I' for Inactive)
    1  A    between atoms: C_1  and  C_2
    2  A    between atoms: C_4  and  C_20
    3  A    between atoms: C_5  and  C_8
    4  A    between atoms: C_5  and  C_9
    5  A    between atoms: C_10  and  C_11
                            x       y       z     vdW  Elec       q    Type
                         _______ _______ _______ _____ _____    ______ ____

>  <TORSDO>
F 3

$$$$
=
 OpenBabel08112514243D

 30 34  0  0  1  0  0  0  0  0999 V2000
   86.5220   56.6990   44.3140 C   0  0  0  0  0  1  0  0  0  0  0  0
   86.0670   55.2730   44.4570 C   0  0  0  0  0  0  0  0  0  0  0  0
   86.4900   54.3580   43.5610 C   0  0  0  0  0  3  0  0  0  0  0  0
   86.0450   52.9090   43.5840 C   0  0  2  0  0  3  0  0  0  0  0  0
   85.5830   52.4310   45.0070 C   0  0  2  0  0  0  0  0  0  0  0  0
   84.6040   53.5000   45.5620 C   0  0  0  0  0  2  0  0  0  0  0  0
   85.2490   54.8890   45.6720 C   0  0  0  0  0  2  0  0  0  0  0  0
   86.7860   52.2510   45.9690 C   0  0  0  0  0  1  0  0  0  0  0  0
   87.0970   52.0100   42.9430 C   0  0  0  0  0  0  0  0  0  0  0  0
   88.2770   52.5530   42.3590 C   0  0  0  0  0  3  0  0  0  0  0  0
   89.2490   51.7160   41.7850 C   0  0  0  0  0  3  0  0  0  0  0  0
   89.0210   50.3440   41.8000 C   0  0  0  0  0  0  0  0  0  0  0  0
   87.8870   49.8110   42.3500 C   0  0  0  0  0  0  0  0  0  0  0  0
   86.9020   50.6070   42.9250 C   0  0  0  0  0  3  0  0  0  0  0  0
   87.9620   48.4430   42.2020 C   0  0  0  0  0  3  0  0  0  0  0  0
   89.1700   48.2130   41.5520 C   0  0  0  0  0  3  0  0  0  0  0  0
   89.8140   49.3780   41.3100 N   0  0  0  0  0  0  0  0  0  0  0  0
   90.6840   49.4930   40.8650 H   0  0  0  0  0  0  0  0  0  0  0  0
   84.8340   51.1070   44.8840 C   0  0  0  0  0  3  0  0  0  0  0  0
   83.6480   50.9930   44.2640 C   0  0  0  0  0  3  0  0  0  0  0  0
   82.9010   49.7190   44.1440 C   0  0  0  0  0  0  0  0  0  0  0  0
   83.6320   48.5310   43.8770 C   0  0  0  0  0  3  0  0  0  0  0  0
   82.9800   47.2910   43.7590 C   0  0  0  0  0  3  0  0  0  0  0  0
   81.5990   47.2620   43.9230 C   0  0  0  0  0  0  0  0  0  0  0  0
   80.8850   48.3970   44.1940 C   0  0  0  0  0  0  0  0  0  0  0  0
   81.4950   49.6420   44.3170 C   0  0  0  0  0  3  0  0  0  0  0  0
   79.5610   48.0330   44.3100 C   0  0  0  0  0  3  0  0  0  0  0  0
   79.5420   46.6580   44.0960 C   0  0  0  0  0  3  0  0  0  0  0  0
   80.7900   46.1920   43.8590 N   0  0  0  0  0  0  0  0  0  0  0  0
   81.0520   45.2600   43.6790 H   0  0  0  0  0  0  0  0  0  0  0  0
  1  2  1  0  0  0  0
  2  7  1  0  0  0  0
  3  4  1  0  0  0  0
  3  2  2  0  0  0  0
  4  9  1  1  0  0  0
  4  5  1  0  0  0  0
  5  6  1  0  0  0  0
  5  8  1  1  0  0  0
  6  7  1  0  0  0  0
 10  9  2  0  0  0  0
 11 12  2  0  0  0  0
 11 10  1  0  0  0  0
 12 13  1  0  0  0  0
 13 14  2  0  0  0  0
 14  9  1  0  0  0  0
 15 13  1  0  0  0  0
 16 15  2  0  0  0  0
 17 16  1  0  0  0  0
 17 12  1  0  0  0  0
 18 17  1  0  0  0  0
 19  5  1  0  0  0  0
 20 19  2  0  0  0  0
 21 20  1  0  0  0  0
 21 26  1  0  0  0  0
 22 21  2  0  0  0  0
 23 22  1  0  0  0  0
 23 24  2  0  0  0  0
 24 25  1  0  0  0  0
 25 27  1  0  0  0  0
 25 26  2  0  0  0  0
 28 27  2  0  0  0  0
 29 24  1  0  0  0  0
 29 28  1  0  0  0  0
 30 29  1  0  0  0  0
M  END
>  <MODEL>
6

>  <REMARK>
 VINA RESULT:    -9.775      2.241      3.809
 INTER + INTRA:         -12.456
 INTER:                 -11.525
 INTRA:                  -0.931
 UNBOUND:                -0.966
  Name = 
  5 active torsions:
  status: ('A' for Active; 'I' for Inactive)
    1  A    between atoms: C_1  and  C_2
    2  A    between atoms: C_4  and  C_20
    3  A    between atoms: C_5  and  C_8
    4  A    between atoms: C_5  and  C_9
    5  A    between atoms: C_10  and  C_11
                            x       y       z     vdW  Elec       q    Type
                         _______ _______ _______ _____ _____    ______ ____

>  <TORSDO>
F 3

$$$$
=
 OpenBabel08112514243D

 30 34  0  0  1  0  0  0  0  0999 V2000
   91.2470   48.9270   42.8390 C   0  0  0  0  0  1  0  0  0  0  0  0
   89.7680   48.7930   43.0750 C   0  0  0  0  0  0  0  0  0  0  0  0
   89.2210   49.3930   44.1510 C   0  0  0  0  0  3  0  0  0  0  0  0
   87.7520   49.2730   44.5090 C   0  0  2  0  0  3  0  0  0  0  0  0
   86.8440   48.9430   43.2700 C   0  0  2  0  0  0  0  0  0  0  0  0
   87.5050   47.7630   42.5100 C   0  0  0  0  0  2  0  0  0  0  0  0
   88.9250   48.0930   42.0300 C   0  0  0  0  0  2  0  0  0  0  0  0
   86.6870   50.1680   42.3320 C   0  0  0  0  0  1  0  0  0  0  0  0
   87.2880   50.4870   45.3070 C   0  0  0  0  0  0  0  0  0  0  0  0
   87.1810   51.7720   44.7020 C   0  0  0  0  0  3  0  0  0  0  0  0
   86.7370   52.8830   45.4400 C   0  0  0  0  0  3  0  0  0  0  0  0
   86.4130   52.6890   46.7790 C   0  0  0  0  0  0  0  0  0  0  0  0
   86.5210   51.4620   47.3730 C   0  0  0  0  0  0  0  0  0  0  0  0
   86.9580   50.3400   46.6760 C   0  0  0  0  0  3  0  0  0  0  0  0
   86.1340   51.6060   48.6880 C   0  0  0  0  0  3  0  0  0  0  0  0
   85.8020   52.9500   48.8250 C   0  0  0  0  0  3  0  0  0  0  0  0
   85.9740   53.6070   47.6550 N   0  0  0  0  0  0  0  0  0  0  0  0
   85.8110   54.5630   47.4820 H   0  0  0  0  0  0  0  0  0  0  0  0
   85.4650   48.4970   43.7510 C   0  0  0  0  0  3  0  0  0  0  0  0
   84.3430   49.1870   43.4900 C   0  0  0  0  0  3  0  0  0  0  0  0
   82.9970   48.7760   43.9570 C   0  0  0  0  0  0  0  0  0  0  0  0
   82.1060   49.7820   44.4170 C   0  0  0  0  0  3  0  0  0  0  0  0
   80.8140   49.4550   44.8660 C   0  0  0  0  0  3  0  0  0  0  0  0
   80.4330   48.1170   44.8350 C   0  0  0  0  0  0  0  0  0  0  0  0
   81.2770   47.1410   44.3810 C   0  0  0  0  0  0  0  0  0  0  0  0
   82.5620   47.4270   43.9290 C   0  0  0  0  0  3  0  0  0  0  0  0
   80.6020   45.9420   44.4650 C   0  0  0  0  0  3  0  0  0  0  0  0
   79.3510   46.2650   44.9820 C   0  0  0  0  0  3  0  0  0  0  0  0
   79.2530   47.5960   45.2060 N   0  0  0  0  0  0  0  0  0  0  0  0
   78.4760   48.0810   45.5660 H   0  0  0  0  0  0  0  0  0  0  0  0
  1  2  1  0  0  0  0
  2  3  2  0  0  0  0
  3  4  1  0  0  0  0
  4  9  1  6  0  0  0
  5  8  1  6  0  0  0
  5 19  1  0  0  0  0
  5  4  1  0  0  0  0
  6  5  1  0  0  0  0
  7  6  1  0  0  0  0
  7  2  1  0  0  0  0
  9 14  1  0  0  0  0
 10  9  2  0  0  0  0
 10 11  1  0  0  0  0
 11 12  2  0  0  0  0
 12 13  1  0  0  0  0
 12 17  1  0  0  0  0
 13 15  1  0  0  0  0
 14 13  2  0  0  0  0
 15 16  2  0  0  0  0
 17 16  1  0  0  0  0
 18 17  1  0  0  0  0
 20 19  2  0  0  0  0
 20 21  1  0  0  0  0
 21 22  1  0  0  0  0
 22 23  2  0  0  0  0
 24 23  1  0  0  0  0
 24 29  1  0  0  0  0
 25 27  1  0  0  0  0
 25 24  2  0  0  0  0
 26 21  2  0  0  0  0
 26 25  1  0  0  0  0
 27 28  2  0  0  0  0
 28 29  1  0  0  0  0
 29 30  1  0  0  0  0
M  END
>  <MODEL>
7

>  <REMARK>
 VINA RESULT:    -9.753      2.683      4.899
 INTER + INTRA:         -12.429
 INTER:                 -11.508
 INTRA:                  -0.922
 UNBOUND:                -0.966
  Name = 
  5 active torsions:
  status: ('A' for Active; 'I' for Inactive)
    1  A    between atoms: C_1  and  C_2
    2  A    between atoms: C_4  and  C_20
    3  A    between atoms: C_5  and  C_8
    4  A    between atoms: C_5  and  C_9
    5  A    between atoms: C_10  and  C_11
                            x       y       z     vdW  Elec       q    Type
                         _______ _______ _______ _____ _____    ______ ____

>  <TORSDO>
F 3

$$$$
=
 OpenBabel08112514243D

 30 34  0  0  1  0  0  0  0  0999 V2000
   86.2810   55.7190   43.8290 C   0  0  0  0  0  1  0  0  0  0  0  0
   86.2890   54.2150   43.8340 C   0  0  0  0  0  0  0  0  0  0  0  0
   85.1370   53.5560   44.0710 C   0  0  0  0  0  3  0  0  0  0  0  0
   85.0500   52.0440   44.1540 C   0  0  2  0  0  3  0  0  0  0  0  0
   86.1990   51.3190   43.3660 C   0  0  2  0  0  0  0  0  0  0  0  0
   87.5370   51.9930   43.7720 C   0  0  0  0  0  2  0  0  0  0  0  0
   87.5630   53.4930   43.4510 C   0  0  0  0  0  2  0  0  0  0  0  0
   85.9920   51.4150   41.8320 C   0  0  0  0  0  1  0  0  0  0  0  0
   83.6510   51.5620   43.7840 C   0  0  0  0  0  0  0  0  0  0  0  0
   82.8360   52.2880   42.8680 C   0  0  0  0  0  3  0  0  0  0  0  0
   81.5550   51.8280   42.5200 C   0  0  0  0  0  3  0  0  0  0  0  0
   81.1050   50.6480   43.1020 C   0  0  0  0  0  0  0  0  0  0  0  0
   81.8730   49.9470   43.9900 C   0  0  0  0  0  0  0  0  0  0  0  0
   83.1450   50.3710   44.3600 C   0  0  0  0  0  3  0  0  0  0  0  0
   81.1470   48.8430   44.3810 C   0  0  0  0  0  3  0  0  0  0  0  0
   79.9430   48.9360   43.6890 C   0  0  0  0  0  3  0  0  0  0  0  0
   79.9230   50.0400   42.9090 N   0  0  0  0  0  0  0  0  0  0  0  0
   79.1920   50.3380   42.3200 H   0  0  0  0  0  0  0  0  0  0  0  0
   86.2530   49.8500   43.7770 C   0  0  0  0  0  3  0  0  0  0  0  0
   86.4680   48.8550   42.9010 C   0  0  0  0  0  3  0  0  0  0  0  0
   86.5120   47.4220   43.2780 C   0  0  0  0  0  0  0  0  0  0  0  0
   85.5560   46.9390   44.2100 C   0  0  0  0  0  3  0  0  0  0  0  0
   85.5430   45.5890   44.6020 C   0  0  0  0  0  3  0  0  0  0  0  0
   86.4900   44.7390   44.0390 C   0  0  0  0  0  0  0  0  0  0  0  0
   87.4080   45.1880   43.1300 C   0  0  0  0  0  0  0  0  0  0  0  0
   87.4510   46.5170   42.7190 C   0  0  0  0  0  3  0  0  0  0  0  0
   88.1820   44.1100   42.7590 C   0  0  0  0  0  3  0  0  0  0  0  0
   87.6800   43.0350   43.4860 C   0  0  0  0  0  3  0  0  0  0  0  0
   86.6460   43.4240   44.2670 N   0  0  0  0  0  0  0  0  0  0  0  0
   86.1160   42.8610   44.8750 H   0  0  0  0  0  0  0  0  0  0  0  0
  1  2  1  0  0  0  0
  2  3  2  0  0  0  0
  3  4  1  0  0  0  0
  4  9  1  6  0  0  0
  5  8  1  6  0  0  0
  5  6  1  0  0  0  0
  5 19  1  0  0  0  0
  5  4  1  0  0  0  0
  7  6  1  0  0  0  0
  7  2  1  0  0  0  0
  9 14  1  0  0  0  0
 10  9  2  0  0  0  0
 11 10  1  0  0  0  0
 11 12  2  0  0  0  0
 12 13  1  0  0  0  0
 13 14  2  0  0  0  0
 13 15  1  0  0  0  0
 16 15  2  0  0  0  0
 17 12  1  0  0  0  0
 17 16  1  0  0  0  0
 18 17  1  0  0  0  0
 20 21  1  0  0  0  0
 20 19  2  0  0  0  0
 21 22  1  0  0  0  0
 22 23  2  0  0  0  0
 24 29  1  0  0  0  0
 24 23  1  0  0  0  0
 25 24  2  0  0  0  0
 26 25  1  0  0  0  0
 26 21  2  0  0  0  0
 27 25  1  0  0  0  0
 27 28  2  0  0  0  0
 28 29  1  0  0  0  0
 29 30  1  0  0  0  0
M  END
>  <MODEL>
8

>  <REMARK>
 VINA RESULT:    -9.661      1.787      6.316
 INTER + INTRA:         -12.321
 INTER:                 -11.062
 INTRA:                  -1.259
 UNBOUND:                -0.966
  Name = 
  5 active torsions:
  status: ('A' for Active; 'I' for Inactive)
    1  A    between atoms: C_1  and  C_2
    2  A    between atoms: C_4  and  C_20
    3  A    between atoms: C_5  and  C_8
    4  A    between atoms: C_5  and  C_9
    5  A    between atoms: C_10  and  C_11
                            x       y       z     vdW  Elec       q    Type
                         _______ _______ _______ _____ _____    ______ ____

>  <TORSDO>
F 3

$$$$
=
 OpenBabel08112514243D

 30 34  0  0  1  0  0  0  0  0999 V2000
   84.8370   56.8500   45.0910 C   0  0  0  0  0  1  0  0  0  0  0  0
   85.3020   55.5400   44.5160 C   0  0  0  0  0  0  0  0  0  0  0  0
   84.4910   54.4660   44.5990 C   0  0  0  0  0  3  0  0  0  0  0  0
   84.8880   53.0890   44.1010 C   0  0  2  0  0  3  0  0  0  0  0  0
   85.9890   53.1350   42.9820 C   0  0  2  0  0  0  0  0  0  0  0  0
   87.1150   54.0810   43.4770 C   0  0  0  0  0  2  0  0  0  0  0  0
   86.6100   55.5030   43.7560 C   0  0  0  0  0  2  0  0  0  0  0  0
   85.4140   53.6400   41.6330 C   0  0  0  0  0  1  0  0  0  0  0  0
   83.6550   52.2760   43.7200 C   0  0  0  0  0  0  0  0  0  0  0  0
   82.6980   52.7750   42.7910 C   0  0  0  0  0  3  0  0  0  0  0  0
   81.5740   52.0120   42.4320 C   0  0  0  0  0  3  0  0  0  0  0  0
   81.4210   50.7600   43.0180 C   0  0  0  0  0  0  0  0  0  0  0  0
   82.3280   50.2740   43.9190 C   0  0  0  0  0  0  0  0  0  0  0  0
   83.4520   51.0000   44.3000 C   0  0  0  0  0  3  0  0  0  0  0  0
   81.8910   49.0260   44.3100 C   0  0  0  0  0  3  0  0  0  0  0  0
   80.7100   48.8170   43.6050 C   0  0  0  0  0  3  0  0  0  0  0  0
   80.4280   49.8790   42.8170 N   0  0  0  0  0  0  0  0  0  0  0  0
   79.6530   49.9840   42.2180 H   0  0  0  0  0  0  0  0  0  0  0  0
   86.5790   51.7410   42.7880 C   0  0  0  0  0  3  0  0  0  0  0  0
   87.9010   51.5020   42.7720 C   0  0  0  0  0  3  0  0  0  0  0  0
   88.4920   50.1570   42.5740 C   0  0  0  0  0  0  0  0  0  0  0  0
   89.8420   50.0700   42.1440 C   0  0  0  0  0  3  0  0  0  0  0  0
   90.4600   48.8230   41.9450 C   0  0  0  0  0  3  0  0  0  0  0  0
   89.7110   47.6780   42.1940 C   0  0  0  0  0  0  0  0  0  0  0  0
   88.4140   47.7470   42.6220 C   0  0  0  0  0  0  0  0  0  0  0  0
   87.7690   48.9640   42.8300 C   0  0  0  0  0  3  0  0  0  0  0  0
   87.9640   46.4550   42.7880 C   0  0  0  0  0  3  0  0  0  0  0  0
   89.0430   45.6480   42.4390 C   0  0  0  0  0  3  0  0  0  0  0  0
   90.1080   46.4000   42.0770 N   0  0  0  0  0  0  0  0  0  0  0  0
   90.9920   46.0770   41.7880 H   0  0  0  0  0  0  0  0  0  0  0  0
  2  3  2  0  0  0  0
  2  1  1  0  0  0  0
  4  9  1  6  0  0  0
  4  3  1  0  0  0  0
  5  8  1  6  0  0  0
  5  6  1  0  0  0  0
  5  4  1  0  0  0  0
  6  7  1  0  0  0  0
  7  2  1  0  0  0  0
  9 14  1  0  0  0  0
 10  9  2  0  0  0  0
 11 10  1  0  0  0  0
 11 12  2  0  0  0  0
 12 13  1  0  0  0  0
 13 14  2  0  0  0  0
 13 15  1  0  0  0  0
 16 15  2  0  0  0  0
 17 12  1  0  0  0  0
 17 16  1  0  0  0  0
 18 17  1  0  0  0  0
 19  5  1  0  0  0  0
 20 19  2  0  0  0  0
 21 20  1  0  0  0  0
 21 26  1  0  0  0  0
 22 21  2  0  0  0  0
 23 22  1  0  0  0  0
 23 24  2  0  0  0  0
 24 25  1  0  0  0  0
 25 27  1  0  0  0  0
 25 26  2  0  0  0  0
 28 27  2  0  0  0  0
 29 24  1  0  0  0  0
 29 28  1  0  0  0  0
 30 29  1  0  0  0  0
M  END
>  <MODEL>
9

>  <REMARK>
 VINA RESULT:    -9.343      2.300      7.180
 INTER + INTRA:         -11.947
 INTER:                 -10.981
 INTRA:                  -0.966
 UNBOUND:                -0.966
  Name = 
  5 active torsions:
  status: ('A' for Active; 'I' for Inactive)
    1  A    between atoms: C_1  and  C_2
    2  A    between atoms: C_4  and  C_20
    3  A    between atoms: C_5  and  C_8
    4  A    between atoms: C_5  and  C_9
    5  A    between atoms: C_10  and  C_11
                            x       y       z     vdW  Elec       q    Type
                         _______ _______ _______ _____ _____    ______ ____

>  <TORSDO>
F 3

$$$$
