MODEL 1
REMARK VINA RESULT:    -9.092      0.000      0.000
REMARK INTER + INTRA:         -12.694
REMARK INTER:                 -11.660
REMARK INTRA:                  -1.034
REMARK UNBOUND:                -1.209
REMARK  Name = 
REMARK  6 active torsions:
REMARK  status: ('A' for Active; 'I' for Inactive)
REMARK    1  A    between atoms: O_1  and  C_2
REMARK    2  A    between atoms: C_4  and  O_5
REMARK    3  A    between atoms: C_8  and  C_9
REMARK    4  A    between atoms: C_9  and  C_10
REMARK    5  A    between atoms: C_15  and  O_16
REMARK    6  A    between atoms: C_18  and  C_22
REMARK                            x       y       z     vdW  Elec       q    Type
REMARK                         _______ _______ _______ _____ _____    ______ ____
ROOT
ATOM      1  C   UNL     1      84.578  54.294  41.190  0.00  0.00    +0.127 A 
ATOM      2  C   UNL     1      84.273  55.603  41.576  0.00  0.00    +0.023 A 
ATOM      3  C   UNL     1      84.548  56.056  42.868  0.00  0.00    +0.134 A 
ATOM      4  C   UNL     1      85.198  55.196  43.787  0.00  0.00    +0.101 A 
ATOM      5  C   UNL     1      85.495  53.869  43.400  0.00  0.00    +0.142 A 
ATOM      6  C   UNL     1      85.187  53.412  42.102  0.00  0.00    +0.041 A 
ATOM      7  O   UNL     1      86.089  52.993  44.321  0.00  0.00    -0.483 OA
ATOM      8  C   UNL     1      86.707  53.436  45.530  0.00  0.00    +0.132 C 
ATOM      9  C   UNL     1      85.874  54.547  46.179  0.00  0.00    +0.052 C 
ATOM     10  C   UNL     1      85.601  55.606  45.155  0.00  0.00    +0.174 C 
ATOM     11  O   UNL     1      85.779  56.816  45.459  0.00  0.00    -0.292 OA
ENDROOT
BRANCH   8  12
ATOM     12  C   UNL     1      86.883  52.273  46.474  0.00  0.00    -0.007 A 
ATOM     13  C   UNL     1      86.330  52.310  47.767  0.00  0.00    -0.055 A 
ATOM     14  C   UNL     1      86.518  51.240  48.646  0.00  0.00    -0.061 A 
ATOM     15  C   UNL     1      87.266  50.128  48.248  0.00  0.00    -0.062 A 
ATOM     16  C   UNL     1      87.831  50.088  46.971  0.00  0.00    -0.061 A 
ATOM     17  C   UNL     1      87.646  51.157  46.087  0.00  0.00    -0.055 A 
ENDBRANCH   8  12
BRANCH   1  18
ATOM     18  O   UNL     1      84.263  53.866  39.901  0.00  0.00    -0.506 OA
ATOM     19  H   UNL     1      84.764  53.185  39.498  0.00  0.00    +0.000 HD
ENDBRANCH   1  18
BRANCH   3  20
ATOM     20  O   UNL     1      84.123  57.345  43.199  0.00  0.00    -0.506 OA
ATOM     21  H   UNL     1      84.748  58.039  43.277  0.00  0.00    +0.000 HD
ENDBRANCH   3  20
BRANCH   6  22
ATOM     22  C   UNL     1      85.530  51.998  41.678  0.00  0.00    +0.008 C 
BRANCH  22  23
ATOM     23  C   UNL     1      87.022  51.830  41.492  0.00  0.00    -0.001 A 
ATOM     24  C   UNL     1      87.763  51.090  42.432  0.00  0.00    -0.055 A 
ATOM     25  C   UNL     1      89.137  50.903  42.263  0.00  0.00    -0.061 A 
ATOM     26  C   UNL     1      89.788  51.452  41.158  0.00  0.00    -0.058 A 
ATOM     27  C   UNL     1      89.067  52.195  40.220  0.00  0.00    -0.020 A 
ATOM     28  C   UNL     1      87.687  52.392  40.382  0.00  0.00    +0.120 A 
BRANCH  28  29
ATOM     29  O   UNL     1      86.984  53.147  39.446  0.00  0.00    -0.506 OA
ATOM     30  H   UNL     1      87.446  53.618  38.781  0.00  0.00    +0.000 HD
ENDBRANCH  28  29
ENDBRANCH  22  23
ENDBRANCH   6  22
TORSDOF 6
ENDMDL
MODEL 2
REMARK VINA RESULT:    -9.086      2.280      3.668
REMARK INTER + INTRA:         -12.686
REMARK INTER:                 -11.436
REMARK INTRA:                  -1.250
REMARK UNBOUND:                -1.209
REMARK  Name = 
REMARK  6 active torsions:
REMARK  status: ('A' for Active; 'I' for Inactive)
REMARK    1  A    between atoms: O_1  and  C_2
REMARK    2  A    between atoms: C_4  and  O_5
REMARK    3  A    between atoms: C_8  and  C_9
REMARK    4  A    between atoms: C_9  and  C_10
REMARK    5  A    between atoms: C_15  and  O_16
REMARK    6  A    between atoms: C_18  and  C_22
REMARK                            x       y       z     vdW  Elec       q    Type
REMARK                         _______ _______ _______ _____ _____    ______ ____
ROOT
ATOM      1  C   UNL     1      83.528  54.339  41.883  0.00  0.00    +0.127 A 
ATOM      2  C   UNL     1      83.446  55.684  42.257  0.00  0.00    +0.023 A 
ATOM      3  C   UNL     1      84.050  56.145  43.428  0.00  0.00    +0.134 A 
ATOM      4  C   UNL     1      84.808  55.249  44.223  0.00  0.00    +0.101 A 
ATOM      5  C   UNL     1      84.879  53.887  43.851  0.00  0.00    +0.142 A 
ATOM      6  C   UNL     1      84.241  53.426  42.682  0.00  0.00    +0.041 A 
ATOM      7  O   UNL     1      85.581  52.981  44.662  0.00  0.00    -0.483 OA
ATOM      8  C   UNL     1      86.498  53.394  45.677  0.00  0.00    +0.132 C 
ATOM      9  C   UNL     1      85.946  54.606  46.434  0.00  0.00    +0.052 C 
ATOM     10  C   UNL     1      85.549  55.657  45.442  0.00  0.00    +0.174 C 
ATOM     11  O   UNL     1      85.907  56.849  45.634  0.00  0.00    -0.292 OA
ENDROOT
BRANCH   8  12
ATOM     12  C   UNL     1      86.772  52.248  46.618  0.00  0.00    -0.007 A 
ATOM     13  C   UNL     1      86.237  52.247  47.919  0.00  0.00    -0.055 A 
ATOM     14  C   UNL     1      86.515  51.194  48.796  0.00  0.00    -0.061 A 
ATOM     15  C   UNL     1      87.336  50.140  48.387  0.00  0.00    -0.062 A 
ATOM     16  C   UNL     1      87.884  50.139  47.102  0.00  0.00    -0.061 A 
ATOM     17  C   UNL     1      87.609  51.189  46.221  0.00  0.00    -0.055 A 
ENDBRANCH   8  12
BRANCH   1  18
ATOM     18  O   UNL     1      82.887  53.908  40.723  0.00  0.00    -0.506 OA
ATOM     19  H   UNL     1      82.542  54.534  40.118  0.00  0.00    +0.000 HD
ENDBRANCH   1  18
BRANCH   3  20
ATOM     20  O   UNL     1      83.838  57.481  43.776  0.00  0.00    -0.506 OA
ATOM     21  H   UNL     1      84.530  57.981  44.163  0.00  0.00    +0.000 HD
ENDBRANCH   3  20
BRANCH   6  22
ATOM     22  C   UNL     1      84.341  51.972  42.268  0.00  0.00    +0.008 C 
BRANCH  22  23
ATOM     23  C   UNL     1      83.202  51.159  42.841  0.00  0.00    -0.001 A 
ATOM     24  C   UNL     1      81.922  51.249  42.264  0.00  0.00    -0.055 A 
ATOM     25  C   UNL     1      80.863  50.486  42.764  0.00  0.00    -0.061 A 
ATOM     26  C   UNL     1      81.068  49.628  43.846  0.00  0.00    -0.058 A 
ATOM     27  C   UNL     1      82.332  49.534  44.433  0.00  0.00    -0.020 A 
ATOM     28  C   UNL     1      83.401  50.297  43.941  0.00  0.00    +0.120 A 
BRANCH  28  29
ATOM     29  O   UNL     1      84.652  50.204  44.546  0.00  0.00    -0.506 OA
ATOM     30  H   UNL     1      84.869  50.767  45.263  0.00  0.00    +0.000 HD
ENDBRANCH  28  29
ENDBRANCH  22  23
ENDBRANCH   6  22
TORSDOF 6
ENDMDL
MODEL 3
REMARK VINA RESULT:    -9.068      2.435      5.571
REMARK INTER + INTRA:         -12.663
REMARK INTER:                 -11.750
REMARK INTRA:                  -0.913
REMARK UNBOUND:                -1.209
REMARK  Name = 
REMARK  6 active torsions:
REMARK  status: ('A' for Active; 'I' for Inactive)
REMARK    1  A    between atoms: O_1  and  C_2
REMARK    2  A    between atoms: C_4  and  O_5
REMARK    3  A    between atoms: C_8  and  C_9
REMARK    4  A    between atoms: C_9  and  C_10
REMARK    5  A    between atoms: C_15  and  O_16
REMARK    6  A    between atoms: C_18  and  C_22
REMARK                            x       y       z     vdW  Elec       q    Type
REMARK                         _______ _______ _______ _____ _____    ______ ____
ROOT
ATOM      1  C   UNL     1      84.512  52.426  42.331  0.00  0.00    +0.127 A 
ATOM      2  C   UNL     1      84.871  53.286  41.289  0.00  0.00    +0.023 A 
ATOM      3  C   UNL     1      86.060  53.105  40.581  0.00  0.00    +0.134 A 
ATOM      4  C   UNL     1      86.892  51.998  40.882  0.00  0.00    +0.101 A 
ATOM      5  C   UNL     1      86.536  51.136  41.945  0.00  0.00    +0.142 A 
ATOM      6  C   UNL     1      85.347  51.346  42.673  0.00  0.00    +0.041 A 
ATOM      7  O   UNL     1      87.381  50.070  42.287  0.00  0.00    -0.483 OA
ATOM      8  C   UNL     1      88.426  49.600  41.435  0.00  0.00    +0.132 C 
ATOM      9  C   UNL     1      89.151  50.780  40.779  0.00  0.00    +0.052 C 
ATOM     10  C   UNL     1      88.135  51.676  40.139  0.00  0.00    +0.174 C 
ATOM     11  O   UNL     1      88.328  52.083  38.962  0.00  0.00    -0.292 OA
ENDROOT
BRANCH   8  12
ATOM     12  C   UNL     1      89.388  48.746  42.223  0.00  0.00    -0.007 A 
ATOM     13  C   UNL     1      90.392  49.340  43.010  0.00  0.00    -0.055 A 
ATOM     14  C   UNL     1      91.296  48.544  43.718  0.00  0.00    -0.061 A 
ATOM     15  C   UNL     1      91.214  47.151  43.641  0.00  0.00    -0.062 A 
ATOM     16  C   UNL     1      90.230  46.552  42.850  0.00  0.00    -0.061 A 
ATOM     17  C   UNL     1      89.322  47.344  42.140  0.00  0.00    -0.055 A 
ENDBRANCH   8  12
BRANCH   1  18
ATOM     18  O   UNL     1      83.332  52.654  43.037  0.00  0.00    -0.506 OA
ATOM     19  H   UNL     1      82.926  51.955  43.509  0.00  0.00    +0.000 HD
ENDBRANCH   1  18
BRANCH   3  20
ATOM     20  O   UNL     1      86.387  54.066  39.620  0.00  0.00    -0.506 OA
ATOM     21  H   UNL     1      85.996  54.917  39.657  0.00  0.00    +0.000 HD
ENDBRANCH   3  20
BRANCH   6  22
ATOM     22  C   UNL     1      84.950  50.405  43.794  0.00  0.00    +0.008 C 
BRANCH  22  23
ATOM     23  C   UNL     1      85.825  50.605  45.012  0.00  0.00    -0.001 A 
ATOM     24  C   UNL     1      86.248  51.899  45.362  0.00  0.00    -0.055 A 
ATOM     25  C   UNL     1      87.034  52.106  46.499  0.00  0.00    -0.061 A 
ATOM     26  C   UNL     1      87.409  51.025  47.296  0.00  0.00    -0.058 A 
ATOM     27  C   UNL     1      87.003  49.732  46.957  0.00  0.00    -0.020 A 
ATOM     28  C   UNL     1      86.215  49.513  45.817  0.00  0.00    +0.120 A 
BRANCH  28  29
ATOM     29  O   UNL     1      85.829  48.217  45.483  0.00  0.00    -0.506 OA
ATOM     30  H   UNL     1      86.366  47.490  45.730  0.00  0.00    +0.000 HD
ENDBRANCH  28  29
ENDBRANCH  22  23
ENDBRANCH   6  22
TORSDOF 6
ENDMDL
MODEL 4
REMARK VINA RESULT:    -9.049      2.255      3.137
REMARK INTER + INTRA:         -12.639
REMARK INTER:                 -11.380
REMARK INTRA:                  -1.259
REMARK UNBOUND:                -1.209
REMARK  Name = 
REMARK  6 active torsions:
REMARK  status: ('A' for Active; 'I' for Inactive)
REMARK    1  A    between atoms: O_1  and  C_2
REMARK    2  A    between atoms: C_4  and  O_5
REMARK    3  A    between atoms: C_8  and  C_9
REMARK    4  A    between atoms: C_9  and  C_10
REMARK    5  A    between atoms: C_15  and  O_16
REMARK    6  A    between atoms: C_18  and  C_22
REMARK                            x       y       z     vdW  Elec       q    Type
REMARK                         _______ _______ _______ _____ _____    ______ ____
ROOT
ATOM      1  C   UNL     1      84.449  55.882  42.455  0.00  0.00    +0.127 A 
ATOM      2  C   UNL     1      84.217  57.084  43.130  0.00  0.00    +0.023 A 
ATOM      3  C   UNL     1      84.536  57.226  44.482  0.00  0.00    +0.134 A 
ATOM      4  C   UNL     1      85.158  56.154  45.169  0.00  0.00    +0.101 A 
ATOM      5  C   UNL     1      85.381  54.935  44.490  0.00  0.00    +0.142 A 
ATOM      6  C   UNL     1      85.028  54.793  43.132  0.00  0.00    +0.041 A 
ATOM      7  O   UNL     1      85.946  53.849  45.177  0.00  0.00    -0.483 OA
ATOM      8  C   UNL     1      86.606  53.984  46.437  0.00  0.00    +0.132 C 
ATOM      9  C   UNL     1      85.841  54.959  47.338  0.00  0.00    +0.052 C 
ATOM     10  C   UNL     1      85.604  56.231  46.582  0.00  0.00    +0.174 C 
ATOM     11  O   UNL     1      85.847  57.333  47.142  0.00  0.00    -0.292 OA
ENDROOT
BRANCH   8  12
ATOM     12  C   UNL     1      86.739  52.633  47.094  0.00  0.00    -0.007 A 
ATOM     13  C   UNL     1      86.237  52.415  48.390  0.00  0.00    -0.055 A 
ATOM     14  C   UNL     1      86.385  51.169  49.004  0.00  0.00    -0.061 A 
ATOM     15  C   UNL     1      87.044  50.132  48.337  0.00  0.00    -0.062 A 
ATOM     16  C   UNL     1      87.560  50.343  47.055  0.00  0.00    -0.061 A 
ATOM     17  C   UNL     1      87.413  51.589  46.436  0.00  0.00    -0.055 A 
ENDBRANCH   8  12
BRANCH   1  18
ATOM     18  O   UNL     1      84.091  55.766  41.113  0.00  0.00    -0.506 OA
ATOM     19  H   UNL     1      83.230  55.480  40.881  0.00  0.00    +0.000 HD
ENDBRANCH   1  18
BRANCH   3  20
ATOM     20  O   UNL     1      84.182  58.427  45.101  0.00  0.00    -0.506 OA
ATOM     21  H   UNL     1      84.843  59.054  45.321  0.00  0.00    +0.000 HD
ENDBRANCH   3  20
BRANCH   6  22
ATOM     22  C   UNL     1      85.293  53.494  42.396  0.00  0.00    +0.008 C 
BRANCH  22  23
ATOM     23  C   UNL     1      84.145  52.525  42.566  0.00  0.00    -0.001 A 
ATOM     24  C   UNL     1      84.125  51.653  43.669  0.00  0.00    -0.055 A 
ATOM     25  C   UNL     1      83.060  50.769  43.857  0.00  0.00    -0.061 A 
ATOM     26  C   UNL     1      82.005  50.741  42.944  0.00  0.00    -0.058 A 
ATOM     27  C   UNL     1      82.014  51.595  41.839  0.00  0.00    -0.020 A 
ATOM     28  C   UNL     1      83.080  52.486  41.641  0.00  0.00    +0.120 A 
BRANCH  28  29
ATOM     29  O   UNL     1      83.082  53.322  40.526  0.00  0.00    -0.506 OA
ATOM     30  H   UNL     1      82.388  53.938  40.401  0.00  0.00    +0.000 HD
ENDBRANCH  28  29
ENDBRANCH  22  23
ENDBRANCH   6  22
TORSDOF 6
ENDMDL
MODEL 5
REMARK VINA RESULT:    -8.972      4.585      6.303
REMARK INTER + INTRA:         -12.542
REMARK INTER:                 -11.344
REMARK INTRA:                  -1.197
REMARK UNBOUND:                -1.209
REMARK  Name = 
REMARK  6 active torsions:
REMARK  status: ('A' for Active; 'I' for Inactive)
REMARK    1  A    between atoms: O_1  and  C_2
REMARK    2  A    between atoms: C_4  and  O_5
REMARK    3  A    between atoms: C_8  and  C_9
REMARK    4  A    between atoms: C_9  and  C_10
REMARK    5  A    between atoms: C_15  and  O_16
REMARK    6  A    between atoms: C_18  and  C_22
REMARK                            x       y       z     vdW  Elec       q    Type
REMARK                         _______ _______ _______ _____ _____    ______ ____
ROOT
ATOM      1  C   UNL     1      84.791  51.195  44.718  0.00  0.00    +0.127 A 
ATOM      2  C   UNL     1      83.446  51.112  44.346  0.00  0.00    +0.023 A 
ATOM      3  C   UNL     1      82.879  49.897  43.958  0.00  0.00    +0.134 A 
ATOM      4  C   UNL     1      83.662  48.716  43.996  0.00  0.00    +0.101 A 
ATOM      5  C   UNL     1      85.025  48.803  44.360  0.00  0.00    +0.142 A 
ATOM      6  C   UNL     1      85.595  50.040  44.722  0.00  0.00    +0.041 A 
ATOM      7  O   UNL     1      85.822  47.648  44.348  0.00  0.00    -0.483 OA
ATOM      8  C   UNL     1      85.280  46.328  44.296  0.00  0.00    +0.132 C 
ATOM      9  C   UNL     1      84.096  46.275  43.324  0.00  0.00    +0.052 C 
ATOM     10  C   UNL     1      83.132  47.367  43.676  0.00  0.00    +0.174 C 
ATOM     11  O   UNL     1      81.904  47.101  43.754  0.00  0.00    -0.292 OA
ENDROOT
BRANCH   8  12
ATOM     12  C   UNL     1      86.352  45.346  43.894  0.00  0.00    -0.007 A 
ATOM     13  C   UNL     1      86.423  44.077  44.495  0.00  0.00    -0.055 A 
ATOM     14  C   UNL     1      87.434  43.181  44.137  0.00  0.00    -0.061 A 
ATOM     15  C   UNL     1      88.388  43.546  43.183  0.00  0.00    -0.062 A 
ATOM     16  C   UNL     1      88.335  44.810  42.590  0.00  0.00    -0.061 A 
ATOM     17  C   UNL     1      87.325  45.710  42.945  0.00  0.00    -0.055 A 
ENDBRANCH   8  12
BRANCH   1  18
ATOM     18  O   UNL     1      85.332  52.430  45.072  0.00  0.00    -0.506 OA
ATOM     19  H   UNL     1      85.009  53.214  44.674  0.00  0.00    +0.000 HD
ENDBRANCH   1  18
BRANCH   3  20
ATOM     20  O   UNL     1      81.556  49.921  43.509  0.00  0.00    -0.506 OA
ATOM     21  H   UNL     1      81.189  49.167  43.091  0.00  0.00    +0.000 HD
ENDBRANCH   3  20
BRANCH   6  22
ATOM     22  C   UNL     1      87.050  50.129  45.141  0.00  0.00    +0.008 C 
BRANCH  22  23
ATOM     23  C   UNL     1      87.967  50.108  43.938  0.00  0.00    -0.001 A 
ATOM     24  C   UNL     1      88.649  48.925  43.601  0.00  0.00    -0.055 A 
ATOM     25  C   UNL     1      89.481  48.880  42.479  0.00  0.00    -0.061 A 
ATOM     26  C   UNL     1      89.643  50.014  41.683  0.00  0.00    -0.058 A 
ATOM     27  C   UNL     1      88.978  51.198  42.009  0.00  0.00    -0.020 A 
ATOM     28  C   UNL     1      88.143  51.255  43.135  0.00  0.00    +0.120 A 
BRANCH  28  29
ATOM     29  O   UNL     1      87.497  52.447  43.456  0.00  0.00    -0.506 OA
ATOM     30  H   UNL     1      87.126  52.977  42.778  0.00  0.00    +0.000 HD
ENDBRANCH  28  29
ENDBRANCH  22  23
ENDBRANCH   6  22
TORSDOF 6
ENDMDL
MODEL 6
REMARK VINA RESULT:    -8.970      2.613      4.902
REMARK INTER + INTRA:         -12.539
REMARK INTER:                 -11.354
REMARK INTRA:                  -1.184
REMARK UNBOUND:                -1.209
REMARK  Name = 
REMARK  6 active torsions:
REMARK  status: ('A' for Active; 'I' for Inactive)
REMARK    1  A    between atoms: O_1  and  C_2
REMARK    2  A    between atoms: C_4  and  O_5
REMARK    3  A    between atoms: C_8  and  C_9
REMARK    4  A    between atoms: C_9  and  C_10
REMARK    5  A    between atoms: C_15  and  O_16
REMARK    6  A    between atoms: C_18  and  C_22
REMARK                            x       y       z     vdW  Elec       q    Type
REMARK                         _______ _______ _______ _____ _____    ______ ____
ROOT
ATOM      1  C   UNL     1      84.362  55.073  41.868  0.00  0.00    +0.127 A 
ATOM      2  C   UNL     1      83.349  54.291  41.305  0.00  0.00    +0.023 A 
ATOM      3  C   UNL     1      83.005  53.053  41.853  0.00  0.00    +0.134 A 
ATOM      4  C   UNL     1      83.650  52.607  43.032  0.00  0.00    +0.101 A 
ATOM      5  C   UNL     1      84.683  53.392  43.593  0.00  0.00    +0.142 A 
ATOM      6  C   UNL     1      85.044  54.626  43.015  0.00  0.00    +0.041 A 
ATOM      7  O   UNL     1      85.367  52.932  44.729  0.00  0.00    -0.483 OA
ATOM      8  C   UNL     1      84.883  51.868  45.552  0.00  0.00    +0.132 C 
ATOM      9  C   UNL     1      84.295  50.750  44.685  0.00  0.00    +0.052 C 
ATOM     10  C   UNL     1      83.304  51.345  43.733  0.00  0.00    +0.174 C 
ATOM     11  O   UNL     1      82.177  50.799  43.596  0.00  0.00    -0.292 OA
ENDROOT
BRANCH   8  12
ATOM     12  C   UNL     1      85.996  51.347  46.425  0.00  0.00    -0.007 A 
ATOM     13  C   UNL     1      87.058  50.610  45.868  0.00  0.00    -0.055 A 
ATOM     14  C   UNL     1      88.073  50.107  46.686  0.00  0.00    -0.061 A 
ATOM     15  C   UNL     1      88.036  50.326  48.066  0.00  0.00    -0.062 A 
ATOM     16  C   UNL     1      86.978  51.044  48.630  0.00  0.00    -0.061 A 
ATOM     17  C   UNL     1      85.959  51.550  47.816  0.00  0.00    -0.055 A 
ENDBRANCH   8  12
BRANCH   1  18
ATOM     18  O   UNL     1      84.700  56.289  41.277  0.00  0.00    -0.506 OA
ATOM     19  H   UNL     1      84.506  57.093  41.716  0.00  0.00    +0.000 HD
ENDBRANCH   1  18
BRANCH   3  20
ATOM     20  O   UNL     1      82.049  52.295  41.172  0.00  0.00    -0.506 OA
ATOM     21  H   UNL     1      81.143  52.364  41.404  0.00  0.00    +0.000 HD
ENDBRANCH   3  20
BRANCH   6  22
ATOM     22  C   UNL     1      86.132  55.482  43.633  0.00  0.00    +0.008 C 
BRANCH  22  23
ATOM     23  C   UNL     1      85.573  56.379  44.715  0.00  0.00    -0.001 A 
ATOM     24  C   UNL     1      85.397  55.875  46.017  0.00  0.00    -0.055 A 
ATOM     25  C   UNL     1      84.907  56.697  47.036  0.00  0.00    -0.061 A 
ATOM     26  C   UNL     1      84.585  58.028  46.767  0.00  0.00    -0.058 A 
ATOM     27  C   UNL     1      84.748  58.540  45.478  0.00  0.00    -0.020 A 
ATOM     28  C   UNL     1      85.237  57.723  44.448  0.00  0.00    +0.120 A 
BRANCH  28  29
ATOM     29  O   UNL     1      85.381  58.244  43.163  0.00  0.00    -0.506 OA
ATOM     30  H   UNL     1      86.045  58.881  42.987  0.00  0.00    +0.000 HD
ENDBRANCH  28  29
ENDBRANCH  22  23
ENDBRANCH   6  22
TORSDOF 6
ENDMDL
MODEL 7
REMARK VINA RESULT:    -8.823      1.518      5.388
REMARK INTER + INTRA:         -12.353
REMARK INTER:                 -11.144
REMARK INTRA:                  -1.209
REMARK UNBOUND:                -1.209
REMARK  Name = 
REMARK  6 active torsions:
REMARK  status: ('A' for Active; 'I' for Inactive)
REMARK    1  A    between atoms: O_1  and  C_2
REMARK    2  A    between atoms: C_4  and  O_5
REMARK    3  A    between atoms: C_8  and  C_9
REMARK    4  A    between atoms: C_9  and  C_10
REMARK    5  A    between atoms: C_15  and  O_16
REMARK    6  A    between atoms: C_18  and  C_22
REMARK                            x       y       z     vdW  Elec       q    Type
REMARK                         _______ _______ _______ _____ _____    ______ ____
ROOT
ATOM      1  C   UNL     1      85.320  56.393  44.214  0.00  0.00    +0.127 A 
ATOM      2  C   UNL     1      84.508  56.542  43.086  0.00  0.00    +0.023 A 
ATOM      3  C   UNL     1      84.466  55.562  42.092  0.00  0.00    +0.134 A 
ATOM      4  C   UNL     1      85.214  54.369  42.255  0.00  0.00    +0.101 A 
ATOM      5  C   UNL     1      86.045  54.224  43.390  0.00  0.00    +0.142 A 
ATOM      6  C   UNL     1      86.102  55.233  44.372  0.00  0.00    +0.041 A 
ATOM      7  O   UNL     1      86.832  53.071  43.532  0.00  0.00    -0.483 OA
ATOM      8  C   UNL     1      86.618  51.883  42.768  0.00  0.00    +0.132 C 
ATOM      9  C   UNL     1      86.293  52.237  41.313  0.00  0.00    +0.052 C 
ATOM     10  C   UNL     1      85.178  53.238  41.295  0.00  0.00    +0.174 C 
ATOM     11  O   UNL     1      84.207  53.063  40.513  0.00  0.00    -0.292 OA
ENDROOT
BRANCH   8  12
ATOM     12  C   UNL     1      87.834  50.994  42.849  0.00  0.00    -0.007 A 
ATOM     13  C   UNL     1      88.843  51.072  41.872  0.00  0.00    -0.055 A 
ATOM     14  C   UNL     1      89.955  50.228  41.938  0.00  0.00    -0.061 A 
ATOM     15  C   UNL     1      90.066  49.294  42.972  0.00  0.00    -0.062 A 
ATOM     16  C   UNL     1      89.062  49.199  43.939  0.00  0.00    -0.061 A 
ATOM     17  C   UNL     1      87.947  50.042  43.877  0.00  0.00    -0.055 A 
ENDBRANCH   8  12
BRANCH   1  18
ATOM     18  O   UNL     1      85.360  57.405  45.172  0.00  0.00    -0.506 OA
ATOM     19  H   UNL     1      85.666  57.219  46.037  0.00  0.00    +0.000 HD
ENDBRANCH   1  18
BRANCH   3  20
ATOM     20  O   UNL     1      83.703  55.835  40.954  0.00  0.00    -0.506 OA
ATOM     21  H   UNL     1      82.975  56.422  41.008  0.00  0.00    +0.000 HD
ENDBRANCH   3  20
BRANCH   6  22
ATOM     22  C   UNL     1      86.971  55.066  45.604  0.00  0.00    +0.008 C 
BRANCH  22  23
ATOM     23  C   UNL     1      86.219  54.364  46.713  0.00  0.00    -0.001 A 
ATOM     24  C   UNL     1      85.280  55.078  47.479  0.00  0.00    -0.055 A 
ATOM     25  C   UNL     1      84.557  54.440  48.490  0.00  0.00    -0.061 A 
ATOM     26  C   UNL     1      84.764  53.085  48.750  0.00  0.00    -0.058 A 
ATOM     27  C   UNL     1      85.699  52.365  48.003  0.00  0.00    -0.020 A 
ATOM     28  C   UNL     1      86.432  52.996  46.987  0.00  0.00    +0.120 A 
BRANCH  28  29
ATOM     29  O   UNL     1      87.371  52.269  46.259  0.00  0.00    -0.506 OA
ATOM     30  H   UNL     1      88.254  52.203  46.566  0.00  0.00    +0.000 HD
ENDBRANCH  28  29
ENDBRANCH  22  23
ENDBRANCH   6  22
TORSDOF 6
ENDMDL
MODEL 8
REMARK VINA RESULT:    -8.811      2.329      4.039
REMARK INTER + INTRA:         -12.339
REMARK INTER:                 -10.963
REMARK INTRA:                  -1.376
REMARK UNBOUND:                -1.209
REMARK  Name = 
REMARK  6 active torsions:
REMARK  status: ('A' for Active; 'I' for Inactive)
REMARK    1  A    between atoms: O_1  and  C_2
REMARK    2  A    between atoms: C_4  and  O_5
REMARK    3  A    between atoms: C_8  and  C_9
REMARK    4  A    between atoms: C_9  and  C_10
REMARK    5  A    between atoms: C_15  and  O_16
REMARK    6  A    between atoms: C_18  and  C_22
REMARK                            x       y       z     vdW  Elec       q    Type
REMARK                         _______ _______ _______ _____ _____    ______ ____
ROOT
ATOM      1  C   UNL     1      87.831  51.439  41.062  0.00  0.00    +0.127 A 
ATOM      2  C   UNL     1      87.198  52.297  40.158  0.00  0.00    +0.023 A 
ATOM      3  C   UNL     1      86.356  53.318  40.603  0.00  0.00    +0.134 A 
ATOM      4  C   UNL     1      86.184  53.527  41.993  0.00  0.00    +0.101 A 
ATOM      5  C   UNL     1      86.814  52.651  42.906  0.00  0.00    +0.142 A 
ATOM      6  C   UNL     1      87.639  51.604  42.446  0.00  0.00    +0.041 A 
ATOM      7  O   UNL     1      86.605  52.815  44.285  0.00  0.00    -0.483 OA
ATOM      8  C   UNL     1      86.049  54.003  44.852  0.00  0.00    +0.132 C 
ATOM      9  C   UNL     1      84.898  54.520  43.983  0.00  0.00    +0.052 C 
ATOM     10  C   UNL     1      85.372  54.629  42.566  0.00  0.00    +0.174 C 
ATOM     11  O   UNL     1      85.126  55.679  41.915  0.00  0.00    -0.292 OA
ENDROOT
BRANCH   8  12
ATOM     12  C   UNL     1      85.583  53.731  46.260  0.00  0.00    -0.007 A 
ATOM     13  C   UNL     1      86.173  52.707  47.024  0.00  0.00    -0.055 A 
ATOM     14  C   UNL     1      85.721  52.443  48.319  0.00  0.00    -0.061 A 
ATOM     15  C   UNL     1      84.670  53.190  48.861  0.00  0.00    -0.062 A 
ATOM     16  C   UNL     1      84.068  54.199  48.105  0.00  0.00    -0.061 A 
ATOM     17  C   UNL     1      84.518  54.467  46.808  0.00  0.00    -0.055 A 
ENDBRANCH   8  12
BRANCH   1  18
ATOM     18  O   UNL     1      88.642  50.411  40.582  0.00  0.00    -0.506 OA
ATOM     19  H   UNL     1      89.417  50.169  41.049  0.00  0.00    +0.000 HD
ENDBRANCH   1  18
BRANCH   3  20
ATOM     20  O   UNL     1      85.688  54.067  39.630  0.00  0.00    -0.506 OA
ATOM     21  H   UNL     1      85.943  54.954  39.465  0.00  0.00    +0.000 HD
ENDBRANCH   3  20
BRANCH   6  22
ATOM     22  C   UNL     1      88.338  50.683  43.426  0.00  0.00    +0.008 C 
BRANCH  22  23
ATOM     23  C   UNL     1      87.472  49.491  43.770  0.00  0.00    -0.001 A 
ATOM     24  C   UNL     1      86.525  49.593  44.804  0.00  0.00    -0.055 A 
ATOM     25  C   UNL     1      85.698  48.511  45.118  0.00  0.00    -0.061 A 
ATOM     26  C   UNL     1      85.809  47.316  44.407  0.00  0.00    -0.058 A 
ATOM     27  C   UNL     1      86.750  47.197  43.382  0.00  0.00    -0.020 A 
ATOM     28  C   UNL     1      87.586  48.277  43.060  0.00  0.00    +0.120 A 
BRANCH  28  29
ATOM     29  O   UNL     1      88.530  48.139  42.045  0.00  0.00    -0.506 OA
ATOM     30  H   UNL     1      89.310  48.659  42.055  0.00  0.00    +0.000 HD
ENDBRANCH  28  29
ENDBRANCH  22  23
ENDBRANCH   6  22
TORSDOF 6
ENDMDL
MODEL 9
REMARK VINA RESULT:    -8.781      2.359      5.613
REMARK INTER + INTRA:         -12.300
REMARK INTER:                 -11.195
REMARK INTRA:                  -1.105
REMARK UNBOUND:                -1.209
REMARK  Name = 
REMARK  6 active torsions:
REMARK  status: ('A' for Active; 'I' for Inactive)
REMARK    1  A    between atoms: O_1  and  C_2
REMARK    2  A    between atoms: C_4  and  O_5
REMARK    3  A    between atoms: C_8  and  C_9
REMARK    4  A    between atoms: C_9  and  C_10
REMARK    5  A    between atoms: C_15  and  O_16
REMARK    6  A    between atoms: C_18  and  C_22
REMARK                            x       y       z     vdW  Elec       q    Type
REMARK                         _______ _______ _______ _____ _____    ______ ____
ROOT
ATOM      1  C   UNL     1      87.586  50.717  44.697  0.00  0.00    +0.127 A 
ATOM      2  C   UNL     1      87.702  50.111  45.951  0.00  0.00    +0.023 A 
ATOM      3  C   UNL     1      87.227  50.741  47.103  0.00  0.00    +0.134 A 
ATOM      4  C   UNL     1      86.564  51.988  46.996  0.00  0.00    +0.101 A 
ATOM      5  C   UNL     1      86.458  52.607  45.729  0.00  0.00    +0.142 A 
ATOM      6  C   UNL     1      86.968  51.976  44.576  0.00  0.00    +0.041 A 
ATOM      7  O   UNL     1      85.853  53.869  45.620  0.00  0.00    -0.483 OA
ATOM      8  C   UNL     1      85.050  54.439  46.655  0.00  0.00    +0.132 C 
ATOM      9  C   UNL     1      85.676  54.167  48.026  0.00  0.00    +0.052 C 
ATOM     10  C   UNL     1      85.958  52.700  48.148  0.00  0.00    +0.174 C 
ATOM     11  O   UNL     1      85.618  52.094  49.198  0.00  0.00    -0.292 OA
ENDROOT
BRANCH   8  12
ATOM     12  C   UNL     1      84.885  55.919  46.420  0.00  0.00    -0.007 A 
ATOM     13  C   UNL     1      83.961  56.665  47.175  0.00  0.00    -0.055 A 
ATOM     14  C   UNL     1      83.794  58.032  46.937  0.00  0.00    -0.061 A 
ATOM     15  C   UNL     1      84.539  58.665  45.938  0.00  0.00    -0.062 A 
ATOM     16  C   UNL     1      85.448  57.930  45.173  0.00  0.00    -0.061 A 
ATOM     17  C   UNL     1      85.619  56.562  45.408  0.00  0.00    -0.055 A 
ENDBRANCH   8  12
BRANCH   1  18
ATOM     18  O   UNL     1      88.098  50.074  43.572  0.00  0.00    -0.506 OA
ATOM     19  H   UNL     1      87.872  49.181  43.399  0.00  0.00    +0.000 HD
ENDBRANCH   1  18
BRANCH   3  20
ATOM     20  O   UNL     1      87.470  50.108  48.326  0.00  0.00    -0.506 OA
ATOM     21  H   UNL     1      88.318  49.755  48.510  0.00  0.00    +0.000 HD
ENDBRANCH   3  20
BRANCH   6  22
ATOM     22  C   UNL     1      86.829  52.626  43.213  0.00  0.00    +0.008 C 
BRANCH  22  23
ATOM     23  C   UNL     1      85.379  52.703  42.789  0.00  0.00    -0.001 A 
ATOM     24  C   UNL     1      84.570  51.555  42.857  0.00  0.00    -0.055 A 
ATOM     25  C   UNL     1      83.222  51.614  42.494  0.00  0.00    -0.061 A 
ATOM     26  C   UNL     1      82.667  52.818  42.057  0.00  0.00    -0.058 A 
ATOM     27  C   UNL     1      83.460  53.965  41.977  0.00  0.00    -0.020 A 
ATOM     28  C   UNL     1      84.815  53.915  42.337  0.00  0.00    +0.120 A 
BRANCH  28  29
ATOM     29  O   UNL     1      85.597  55.064  42.238  0.00  0.00    -0.506 OA
ATOM     30  H   UNL     1      85.331  55.852  42.670  0.00  0.00    +0.000 HD
ENDBRANCH  28  29
ENDBRANCH  22  23
ENDBRANCH   6  22
TORSDOF 6
ENDMDL
