=
 OpenBabel09092515023D

 30 33  0  0  1  0  0  0  0  0999 V2000
   84.6920   54.3620   40.9330 C   0  0  0  0  0  0  0  0  0  0  0  0
   84.3200   55.6420   41.3560 C   0  0  0  0  0  3  0  0  0  0  0  0
   84.5350   56.0580   42.6710 C   0  0  0  0  0  0  0  0  0  0  0  0
   85.1920   55.1920   43.5800 C   0  0  0  0  0  0  0  0  0  0  0  0
   85.5570   53.8940   43.1560 C   0  0  0  0  0  0  0  0  0  0  0  0
   85.3090   53.4730   41.8340 C   0  0  0  0  0  0  0  0  0  0  0  0
   86.1590   53.0100   44.0650 O   0  0  0  0  0  0  0  0  0  0  0  0
   86.7190   53.4330   45.3080 C   0  0  1  0  0  3  0  0  0  0  0  0
   85.8200   54.4840   45.9680 C   0  0  0  0  0  2  0  0  0  0  0  0
   85.5340   55.5690   44.9740 C   0  0  0  0  0  0  0  0  0  0  0  0
   85.6510   56.7720   45.3260 O   0  0  0  0  0  0  0  0  0  0  0  0
   86.9150   52.2450   46.2150 C   0  0  0  0  0  0  0  0  0  0  0  0
   86.2170   52.1510   47.4330 C   0  0  0  0  0  3  0  0  0  0  0  0
   86.4210   51.0590   48.2820 C   0  0  0  0  0  3  0  0  0  0  0  0
   87.3290   50.0570   47.9290 C   0  0  0  0  0  3  0  0  0  0  0  0
   88.0380   50.1480   46.7280 C   0  0  0  0  0  3  0  0  0  0  0  0
   87.8370   51.2390   45.8750 C   0  0  0  0  0  3  0  0  0  0  0  0
   84.4350   53.9690   39.6210 O   0  0  0  0  0  0  0  0  0  0  0  0
   84.7020   53.1210   39.3250 H   0  0  0  0  0  0  0  0  0  0  0  0
   84.0450   57.3160   43.0330 O   0  0  0  0  0  0  0  0  0  0  0  0
   83.1210   57.4620   43.0860 H   0  0  0  0  0  0  0  0  0  0  0  0
   85.7250   52.0910   41.3710 C   0  0  0  0  0  2  0  0  0  0  0  0
   87.2240   52.0050   41.1840 C   0  0  0  0  0  0  0  0  0  0  0  0
   88.0120   51.3630   42.1570 C   0  0  0  0  0  3  0  0  0  0  0  0
   89.3950   51.2510   41.9890 C   0  0  0  0  0  3  0  0  0  0  0  0
   90.0070   51.7800   40.8510 C   0  0  0  0  0  3  0  0  0  0  0  0
   89.2380   52.4260   39.8810 C   0  0  0  0  0  3  0  0  0  0  0  0
   87.8490   52.5450   40.0410 C   0  0  0  0  0  0  0  0  0  0  0  0
   87.0970   53.2050   39.0710 O   0  0  0  0  0  0  0  0  0  0  0  0
   86.8840   54.1110   39.1790 H   0  0  0  0  0  0  0  0  0  0  0  0
  1  2  2  0  0  0  0
  1  6  1  0  0  0  0
  2  3  1  0  0  0  0
  3 20  1  0  0  0  0
  3  4  2  0  0  0  0
  4 10  1  0  0  0  0
  5  4  1  0  0  0  0
  5  7  1  0  0  0  0
  6  5  2  0  0  0  0
  7  8  1  0  0  0  0
  8  9  1  0  0  0  0
  8 12  1  1  0  0  0
 10 11  2  0  0  0  0
 10  9  1  0  0  0  0
 12 13  1  0  0  0  0
 13 14  2  0  0  0  0
 15 14  1  0  0  0  0
 16 15  2  0  0  0  0
 17 12  2  0  0  0  0
 17 16  1  0  0  0  0
 18  1  1  0  0  0  0
 19 18  1  0  0  0  0
 20 21  1  0  0  0  0
 22  6  1  0  0  0  0
 23 22  1  0  0  0  0
 23 24  1  0  0  0  0
 25 24  2  0  0  0  0
 26 25  1  0  0  0  0
 27 28  1  0  0  0  0
 27 26  2  0  0  0  0
 28 23  2  0  0  0  0
 29 30  1  0  0  0  0
 29 28  1  0  0  0  0
M  END
>  <MODEL>
1

>  <REMARK>
 VINA RESULT:    -9.472      0.000      0.000
 INTER + INTRA:         -12.954
 INTER:                 -11.852
 INTRA:                  -1.102
 UNBOUND:                -0.990
  Name = 
  6 active torsions:
  status: ('A' for Active; 'I' for Inactive)
    1  A    between atoms: O_1  and  C_2
    2  A    between atoms: C_4  and  O_5
    3  A    between atoms: C_8  and  C_9
    4  A    between atoms: C_9  and  C_10
    5  A    between atoms: C_15  and  O_16
    6  A    between atoms: C_18  and  C_22
                            x       y       z     vdW  Elec       q    Type
                         _______ _______ _______ _____ _____    ______ ____

>  <TORSDO>
F 6

$$$$
=
 OpenBabel09092515023D

 30 33  0  0  1  0  0  0  0  0999 V2000
   86.4460   52.2100   41.5530 C   0  0  0  0  0  0  0  0  0  0  0  0
   85.6820   53.1680   40.8790 C   0  0  0  0  0  3  0  0  0  0  0  0
   84.2860   53.1280   40.9090 C   0  0  0  0  0  0  0  0  0  0  0  0
   83.6320   52.1370   41.6820 C   0  0  0  0  0  0  0  0  0  0  0  0
   84.4050   51.1620   42.3530 C   0  0  0  0  0  0  0  0  0  0  0  0
   85.8130   51.1930   42.2910 C   0  0  0  0  0  0  0  0  0  0  0  0
   83.7640   50.1430   43.0750 O   0  0  0  0  0  0  0  0  0  0  0  0
   82.3860   50.1990   43.4450 C   0  0  1  0  0  3  0  0  0  0  0  0
   81.5480   50.7650   42.2940 C   0  0  0  0  0  2  0  0  0  0  0  0
   82.1580   52.0560   41.8400 C   0  0  0  0  0  0  0  0  0  0  0  0
   81.4170   53.0590   41.6630 O   0  0  0  0  0  0  0  0  0  0  0  0
   81.9030   48.8270   43.8400 C   0  0  0  0  0  0  0  0  0  0  0  0
   82.6660   47.6840   43.5370 C   0  0  0  0  0  3  0  0  0  0  0  0
   82.2020   46.4130   43.8840 C   0  0  0  0  0  3  0  0  0  0  0  0
   80.9690   46.2670   44.5260 C   0  0  0  0  0  3  0  0  0  0  0  0
   80.1970   47.3940   44.8190 C   0  0  0  0  0  3  0  0  0  0  0  0
   80.6570   48.6700   44.4740 C   0  0  0  0  0  3  0  0  0  0  0  0
   87.8370   52.2630   41.4760 O   0  0  0  0  0  0  0  0  0  0  0  0
   88.2540   52.9270   40.9640 H   0  0  0  0  0  0  0  0  0  0  0  0
   83.6010   54.0640   40.1300 O   0  0  0  0  0  0  0  0  0  0  0  0
   82.9390   54.6020   40.5190 H   0  0  0  0  0  0  0  0  0  0  0  0
   86.6430   50.1650   43.0340 C   0  0  0  0  0  2  0  0  0  0  0  0
   86.7470   50.5030   44.5040 C   0  0  0  0  0  0  0  0  0  0  0  0
   87.2350   51.7620   44.8980 C   0  0  0  0  0  3  0  0  0  0  0  0
   87.3130   52.1020   46.2510 C   0  0  0  0  0  3  0  0  0  0  0  0
   86.9080   51.1900   47.2260 C   0  0  0  0  0  3  0  0  0  0  0  0
   86.4270   49.9340   46.8510 C   0  0  0  0  0  3  0  0  0  0  0  0
   86.3470   49.5820   45.4950 C   0  0  0  0  0  0  0  0  0  0  0  0
   85.8790   48.3190   45.1370 O   0  0  0  0  0  0  0  0  0  0  0  0
   85.5620   48.1660   44.2690 H   0  0  0  0  0  0  0  0  0  0  0  0
  1  6  1  0  0  0  0
  2  3  1  0  0  0  0
  2  1  2  0  0  0  0
  3  4  2  0  0  0  0
  4 10  1  0  0  0  0
  4  5  1  0  0  0  0
  5  7  1  0  0  0  0
  6  5  2  0  0  0  0
  6 22  1  0  0  0  0
  7  8  1  0  0  0  0
  8 12  1  6  0  0  0
  9  8  1  0  0  0  0
 10  9  1  0  0  0  0
 11 10  2  0  0  0  0
 12 17  1  0  0  0  0
 13 12  2  0  0  0  0
 13 14  1  0  0  0  0
 14 15  2  0  0  0  0
 15 16  1  0  0  0  0
 17 16  2  0  0  0  0
 18  1  1  0  0  0  0
 19 18  1  0  0  0  0
 20 21  1  0  0  0  0
 20  3  1  0  0  0  0
 22 23  1  0  0  0  0
 23 24  2  0  0  0  0
 23 28  1  0  0  0  0
 24 25  1  0  0  0  0
 25 26  2  0  0  0  0
 27 26  1  0  0  0  0
 28 27  2  0  0  0  0
 29 28  1  0  0  0  0
 30 29  1  0  0  0  0
M  END
>  <MODEL>
2

>  <REMARK>
 VINA RESULT:    -9.464      4.016      5.723
 INTER + INTRA:         -12.944
 INTER:                 -11.801
 INTRA:                  -1.143
 UNBOUND:                -0.990
  Name = 
  6 active torsions:
  status: ('A' for Active; 'I' for Inactive)
    1  A    between atoms: O_1  and  C_2
    2  A    between atoms: C_4  and  O_5
    3  A    between atoms: C_8  and  C_9
    4  A    between atoms: C_9  and  C_10
    5  A    between atoms: C_15  and  O_16
    6  A    between atoms: C_18  and  C_22
                            x       y       z     vdW  Elec       q    Type
                         _______ _______ _______ _____ _____    ______ ____

>  <TORSDO>
F 6

$$$$
=
 OpenBabel09092515023D

 30 33  0  0  1  0  0  0  0  0999 V2000
   83.1130   50.6630   43.4260 C   0  0  0  0  0  0  0  0  0  0  0  0
   81.8050   50.1700   43.3770 C   0  0  0  0  0  3  0  0  0  0  0  0
   81.5520   48.7970   43.3970 C   0  0  0  0  0  0  0  0  0  0  0  0
   82.6310   47.8880   43.5290 C   0  0  0  0  0  0  0  0  0  0  0  0
   83.9530   48.3880   43.5660 C   0  0  0  0  0  0  0  0  0  0  0  0
   84.2000   49.7750   43.5140 C   0  0  0  0  0  0  0  0  0  0  0  0
   85.0320   47.4930   43.6400 O   0  0  0  0  0  0  0  0  0  0  0  0
   84.8810   46.1190   43.9990 C   0  0  1  0  0  3  0  0  0  0  0  0
   83.6300   45.5300   43.3380 C   0  0  0  0  0  2  0  0  0  0  0  0
   82.4610   46.4180   43.6370 C   0  0  0  0  0  0  0  0  0  0  0  0
   81.3820   45.9020   44.0320 O   0  0  0  0  0  0  0  0  0  0  0  0
   86.1140   45.3450   43.6060 C   0  0  0  0  0  0  0  0  0  0  0  0
   87.0920   45.9290   42.7800 C   0  0  0  0  0  3  0  0  0  0  0  0
   88.2210   45.2000   42.3980 C   0  0  0  0  0  3  0  0  0  0  0  0
   88.3810   43.8790   42.8270 C   0  0  0  0  0  3  0  0  0  0  0  0
   87.4080   43.2850   43.6360 C   0  0  0  0  0  3  0  0  0  0  0  0
   86.2770   44.0120   44.0210 C   0  0  0  0  0  3  0  0  0  0  0  0
   83.3310   52.0390   43.3730 O   0  0  0  0  0  0  0  0  0  0  0  0
   83.9510   52.3920   42.7660 H   0  0  0  0  0  0  0  0  0  0  0  0
   80.2240   48.3880   43.2470 O   0  0  0  0  0  0  0  0  0  0  0  0
   79.9690   47.8900   42.4950 H   0  0  0  0  0  0  0  0  0  0  0  0
   85.6160   50.3120   43.5830 C   0  0  0  0  0  2  0  0  0  0  0  0
   86.0040   50.6520   45.0050 C   0  0  0  0  0  0  0  0  0  0  0  0
   86.3760   49.6260   45.8910 C   0  0  0  0  0  3  0  0  0  0  0  0
   86.7630   49.9240   47.2010 C   0  0  0  0  0  3  0  0  0  0  0  0
   86.7790   51.2480   47.6410 C   0  0  0  0  0  3  0  0  0  0  0  0
   86.4050   52.2770   46.7740 C   0  0  0  0  0  3  0  0  0  0  0  0
   86.0130   51.9880   45.4590 C   0  0  0  0  0  0  0  0  0  0  0  0
   85.6290   53.0240   44.6100 O   0  0  0  0  0  0  0  0  0  0  0  0
   85.3510   52.8350   43.7350 H   0  0  0  0  0  0  0  0  0  0  0  0
  1  6  1  0  0  0  0
  2  3  1  0  0  0  0
  2  1  2  0  0  0  0
  3  4  2  0  0  0  0
  4  5  1  0  0  0  0
  4 10  1  0  0  0  0
  5  7  1  0  0  0  0
  6  5  2  0  0  0  0
  6 22  1  0  0  0  0
  7  8  1  0  0  0  0
  8 12  1  6  0  0  0
  9 10  1  0  0  0  0
  9  8  1  0  0  0  0
 10 11  2  0  0  0  0
 12 17  1  0  0  0  0
 13 12  2  0  0  0  0
 14 13  1  0  0  0  0
 14 15  2  0  0  0  0
 15 16  1  0  0  0  0
 16 17  2  0  0  0  0
 18  1  1  0  0  0  0
 19 18  1  0  0  0  0
 20  3  1  0  0  0  0
 21 20  1  0  0  0  0
 22 23  1  0  0  0  0
 23 28  2  0  0  0  0
 23 24  1  0  0  0  0
 24 25  2  0  0  0  0
 25 26  1  0  0  0  0
 27 26  2  0  0  0  0
 28 27  1  0  0  0  0
 29 28  1  0  0  0  0
 30 29  1  0  0  0  0
M  END
>  <MODEL>
3

>  <REMARK>
 VINA RESULT:    -9.256      5.180      7.183
 INTER + INTRA:         -12.681
 INTER:                 -11.411
 INTRA:                  -1.270
 UNBOUND:                -0.990
  Name = 
  6 active torsions:
  status: ('A' for Active; 'I' for Inactive)
    1  A    between atoms: O_1  and  C_2
    2  A    between atoms: C_4  and  O_5
    3  A    between atoms: C_8  and  C_9
    4  A    between atoms: C_9  and  C_10
    5  A    between atoms: C_15  and  O_16
    6  A    between atoms: C_18  and  C_22
                            x       y       z     vdW  Elec       q    Type
                         _______ _______ _______ _____ _____    ______ ____

>  <TORSDO>
F 6

$$$$
=
 OpenBabel09092515023D

 30 33  0  0  1  0  0  0  0  0999 V2000
   82.4810   52.8340   41.5750 C   0  0  0  0  0  0  0  0  0  0  0  0
   81.6330   51.8480   42.0880 C   0  0  0  0  0  3  0  0  0  0  0  0
   82.1460   50.6910   42.6780 C   0  0  0  0  0  0  0  0  0  0  0  0
   83.5480   50.5380   42.8130 C   0  0  0  0  0  0  0  0  0  0  0  0
   84.4050   51.5300   42.2830 C   0  0  0  0  0  0  0  0  0  0  0  0
   83.8770   52.6800   41.6620 C   0  0  0  0  0  0  0  0  0  0  0  0
   85.7960   51.3600   42.3620 O   0  0  0  0  0  0  0  0  0  0  0  0
   86.4160   50.4040   43.2230 C   0  0  1  0  0  3  0  0  0  0  0  0
   85.6310   49.0880   43.2120 C   0  0  0  0  0  2  0  0  0  0  0  0
   84.1880   49.3840   43.4910 C   0  0  0  0  0  0  0  0  0  0  0  0
   83.5710   48.6870   44.3400 O   0  0  0  0  0  0  0  0  0  0  0  0
   87.8460   50.1820   42.7990 C   0  0  0  0  0  0  0  0  0  0  0  0
   88.3330   50.7390   41.6020 C   0  0  0  0  0  3  0  0  0  0  0  0
   89.6520   50.5090   41.2020 C   0  0  0  0  0  3  0  0  0  0  0  0
   90.4940   49.7150   41.9850 C   0  0  0  0  0  3  0  0  0  0  0  0
   90.0160   49.1460   43.1680 C   0  0  0  0  0  3  0  0  0  0  0  0
   88.6970   49.3730   43.5740 C   0  0  0  0  0  3  0  0  0  0  0  0
   81.9340   53.9620   40.9660 O   0  0  0  0  0  0  0  0  0  0  0  0
   81.0060   54.0370   40.8640 H   0  0  0  0  0  0  0  0  0  0  0  0
   81.2300   49.7140   43.0770 O   0  0  0  0  0  0  0  0  0  0  0  0
   80.3100   49.8960   43.0520 H   0  0  0  0  0  0  0  0  0  0  0  0
   84.7950   53.7570   41.1200 C   0  0  0  0  0  2  0  0  0  0  0  0
   85.1110   54.7910   42.1770 C   0  0  0  0  0  0  0  0  0  0  0  0
   84.1720   55.7950   42.4740 C   0  0  0  0  0  3  0  0  0  0  0  0
   84.4350   56.7420   43.4670 C   0  0  0  0  0  3  0  0  0  0  0  0
   85.6390   56.7010   44.1720 C   0  0  0  0  0  3  0  0  0  0  0  0
   86.5850   55.7150   43.8830 C   0  0  0  0  0  3  0  0  0  0  0  0
   86.3310   54.7600   42.8870 C   0  0  0  0  0  0  0  0  0  0  0  0
   87.2890   53.7910   42.6000 O   0  0  0  0  0  0  0  0  0  0  0  0
   88.1020   53.7830   43.0650 H   0  0  0  0  0  0  0  0  0  0  0  0
  1  6  2  0  0  0  0
  1  2  1  0  0  0  0
  2  3  2  0  0  0  0
  3  4  1  0  0  0  0
  3 20  1  0  0  0  0
  4 10  1  0  0  0  0
  5  7  1  0  0  0  0
  5  4  2  0  0  0  0
  6  5  1  0  0  0  0
  7  8  1  0  0  0  0
  8 12  1  6  0  0  0
  9  8  1  0  0  0  0
  9 10  1  0  0  0  0
 10 11  2  0  0  0  0
 12 17  1  0  0  0  0
 13 12  2  0  0  0  0
 14 13  1  0  0  0  0
 14 15  2  0  0  0  0
 15 16  1  0  0  0  0
 16 17  2  0  0  0  0
 18  1  1  0  0  0  0
 19 18  1  0  0  0  0
 21 20  1  0  0  0  0
 22  6  1  0  0  0  0
 22 23  1  0  0  0  0
 23 24  2  0  0  0  0
 23 28  1  0  0  0  0
 24 25  1  0  0  0  0
 25 26  2  0  0  0  0
 27 26  1  0  0  0  0
 28 27  2  0  0  0  0
 29 28  1  0  0  0  0
 29 30  1  0  0  0  0
M  END
>  <MODEL>
4

>  <REMARK>
 VINA RESULT:    -9.220      2.778      5.298
 INTER + INTRA:         -12.635
 INTER:                 -11.353
 INTRA:                  -1.283
 UNBOUND:                -0.990
  Name = 
  6 active torsions:
  status: ('A' for Active; 'I' for Inactive)
    1  A    between atoms: O_1  and  C_2
    2  A    between atoms: C_4  and  O_5
    3  A    between atoms: C_8  and  C_9
    4  A    between atoms: C_9  and  C_10
    5  A    between atoms: C_15  and  O_16
    6  A    between atoms: C_18  and  C_22
                            x       y       z     vdW  Elec       q    Type
                         _______ _______ _______ _____ _____    ______ ____

>  <TORSDO>
F 6

$$$$
=
 OpenBabel09092515023D

 30 33  0  0  1  0  0  0  0  0999 V2000
   85.1110   49.2090   44.4850 C   0  0  0  0  0  0  0  0  0  0  0  0
   83.9540   48.8640   43.7790 C   0  0  0  0  0  3  0  0  0  0  0  0
   83.2510   49.8160   43.0380 C   0  0  0  0  0  0  0  0  0  0  0  0
   83.7470   51.1400   42.9510 C   0  0  0  0  0  0  0  0  0  0  0  0
   84.9090   51.4910   43.6750 C   0  0  0  0  0  0  0  0  0  0  0  0
   85.5950   50.5300   44.4440 C   0  0  0  0  0  0  0  0  0  0  0  0
   85.3770   52.8140   43.6400 O   0  0  0  0  0  0  0  0  0  0  0  0
   84.9420   53.7680   42.6690 C   0  0  1  0  0  3  0  0  0  0  0  0
   83.4350   53.6360   42.4300 C   0  0  0  0  0  2  0  0  0  0  0  0
   83.1160   52.2030   42.1290 C   0  0  0  0  0  0  0  0  0  0  0  0
   82.3720   51.9310   41.1500 O   0  0  0  0  0  0  0  0  0  0  0  0
   85.2970   55.1620   43.1230 C   0  0  0  0  0  0  0  0  0  0  0  0
   86.5090   55.4100   43.7920 C   0  0  0  0  0  3  0  0  0  0  0  0
   86.8210   56.6990   44.2330 C   0  0  0  0  0  3  0  0  0  0  0  0
   85.9240   57.7490   44.0200 C   0  0  0  0  0  3  0  0  0  0  0  0
   84.7110   57.5100   43.3690 C   0  0  0  0  0  3  0  0  0  0  0  0
   84.3940   56.2220   42.9260 C   0  0  0  0  0  3  0  0  0  0  0  0
   85.7710   48.2400   45.2390 O   0  0  0  0  0  0  0  0  0  0  0  0
   85.3150   47.4680   45.5130 H   0  0  0  0  0  0  0  0  0  0  0  0
   82.0540   49.4080   42.4420 O   0  0  0  0  0  0  0  0  0  0  0  0
   81.9490   48.5200   42.1620 H   0  0  0  0  0  0  0  0  0  0  0  0
   86.8570   50.8990   45.1980 C   0  0  0  0  0  2  0  0  0  0  0  0
   86.5340   51.6220   46.4870 C   0  0  0  0  0  0  0  0  0  0  0  0
   86.3400   53.0150   46.4750 C   0  0  0  0  0  3  0  0  0  0  0  0
   86.0140   53.6960   47.6520 C   0  0  0  0  0  3  0  0  0  0  0  0
   85.8820   52.9960   48.8510 C   0  0  0  0  0  3  0  0  0  0  0  0
   86.0780   51.6130   48.8800 C   0  0  0  0  0  3  0  0  0  0  0  0
   86.4080   50.9210   47.7050 C   0  0  0  0  0  0  0  0  0  0  0  0
   86.6150   49.5440   47.7510 O   0  0  0  0  0  0  0  0  0  0  0  0
   85.9140   48.9570   47.5470 H   0  0  0  0  0  0  0  0  0  0  0  0
  1 18  1  0  0  0  0
  2  1  2  0  0  0  0
  3  2  1  0  0  0  0
  4  3  2  0  0  0  0
  4  5  1  0  0  0  0
  5  6  2  0  0  0  0
  6  1  1  0  0  0  0
  6 22  1  0  0  0  0
  7  5  1  0  0  0  0
  8 12  1  1  0  0  0
  8  7  1  0  0  0  0
  9  8  1  0  0  0  0
 10  9  1  0  0  0  0
 10  4  1  0  0  0  0
 11 10  2  0  0  0  0
 12 13  1  0  0  0  0
 13 14  2  0  0  0  0
 15 14  1  0  0  0  0
 16 15  2  0  0  0  0
 17 12  2  0  0  0  0
 17 16  1  0  0  0  0
 18 19  1  0  0  0  0
 20  3  1  0  0  0  0
 21 20  1  0  0  0  0
 22 23  1  0  0  0  0
 23 28  1  0  0  0  0
 24 23  2  0  0  0  0
 24 25  1  0  0  0  0
 25 26  2  0  0  0  0
 26 27  1  0  0  0  0
 28 29  1  0  0  0  0
 28 27  2  0  0  0  0
 30 29  1  0  0  0  0
M  END
>  <MODEL>
5

>  <REMARK>
 VINA RESULT:    -9.205      2.847      6.528
 INTER + INTRA:         -12.617
 INTER:                 -11.390
 INTRA:                  -1.227
 UNBOUND:                -0.990
  Name = 
  6 active torsions:
  status: ('A' for Active; 'I' for Inactive)
    1  A    between atoms: O_1  and  C_2
    2  A    between atoms: C_4  and  O_5
    3  A    between atoms: C_8  and  C_9
    4  A    between atoms: C_9  and  C_10
    5  A    between atoms: C_15  and  O_16
    6  A    between atoms: C_18  and  C_22
                            x       y       z     vdW  Elec       q    Type
                         _______ _______ _______ _____ _____    ______ ____

>  <TORSDO>
F 6

$$$$
=
 OpenBabel09092515023D

 30 33  0  0  1  0  0  0  0  0999 V2000
   86.5560   52.1580   42.3720 C   0  0  0  0  0  0  0  0  0  0  0  0
   85.9330   53.0250   41.4680 C   0  0  0  0  0  3  0  0  0  0  0  0
   84.5690   52.9180   41.1890 C   0  0  0  0  0  0  0  0  0  0  0  0
   83.7890   51.9540   41.8730 C   0  0  0  0  0  0  0  0  0  0  0  0
   84.4210   51.0690   42.7770 C   0  0  0  0  0  0  0  0  0  0  0  0
   85.8050   51.1660   43.0300 C   0  0  0  0  0  0  0  0  0  0  0  0
   83.6670   50.0740   43.4180 O   0  0  0  0  0  0  0  0  0  0  0  0
   82.2390   50.0880   43.4640 C   0  0  1  0  0  3  0  0  0  0  0  0
   81.6660   50.5270   42.1130 C   0  0  0  0  0  2  0  0  0  0  0  0
   82.3220   51.8110   41.7040 C   0  0  0  0  0  0  0  0  0  0  0  0
   81.6070   52.7600   41.2850 O   0  0  0  0  0  0  0  0  0  0  0  0
   81.7240   48.7240   43.8520 C   0  0  0  0  0  0  0  0  0  0  0  0
   82.4480   47.5650   43.5190 C   0  0  0  0  0  3  0  0  0  0  0  0
   81.9540   46.3030   43.8590 C   0  0  0  0  0  3  0  0  0  0  0  0
   80.7300   46.1840   44.5230 C   0  0  0  0  0  3  0  0  0  0  0  0
   79.9960   47.3290   44.8450 C   0  0  0  0  0  3  0  0  0  0  0  0
   80.4870   48.5950   44.5080 C   0  0  0  0  0  3  0  0  0  0  0  0
   87.9250   52.2750   42.6040 O   0  0  0  0  0  0  0  0  0  0  0  0
   88.2350   52.6170   43.4190 H   0  0  0  0  0  0  0  0  0  0  0  0
   84.0490   53.7610   40.2030 O   0  0  0  0  0  0  0  0  0  0  0  0
   84.6250   54.1930   39.6040 H   0  0  0  0  0  0  0  0  0  0  0  0
   86.4780   50.2370   44.0200 C   0  0  0  0  0  2  0  0  0  0  0  0
   86.9510   48.9680   43.3460 C   0  0  0  0  0  0  0  0  0  0  0  0
   86.0620   47.8910   43.1840 C   0  0  0  0  0  3  0  0  0  0  0  0
   86.4740   46.7210   42.5400 C   0  0  0  0  0  3  0  0  0  0  0  0
   87.7770   46.6120   42.0530 C   0  0  0  0  0  3  0  0  0  0  0  0
   88.6730   47.6710   42.2120 C   0  0  0  0  0  3  0  0  0  0  0  0
   88.2700   48.8490   42.8590 C   0  0  0  0  0  0  0  0  0  0  0  0
   89.1800   49.8920   43.0240 O   0  0  0  0  0  0  0  0  0  0  0  0
   89.9740   49.7500   43.5000 H   0  0  0  0  0  0  0  0  0  0  0  0
  1 18  1  0  0  0  0
  1  6  1  0  0  0  0
  2  1  2  0  0  0  0
  3  2  1  0  0  0  0
  3  4  2  0  0  0  0
  4  5  1  0  0  0  0
  5  6  2  0  0  0  0
  5  7  1  0  0  0  0
  6 22  1  0  0  0  0
  7  8  1  0  0  0  0
  8 12  1  6  0  0  0
  9  8  1  0  0  0  0
 10  4  1  0  0  0  0
 10  9  1  0  0  0  0
 11 10  2  0  0  0  0
 12 17  1  0  0  0  0
 13 12  2  0  0  0  0
 13 14  1  0  0  0  0
 14 15  2  0  0  0  0
 15 16  1  0  0  0  0
 17 16  2  0  0  0  0
 18 19  1  0  0  0  0
 20  3  1  0  0  0  0
 21 20  1  0  0  0  0
 23 22  1  0  0  0  0
 24 23  1  0  0  0  0
 25 24  2  0  0  0  0
 26 27  2  0  0  0  0
 26 25  1  0  0  0  0
 27 28  1  0  0  0  0
 28 29  1  0  0  0  0
 28 23  2  0  0  0  0
 29 30  1  0  0  0  0
M  END
>  <MODEL>
6

>  <REMARK>
 VINA RESULT:    -9.054      4.428      5.585
 INTER + INTRA:         -12.426
 INTER:                 -11.047
 INTRA:                  -1.378
 UNBOUND:                -0.990
  Name = 
  6 active torsions:
  status: ('A' for Active; 'I' for Inactive)
    1  A    between atoms: O_1  and  C_2
    2  A    between atoms: C_4  and  O_5
    3  A    between atoms: C_8  and  C_9
    4  A    between atoms: C_9  and  C_10
    5  A    between atoms: C_15  and  O_16
    6  A    between atoms: C_18  and  C_22
                            x       y       z     vdW  Elec       q    Type
                         _______ _______ _______ _____ _____    ______ ____

>  <TORSDO>
F 6

$$$$
=
 OpenBabel09092515023D

 30 33  0  0  1  0  0  0  0  0999 V2000
   87.2610   50.9350   42.2390 C   0  0  0  0  0  0  0  0  0  0  0  0
   87.6960   50.1850   43.3370 C   0  0  0  0  0  3  0  0  0  0  0  0
   87.5940   50.6840   44.6370 C   0  0  0  0  0  0  0  0  0  0  0  0
   86.9870   51.9450   44.8560 C   0  0  0  0  0  0  0  0  0  0  0  0
   86.5580   52.7080   43.7450 C   0  0  0  0  0  0  0  0  0  0  0  0
   86.6930   52.2080   42.4340 C   0  0  0  0  0  0  0  0  0  0  0  0
   86.0070   53.9830   43.9490 O   0  0  0  0  0  0  0  0  0  0  0  0
   85.5540   54.4410   45.2240 C   0  0  1  0  0  3  0  0  0  0  0  0
   86.5270   54.0030   46.3240 C   0  0  0  0  0  2  0  0  0  0  0  0
   86.7620   52.5280   46.2020 C   0  0  0  0  0  0  0  0  0  0  0  0
   86.7030   51.8090   47.2350 O   0  0  0  0  0  0  0  0  0  0  0  0
   85.3990   55.9410   45.2060 C   0  0  0  0  0  0  0  0  0  0  0  0
   86.0840   56.7200   44.2550 C   0  0  0  0  0  3  0  0  0  0  0  0
   85.9560   58.1110   44.2590 C   0  0  0  0  0  3  0  0  0  0  0  0
   85.1530   58.7390   45.2160 C   0  0  0  0  0  3  0  0  0  0  0  0
   84.4810   57.9750   46.1730 C   0  0  0  0  0  3  0  0  0  0  0  0
   84.6050   56.5820   46.1730 C   0  0  0  0  0  3  0  0  0  0  0  0
   87.4060   50.4180   40.9530 O   0  0  0  0  0  0  0  0  0  0  0  0
   87.8710   50.9060   40.3020 H   0  0  0  0  0  0  0  0  0  0  0  0
   88.1400   49.9110   45.6650 O   0  0  0  0  0  0  0  0  0  0  0  0
   89.0030   49.5560   45.5760 H   0  0  0  0  0  0  0  0  0  0  0  0
   86.2080   53.0130   41.2450 C   0  0  0  0  0  2  0  0  0  0  0  0
   84.7020   53.1530   41.2570 C   0  0  0  0  0  0  0  0  0  0  0  0
   83.9040   52.0640   41.6510 C   0  0  0  0  0  3  0  0  0  0  0  0
   82.5120   52.1830   41.6930 C   0  0  0  0  0  3  0  0  0  0  0  0
   81.9020   53.3870   41.3390 C   0  0  0  0  0  3  0  0  0  0  0  0
   82.6810   54.4750   40.9380 C   0  0  0  0  0  3  0  0  0  0  0  0
   84.0790   54.3650   40.8910 C   0  0  0  0  0  0  0  0  0  0  0  0
   84.8430   55.4530   40.4750 O   0  0  0  0  0  0  0  0  0  0  0  0
   84.4650   56.3110   40.4540 H   0  0  0  0  0  0  0  0  0  0  0  0
  1  6  2  0  0  0  0
  1  2  1  0  0  0  0
  2  3  2  0  0  0  0
  3  4  1  0  0  0  0
  3 20  1  0  0  0  0
  4 10  1  0  0  0  0
  5  7  1  0  0  0  0
  5  4  2  0  0  0  0
  6  5  1  0  0  0  0
  7  8  1  0  0  0  0
  8 12  1  6  0  0  0
  8  9  1  0  0  0  0
 10  9  1  0  0  0  0
 10 11  2  0  0  0  0
 12 17  1  0  0  0  0
 13 14  1  0  0  0  0
 13 12  2  0  0  0  0
 14 15  2  0  0  0  0
 15 16  1  0  0  0  0
 16 17  2  0  0  0  0
 18  1  1  0  0  0  0
 19 18  1  0  0  0  0
 21 20  1  0  0  0  0
 22 23  1  0  0  0  0
 22  6  1  0  0  0  0
 23 24  1  0  0  0  0
 24 25  2  0  0  0  0
 26 25  1  0  0  0  0
 27 26  2  0  0  0  0
 28 27  1  0  0  0  0
 28 23  2  0  0  0  0
 29 28  1  0  0  0  0
 30 29  1  0  0  0  0
M  END
>  <MODEL>
7

>  <REMARK>
 VINA RESULT:    -9.009      2.078      5.490
 INTER + INTRA:         -12.369
 INTER:                 -11.435
 INTRA:                  -0.935
 UNBOUND:                -0.990
  Name = 
  6 active torsions:
  status: ('A' for Active; 'I' for Inactive)
    1  A    between atoms: O_1  and  C_2
    2  A    between atoms: C_4  and  O_5
    3  A    between atoms: C_8  and  C_9
    4  A    between atoms: C_9  and  C_10
    5  A    between atoms: C_15  and  O_16
    6  A    between atoms: C_18  and  C_22
                            x       y       z     vdW  Elec       q    Type
                         _______ _______ _______ _____ _____    ______ ____

>  <TORSDO>
F 6

$$$$
=
 OpenBabel09092515023D

 30 33  0  0  1  0  0  0  0  0999 V2000
   85.3020   56.3850   44.1230 C   0  0  0  0  0  0  0  0  0  0  0  0
   84.4810   56.5290   43.0000 C   0  0  0  0  0  3  0  0  0  0  0  0
   84.4660   55.5660   41.9900 C   0  0  0  0  0  0  0  0  0  0  0  0
   85.2500   54.3940   42.1280 C   0  0  0  0  0  0  0  0  0  0  0  0
   86.0890   54.2550   43.2580 C   0  0  0  0  0  0  0  0  0  0  0  0
   86.1190   55.2470   44.2580 C   0  0  0  0  0  0  0  0  0  0  0  0
   86.9110   53.1230   43.3770 O   0  0  0  0  0  0  0  0  0  0  0  0
   86.7310   51.9440   42.5920 C   0  0  1  0  0  3  0  0  0  0  0  0
   86.3900   52.3130   41.1440 C   0  0  0  0  0  2  0  0  0  0  0  0
   85.2450   53.2790   41.1490 C   0  0  0  0  0  0  0  0  0  0  0  0
   84.2760   53.0890   40.3660 O   0  0  0  0  0  0  0  0  0  0  0  0
   87.9740   51.0910   42.6530 C   0  0  0  0  0  0  0  0  0  0  0  0
   88.9730   51.2100   41.6690 C   0  0  0  0  0  3  0  0  0  0  0  0
   90.1100   50.4000   41.7170 C   0  0  0  0  0  3  0  0  0  0  0  0
   90.2580   49.4570   42.7390 C   0  0  0  0  0  3  0  0  0  0  0  0
   89.2640   49.3220   43.7120 C   0  0  0  0  0  3  0  0  0  0  0  0
   88.1240   50.1310   43.6690 C   0  0  0  0  0  3  0  0  0  0  0  0
   85.3140   57.3800   45.0980 O   0  0  0  0  0  0  0  0  0  0  0  0
   84.8210   58.1670   44.9720 H   0  0  0  0  0  0  0  0  0  0  0  0
   83.6900   55.8360   40.8590 O   0  0  0  0  0  0  0  0  0  0  0  0
   84.1040   55.9920   40.0330 H   0  0  0  0  0  0  0  0  0  0  0  0
   86.9980   55.0840   45.4830 C   0  0  0  0  0  2  0  0  0  0  0  0
   86.2390   54.4310   46.6170 C   0  0  0  0  0  0  0  0  0  0  0  0
   85.4110   55.2120   47.4440 C   0  0  0  0  0  3  0  0  0  0  0  0
   84.6830   54.6210   48.4800 C   0  0  0  0  0  3  0  0  0  0  0  0
   84.7740   53.2470   48.7040 C   0  0  0  0  0  3  0  0  0  0  0  0
   85.5980   52.4600   47.8960 C   0  0  0  0  0  3  0  0  0  0  0  0
   86.3350   53.0440   46.8550 C   0  0  0  0  0  0  0  0  0  0  0  0
   87.1640   52.2480   46.0660 O   0  0  0  0  0  0  0  0  0  0  0  0
   87.1390   51.3160   46.1530 H   0  0  0  0  0  0  0  0  0  0  0  0
  1  6  1  0  0  0  0
  1 18  1  0  0  0  0
  2  1  2  0  0  0  0
  3  4  2  0  0  0  0
  3  2  1  0  0  0  0
  4  5  1  0  0  0  0
  5  7  1  0  0  0  0
  5  6  2  0  0  0  0
  6 22  1  0  0  0  0
  8 12  1  6  0  0  0
  8  7  1  0  0  0  0
  9 10  1  0  0  0  0
  9  8  1  0  0  0  0
 10  4  1  0  0  0  0
 11 10  2  0  0  0  0
 12 17  1  0  0  0  0
 13 14  1  0  0  0  0
 13 12  2  0  0  0  0
 14 15  2  0  0  0  0
 15 16  1  0  0  0  0
 17 16  2  0  0  0  0
 19 18  1  0  0  0  0
 20  3  1  0  0  0  0
 21 20  1  0  0  0  0
 22 23  1  0  0  0  0
 23 28  2  0  0  0  0
 23 24  1  0  0  0  0
 24 25  2  0  0  0  0
 25 26  1  0  0  0  0
 27 26  2  0  0  0  0
 28 27  1  0  0  0  0
 29 30  1  0  0  0  0
 29 28  1  0  0  0  0
M  END
>  <MODEL>
8

>  <REMARK>
 VINA RESULT:    -8.943      1.594      5.457
 INTER + INTRA:         -12.286
 INTER:                 -11.137
 INTRA:                  -1.149
 UNBOUND:                -0.990
  Name = 
  6 active torsions:
  status: ('A' for Active; 'I' for Inactive)
    1  A    between atoms: O_1  and  C_2
    2  A    between atoms: C_4  and  O_5
    3  A    between atoms: C_8  and  C_9
    4  A    between atoms: C_9  and  C_10
    5  A    between atoms: C_15  and  O_16
    6  A    between atoms: C_18  and  C_22
                            x       y       z     vdW  Elec       q    Type
                         _______ _______ _______ _____ _____    ______ ____

>  <TORSDO>
F 6

$$$$
=
 OpenBabel09092515023D

 30 33  0  0  1  0  0  0  0  0999 V2000
   80.7180   50.5220   42.8440 C   0  0  0  0  0  0  0  0  0  0  0  0
   79.6630   49.8180   43.4340 C   0  0  0  0  0  3  0  0  0  0  0  0
   79.8410   48.5170   43.9080 C   0  0  0  0  0  0  0  0  0  0  0  0
   81.1230   47.9180   43.8450 C   0  0  0  0  0  0  0  0  0  0  0  0
   82.1860   48.6260   43.2380 C   0  0  0  0  0  0  0  0  0  0  0  0
   81.9890   49.9280   42.7350 C   0  0  0  0  0  0  0  0  0  0  0  0
   83.4470   48.0200   43.1210 O   0  0  0  0  0  0  0  0  0  0  0  0
   83.8220   46.8540   43.8560 C   0  0  1  0  0  3  0  0  0  0  0  0
   82.6570   45.8590   43.9070 C   0  0  0  0  0  2  0  0  0  0  0  0
   81.4320   46.5730   44.3900 C   0  0  0  0  0  0  0  0  0  0  0  0
   80.7270   46.0450   45.2910 O   0  0  0  0  0  0  0  0  0  0  0  0
   85.0430   46.2240   43.2340 C   0  0  0  0  0  0  0  0  0  0  0  0
   85.0730   44.8460   42.9520 C   0  0  0  0  0  3  0  0  0  0  0  0
   86.2160   44.2630   42.3990 C   0  0  0  0  0  3  0  0  0  0  0  0
   87.3420   45.0460   42.1300 C   0  0  0  0  0  3  0  0  0  0  0  0
   87.3270   46.4130   42.4200 C   0  0  0  0  0  3  0  0  0  0  0  0
   86.1850   47.0010   42.9730 C   0  0  0  0  0  3  0  0  0  0  0  0
   80.4970   51.8080   42.3540 O   0  0  0  0  0  0  0  0  0  0  0  0
   80.5490   52.5440   42.9300 H   0  0  0  0  0  0  0  0  0  0  0  0
   78.7120   47.8520   44.3940 O   0  0  0  0  0  0  0  0  0  0  0  0
   78.1510   47.3870   43.8040 H   0  0  0  0  0  0  0  0  0  0  0  0
   83.1360   50.6970   42.1090 C   0  0  0  0  0  2  0  0  0  0  0  0
   83.6990   51.7180   43.0720 C   0  0  0  0  0  0  0  0  0  0  0  0
   84.0530   51.3260   44.3760 C   0  0  0  0  0  3  0  0  0  0  0  0
   84.6000   52.2500   45.2710 C   0  0  0  0  0  3  0  0  0  0  0  0
   84.7970   53.5740   44.8770 C   0  0  0  0  0  3  0  0  0  0  0  0
   84.4450   53.9790   43.5880 C   0  0  0  0  0  3  0  0  0  0  0  0
   83.8930   53.0600   42.6820 C   0  0  0  0  0  0  0  0  0  0  0  0
   83.5320   53.4830   41.4040 O   0  0  0  0  0  0  0  0  0  0  0  0
   82.9930   54.2410   41.2960 H   0  0  0  0  0  0  0  0  0  0  0  0
  1  2  1  0  0  0  0
  2  3  2  0  0  0  0
  3 20  1  0  0  0  0
  4  3  1  0  0  0  0
  4 10  1  0  0  0  0
  5  4  2  0  0  0  0
  6  1  2  0  0  0  0
  6  5  1  0  0  0  0
  7  5  1  0  0  0  0
  7  8  1  0  0  0  0
  8 12  1  6  0  0  0
  8  9  1  0  0  0  0
  9 10  1  0  0  0  0
 10 11  2  0  0  0  0
 13 12  2  0  0  0  0
 14 13  1  0  0  0  0
 15 14  2  0  0  0  0
 15 16  1  0  0  0  0
 16 17  2  0  0  0  0
 17 12  1  0  0  0  0
 18  1  1  0  0  0  0
 18 19  1  0  0  0  0
 21 20  1  0  0  0  0
 22  6  1  0  0  0  0
 22 23  1  0  0  0  0
 23 24  1  0  0  0  0
 24 25  2  0  0  0  0
 26 25  1  0  0  0  0
 27 26  2  0  0  0  0
 28 23  2  0  0  0  0
 28 27  1  0  0  0  0
 29 28  1  0  0  0  0
 30 29  1  0  0  0  0
M  END
>  <MODEL>
9

>  <REMARK>
 VINA RESULT:    -8.931      5.673      7.203
 INTER + INTRA:         -12.270
 INTER:                 -11.280
 INTRA:                  -0.990
 UNBOUND:                -0.990
  Name = 
  6 active torsions:
  status: ('A' for Active; 'I' for Inactive)
    1  A    between atoms: O_1  and  C_2
    2  A    between atoms: C_4  and  O_5
    3  A    between atoms: C_8  and  C_9
    4  A    between atoms: C_9  and  C_10
    5  A    between atoms: C_15  and  O_16
    6  A    between atoms: C_18  and  C_22
                            x       y       z     vdW  Elec       q    Type
                         _______ _______ _______ _____ _____    ______ ____

>  <TORSDO>
F 6

$$$$
