MODEL 1
REMARK VINA RESULT:    -7.504      0.000      0.000
REMARK INTER + INTRA:         -11.931
REMARK INTER:                 -11.021
REMARK INTRA:                  -0.911
REMARK UNBOUND:                -0.917
REMARK  Name = 
REMARK  11 active torsions:
REMARK  status: ('A' for Active; 'I' for Inactive)
REMARK    1  A    between atoms: C_1  and  O_2
REMARK    2  A    between atoms: O_2  and  C_3
REMARK    3  A    between atoms: C_6  and  O_21
REMARK    4  A    between atoms: C_7  and  O_20
REMARK    5  A    between atoms: C_8  and  O_9
REMARK    6  A    between atoms: C_8  and  C_10
REMARK    7  A    between atoms: C_10  and  O_11
REMARK    8  A    between atoms: O_11  and  C_12
REMARK    9  A    between atoms: C_12  and  C_14
REMARK   10  A    between atoms: O_21  and  C_22
REMARK   11  A    between atoms: C_22  and  C_24
REMARK                            x       y       z     vdW  Elec       q    Type
REMARK                         _______ _______ _______ _____ _____    ______ ____
ROOT
ATOM      1  C   UNL     1      85.285  52.819  43.524  0.00  0.00    +0.111 C 
ATOM      2  C   UNL     1      85.183  53.461  44.891  0.00  0.00    -0.053 C 
ATOM      3  C   UNL     1      84.833  54.746  45.068  0.00  0.00    -0.043 C 
ATOM      4  C   UNL     1      84.738  55.747  43.941  0.00  0.00    +0.150 C 
ATOM      5  C   UNL     1      84.658  55.061  42.551  0.00  0.00    +0.130 C 
ATOM      6  C   UNL     1      85.662  53.870  42.440  0.00  0.00    +0.159 C 
ENDROOT
BRANCH   1   8
ATOM      7  C   UNL     1      83.945  50.930  43.783  0.00  0.00    +0.037 C 
ATOM      8  O   UNL     1      84.033  52.222  43.224  0.00  0.00    -0.373 OA
ENDBRANCH   1   8
BRANCH   6   9
ATOM      9  O   UNL     1      86.972  54.310  42.733  0.00  0.00    -0.380 OA
ATOM     10  H   UNL     1      86.931  55.059  43.350  0.00  0.00    +0.000 HD
ENDBRANCH   6   9
BRANCH   5  11
ATOM     11  O   UNL     1      84.799  55.994  41.507  0.00  0.00    -0.385 OA
ATOM     12  H   UNL     1      83.946  56.105  41.056  0.00  0.00    +0.000 HD
ENDBRANCH   5  11
BRANCH   6  13
ATOM     13  C   UNL     1      85.652  53.219  41.023  0.00  0.00    +0.127 C 
BRANCH  13  14
ATOM     14  O   UNL     1      86.476  52.054  40.954  0.00  0.00    -0.458 OA
BRANCH  14  15
ATOM     15  C   UNL     1      87.877  52.072  40.973  0.00  0.00    +0.339 C 
ATOM     16  O   UNL     1      88.510  52.990  40.382  0.00  0.00    -0.245 OA
BRANCH  15  17
ATOM     17  C   UNL     1      88.612  51.012  41.696  0.00  0.00    +0.059 A 
ATOM     18  C   UNL     1      89.697  50.350  41.092  0.00  0.00    -0.048 A 
ATOM     19  C   UNL     1      90.384  49.344  41.779  0.00  0.00    -0.061 A 
ATOM     20  C   UNL     1      89.995  48.988  43.073  0.00  0.00    -0.062 A 
ATOM     21  C   UNL     1      88.919  49.639  43.682  0.00  0.00    -0.061 A 
ATOM     22  C   UNL     1      88.230  50.646  42.999  0.00  0.00    -0.048 A 
ENDBRANCH  15  17
ENDBRANCH  14  15
ENDBRANCH  13  14
ENDBRANCH   6  13
BRANCH   4  23
ATOM     23  O   UNL     1      85.872  56.614  44.029  0.00  0.00    -0.455 OA
BRANCH  23  24
ATOM     24  C   UNL     1      85.789  57.987  44.288  0.00  0.00    +0.305 C 
ATOM     25  O   UNL     1      86.275  58.829  43.484  0.00  0.00    -0.251 OA
ATOM     26  C   UNL     1      85.075  58.459  45.508  0.00  0.00    +0.033 C 
ENDBRANCH  23  24
ENDBRANCH   4  23
TORSDOF 9
ENDMDL
MODEL 2
REMARK VINA RESULT:    -7.432      3.464      5.514
REMARK INTER + INTRA:         -11.826
REMARK INTER:                 -10.516
REMARK INTRA:                  -1.309
REMARK UNBOUND:                -0.917
REMARK  Name = 
REMARK  11 active torsions:
REMARK  status: ('A' for Active; 'I' for Inactive)
REMARK    1  A    between atoms: C_1  and  O_2
REMARK    2  A    between atoms: O_2  and  C_3
REMARK    3  A    between atoms: C_6  and  O_21
REMARK    4  A    between atoms: C_7  and  O_20
REMARK    5  A    between atoms: C_8  and  O_9
REMARK    6  A    between atoms: C_8  and  C_10
REMARK    7  A    between atoms: C_10  and  O_11
REMARK    8  A    between atoms: O_11  and  C_12
REMARK    9  A    between atoms: C_12  and  C_14
REMARK   10  A    between atoms: O_21  and  C_22
REMARK   11  A    between atoms: C_22  and  C_24
REMARK                            x       y       z     vdW  Elec       q    Type
REMARK                         _______ _______ _______ _____ _____    ______ ____
ROOT
ATOM      1  C   UNL     1      86.372  51.497  43.832  0.00  0.00    +0.111 C 
ATOM      2  C   UNL     1      86.663  52.954  43.543  0.00  0.00    -0.053 C 
ATOM      3  C   UNL     1      87.106  53.385  42.349  0.00  0.00    -0.043 C 
ATOM      4  C   UNL     1      87.588  52.462  41.256  0.00  0.00    +0.150 C 
ATOM      5  C   UNL     1      87.123  50.998  41.475  0.00  0.00    +0.130 C 
ATOM      6  C   UNL     1      87.271  50.566  42.968  0.00  0.00    +0.159 C 
ENDROOT
BRANCH   1   8
ATOM      7  C   UNL     1      84.176  52.032  44.401  0.00  0.00    +0.037 C 
ATOM      8  O   UNL     1      85.000  51.260  43.556  0.00  0.00    -0.373 OA
ENDBRANCH   1   8
BRANCH   6   9
ATOM      9  O   UNL     1      88.601  50.763  43.401  0.00  0.00    -0.380 OA
ATOM     10  H   UNL     1      88.601  51.284  44.220  0.00  0.00    +0.000 HD
ENDBRANCH   6   9
BRANCH   5  11
ATOM     11  O   UNL     1      87.761  50.116  40.583  0.00  0.00    -0.385 OA
ATOM     12  H   UNL     1      87.339  49.243  40.635  0.00  0.00    +0.000 HD
ENDBRANCH   5  11
BRANCH   6  13
ATOM     13  C   UNL     1      86.882  49.073  43.192  0.00  0.00    +0.127 C 
BRANCH  13  14
ATOM     14  O   UNL     1      87.994  48.190  43.023  0.00  0.00    -0.458 OA
BRANCH  14  15
ATOM     15  C   UNL     1      88.000  47.081  42.167  0.00  0.00    +0.339 C 
ATOM     16  O   UNL     1      88.268  47.223  40.942  0.00  0.00    -0.245 OA
BRANCH  15  17
ATOM     17  C   UNL     1      87.697  45.739  42.708  0.00  0.00    +0.059 A 
ATOM     18  C   UNL     1      88.655  44.709  42.659  0.00  0.00    -0.048 A 
ATOM     19  C   UNL     1      88.358  43.441  43.167  0.00  0.00    -0.061 A 
ATOM     20  C   UNL     1      87.104  43.186  43.728  0.00  0.00    -0.062 A 
ATOM     21  C   UNL     1      86.145  44.201  43.783  0.00  0.00    -0.061 A 
ATOM     22  C   UNL     1      86.437  45.471  43.276  0.00  0.00    -0.048 A 
ENDBRANCH  15  17
ENDBRANCH  14  15
ENDBRANCH  13  14
ENDBRANCH   6  13
BRANCH   4  23
ATOM     23  O   UNL     1      89.015  52.552  41.205  0.00  0.00    -0.455 OA
BRANCH  23  24
ATOM     24  C   UNL     1      89.748  52.683  40.020  0.00  0.00    +0.305 C 
ATOM     25  O   UNL     1      89.582  51.878  39.063  0.00  0.00    -0.251 OA
ATOM     26  C   UNL     1      90.704  53.817  39.872  0.00  0.00    +0.033 C 
ENDBRANCH  23  24
ENDBRANCH   4  23
TORSDOF 9
ENDMDL
MODEL 3
REMARK VINA RESULT:    -7.347      1.812      3.255
REMARK INTER + INTRA:         -11.701
REMARK INTER:                 -10.673
REMARK INTRA:                  -1.028
REMARK UNBOUND:                -0.917
REMARK  Name = 
REMARK  11 active torsions:
REMARK  status: ('A' for Active; 'I' for Inactive)
REMARK    1  A    between atoms: C_1  and  O_2
REMARK    2  A    between atoms: O_2  and  C_3
REMARK    3  A    between atoms: C_6  and  O_21
REMARK    4  A    between atoms: C_7  and  O_20
REMARK    5  A    between atoms: C_8  and  O_9
REMARK    6  A    between atoms: C_8  and  C_10
REMARK    7  A    between atoms: C_10  and  O_11
REMARK    8  A    between atoms: O_11  and  C_12
REMARK    9  A    between atoms: C_12  and  C_14
REMARK   10  A    between atoms: O_21  and  C_22
REMARK   11  A    between atoms: C_22  and  C_24
REMARK                            x       y       z     vdW  Elec       q    Type
REMARK                         _______ _______ _______ _____ _____    ______ ____
ROOT
ATOM      1  C   UNL     1      85.672  54.568  44.510  0.00  0.00    +0.111 C 
ATOM      2  C   UNL     1      85.012  55.888  44.175  0.00  0.00    -0.053 C 
ATOM      3  C   UNL     1      84.212  56.052  43.107  0.00  0.00    -0.043 C 
ATOM      4  C   UNL     1      84.073  55.030  42.004  0.00  0.00    +0.150 C 
ATOM      5  C   UNL     1      84.590  53.630  42.432  0.00  0.00    +0.130 C 
ATOM      6  C   UNL     1      85.932  53.731  43.224  0.00  0.00    +0.159 C 
ENDROOT
BRANCH   1   8
ATOM      7  C   UNL     1      84.924  54.374  46.708  0.00  0.00    +0.037 C 
ATOM      8  O   UNL     1      84.818  53.863  45.398  0.00  0.00    -0.373 OA
ENDBRANCH   1   8
BRANCH   6   9
ATOM      9  O   UNL     1      86.892  54.434  42.464  0.00  0.00    -0.380 OA
ATOM     10  H   UNL     1      87.620  53.838  42.230  0.00  0.00    +0.000 HD
ENDBRANCH   6   9
BRANCH   5  11
ATOM     11  O   UNL     1      84.665  52.752  41.335  0.00  0.00    -0.385 OA
ATOM     12  H   UNL     1      83.967  52.082  41.409  0.00  0.00    +0.000 HD
ENDBRANCH   5  11
BRANCH   6  13
ATOM     13  C   UNL     1      86.506  52.329  43.593  0.00  0.00    +0.127 C 
BRANCH  13  14
ATOM     14  O   UNL     1      87.770  52.080  42.975  0.00  0.00    -0.458 OA
BRANCH  14  15
ATOM     15  C   UNL     1      87.936  51.419  41.751  0.00  0.00    +0.339 C 
ATOM     16  O   UNL     1      87.496  51.931  40.685  0.00  0.00    -0.245 OA
BRANCH  15  17
ATOM     17  C   UNL     1      88.635  50.116  41.713  0.00  0.00    +0.059 A 
ATOM     18  C   UNL     1      87.910  48.910  41.691  0.00  0.00    -0.048 A 
ATOM     19  C   UNL     1      88.579  47.683  41.662  0.00  0.00    -0.061 A 
ATOM     20  C   UNL     1      89.975  47.645  41.655  0.00  0.00    -0.062 A 
ATOM     21  C   UNL     1      90.706  48.836  41.676  0.00  0.00    -0.061 A 
ATOM     22  C   UNL     1      90.042  50.066  41.705  0.00  0.00    -0.048 A 
ENDBRANCH  15  17
ENDBRANCH  14  15
ENDBRANCH  13  14
ENDBRANCH   6  13
BRANCH   4  23
ATOM     23  O   UNL     1      84.782  55.519  40.862  0.00  0.00    -0.455 OA
BRANCH  23  24
ATOM     24  C   UNL     1      84.591  55.043  39.560  0.00  0.00    +0.305 C 
ATOM     25  O   UNL     1      85.372  54.186  39.062  0.00  0.00    -0.251 OA
ATOM     26  C   UNL     1      83.421  55.520  38.770  0.00  0.00    +0.033 C 
ENDBRANCH  23  24
ENDBRANCH   4  23
TORSDOF 9
ENDMDL
MODEL 4
REMARK VINA RESULT:    -7.319      1.847      2.798
REMARK INTER + INTRA:         -11.659
REMARK INTER:                 -10.600
REMARK INTRA:                  -1.059
REMARK UNBOUND:                -0.917
REMARK  Name = 
REMARK  11 active torsions:
REMARK  status: ('A' for Active; 'I' for Inactive)
REMARK    1  A    between atoms: C_1  and  O_2
REMARK    2  A    between atoms: O_2  and  C_3
REMARK    3  A    between atoms: C_6  and  O_21
REMARK    4  A    between atoms: C_7  and  O_20
REMARK    5  A    between atoms: C_8  and  O_9
REMARK    6  A    between atoms: C_8  and  C_10
REMARK    7  A    between atoms: C_10  and  O_11
REMARK    8  A    between atoms: O_11  and  C_12
REMARK    9  A    between atoms: C_12  and  C_14
REMARK   10  A    between atoms: O_21  and  C_22
REMARK   11  A    between atoms: C_22  and  C_24
REMARK                            x       y       z     vdW  Elec       q    Type
REMARK                         _______ _______ _______ _____ _____    ______ ____
ROOT
ATOM      1  C   UNL     1      84.328  53.897  41.055  0.00  0.00    +0.111 C 
ATOM      2  C   UNL     1      83.726  55.197  41.544  0.00  0.00    -0.053 C 
ATOM      3  C   UNL     1      84.268  55.922  42.538  0.00  0.00    -0.043 C 
ATOM      4  C   UNL     1      85.378  55.417  43.429  0.00  0.00    +0.150 C 
ATOM      5  C   UNL     1      86.107  54.189  42.821  0.00  0.00    +0.130 C 
ATOM      6  C   UNL     1      85.098  53.173  42.197  0.00  0.00    +0.159 C 
ENDROOT
BRANCH   1   8
ATOM      7  C   UNL     1      84.555  54.994  39.012  0.00  0.00    +0.037 C 
ATOM      8  O   UNL     1      85.202  54.196  39.977  0.00  0.00    -0.373 OA
ENDBRANCH   1   8
BRANCH   6   9
ATOM      9  O   UNL     1      84.138  52.790  43.160  0.00  0.00    -0.380 OA
ATOM     10  H   UNL     1      84.372  51.921  43.523  0.00  0.00    +0.000 HD
ENDBRANCH   6   9
BRANCH   5  11
ATOM     11  O   UNL     1      86.978  53.594  43.752  0.00  0.00    -0.385 OA
ATOM     12  H   UNL     1      86.472  53.299  44.526  0.00  0.00    +0.000 HD
ENDBRANCH   5  11
BRANCH   6  13
ATOM     13  C   UNL     1      85.806  51.896  41.652  0.00  0.00    +0.127 C 
BRANCH  13  14
ATOM     14  O   UNL     1      87.229  52.033  41.625  0.00  0.00    -0.458 OA
BRANCH  14  15
ATOM     15  C   UNL     1      88.078  51.300  40.787  0.00  0.00    +0.339 C 
ATOM     16  O   UNL     1      88.262  51.661  39.592  0.00  0.00    -0.245 OA
BRANCH  15  17
ATOM     17  C   UNL     1      88.765  50.100  41.312  0.00  0.00    +0.059 A 
ATOM     18  C   UNL     1      88.102  48.860  41.371  0.00  0.00    -0.048 A 
ATOM     19  C   UNL     1      88.756  47.731  41.875  0.00  0.00    -0.061 A 
ATOM     20  C   UNL     1      90.075  47.828  42.325  0.00  0.00    -0.062 A 
ATOM     21  C   UNL     1      90.743  49.053  42.270  0.00  0.00    -0.061 A 
ATOM     22  C   UNL     1      90.094  50.185  41.767  0.00  0.00    -0.048 A 
ENDBRANCH  15  17
ENDBRANCH  14  15
ENDBRANCH  13  14
ENDBRANCH   6  13
BRANCH   4  23
ATOM     23  O   UNL     1      84.809  55.105  44.703  0.00  0.00    -0.455 OA
BRANCH  23  24
ATOM     24  C   UNL     1      85.329  55.553  45.923  0.00  0.00    +0.305 C 
ATOM     25  O   UNL     1      86.559  55.441  46.183  0.00  0.00    -0.251 OA
ATOM     26  C   UNL     1      84.425  56.212  46.907  0.00  0.00    +0.033 C 
ENDBRANCH  23  24
ENDBRANCH   4  23
TORSDOF 9
ENDMDL
MODEL 5
REMARK VINA RESULT:    -7.297      4.642      8.025
REMARK INTER + INTRA:         -11.628
REMARK INTER:                 -10.696
REMARK INTRA:                  -0.931
REMARK UNBOUND:                -0.917
REMARK  Name = 
REMARK  11 active torsions:
REMARK  status: ('A' for Active; 'I' for Inactive)
REMARK    1  A    between atoms: C_1  and  O_2
REMARK    2  A    between atoms: O_2  and  C_3
REMARK    3  A    between atoms: C_6  and  O_21
REMARK    4  A    between atoms: C_7  and  O_20
REMARK    5  A    between atoms: C_8  and  O_9
REMARK    6  A    between atoms: C_8  and  C_10
REMARK    7  A    between atoms: C_10  and  O_11
REMARK    8  A    between atoms: O_11  and  C_12
REMARK    9  A    between atoms: C_12  and  C_14
REMARK   10  A    between atoms: O_21  and  C_22
REMARK   11  A    between atoms: C_22  and  C_24
REMARK                            x       y       z     vdW  Elec       q    Type
REMARK                         _______ _______ _______ _____ _____    ______ ____
ROOT
ATOM      1  C   UNL     1      86.543  47.046  42.961  0.00  0.00    +0.111 C 
ATOM      2  C   UNL     1      85.635  46.008  42.338  0.00  0.00    -0.053 C 
ATOM      3  C   UNL     1      84.300  46.154  42.271  0.00  0.00    -0.043 C 
ATOM      4  C   UNL     1      83.541  47.231  43.009  0.00  0.00    +0.150 C 
ATOM      5  C   UNL     1      84.467  48.383  43.483  0.00  0.00    +0.130 C 
ATOM      6  C   UNL     1      85.803  47.837  44.079  0.00  0.00    +0.159 C 
ENDROOT
BRANCH   1   8
ATOM      7  C   UNL     1      88.310  47.652  41.568  0.00  0.00    +0.037 C 
ATOM      8  O   UNL     1      86.976  47.925  41.933  0.00  0.00    -0.373 OA
ENDBRANCH   1   8
BRANCH   6   9
ATOM      9  O   UNL     1      85.532  46.921  45.119  0.00  0.00    -0.380 OA
ATOM     10  H   UNL     1      84.980  46.199  44.778  0.00  0.00    +0.000 HD
ENDBRANCH   6   9
BRANCH   5  11
ATOM     11  O   UNL     1      83.795  49.258  44.356  0.00  0.00    -0.385 OA
ATOM     12  H   UNL     1      82.946  48.866  44.617  0.00  0.00    +0.000 HD
ENDBRANCH   5  11
BRANCH   6  13
ATOM     13  C   UNL     1      86.712  48.977  44.632  0.00  0.00    +0.127 C 
BRANCH  13  14
ATOM     14  O   UNL     1      86.379  49.333  45.976  0.00  0.00    -0.458 OA
BRANCH  14  15
ATOM     15  C   UNL     1      87.143  50.189  46.779  0.00  0.00    +0.339 C 
ATOM     16  O   UNL     1      88.260  49.813  47.229  0.00  0.00    -0.245 OA
BRANCH  15  17
ATOM     17  C   UNL     1      86.634  51.542  47.095  0.00  0.00    +0.059 A 
ATOM     18  C   UNL     1      86.732  52.585  46.156  0.00  0.00    -0.048 A 
ATOM     19  C   UNL     1      86.255  53.863  46.464  0.00  0.00    -0.061 A 
ATOM     20  C   UNL     1      85.678  54.113  47.712  0.00  0.00    -0.062 A 
ATOM     21  C   UNL     1      85.575  53.085  48.652  0.00  0.00    -0.061 A 
ATOM     22  C   UNL     1      86.050  51.805  48.348  0.00  0.00    -0.048 A 
ENDBRANCH  15  17
ENDBRANCH  14  15
ENDBRANCH  13  14
ENDBRANCH   6  13
BRANCH   4  23
ATOM     23  O   UNL     1      82.870  46.616  44.112  0.00  0.00    -0.455 OA
BRANCH  23  24
ATOM     24  C   UNL     1      81.500  46.749  44.367  0.00  0.00    +0.305 C 
ATOM     25  O   UNL     1      80.943  46.081  45.281  0.00  0.00    -0.251 OA
ATOM     26  C   UNL     1      80.700  47.727  43.578  0.00  0.00    +0.033 C 
ENDBRANCH  23  24
ENDBRANCH   4  23
TORSDOF 9
ENDMDL
MODEL 6
REMARK VINA RESULT:    -7.056      2.174      6.242
REMARK INTER + INTRA:         -11.273
REMARK INTER:                  -9.991
REMARK INTRA:                  -1.282
REMARK UNBOUND:                -0.917
REMARK  Name = 
REMARK  11 active torsions:
REMARK  status: ('A' for Active; 'I' for Inactive)
REMARK    1  A    between atoms: C_1  and  O_2
REMARK    2  A    between atoms: O_2  and  C_3
REMARK    3  A    between atoms: C_6  and  O_21
REMARK    4  A    between atoms: C_7  and  O_20
REMARK    5  A    between atoms: C_8  and  O_9
REMARK    6  A    between atoms: C_8  and  C_10
REMARK    7  A    between atoms: C_10  and  O_11
REMARK    8  A    between atoms: O_11  and  C_12
REMARK    9  A    between atoms: C_12  and  C_14
REMARK   10  A    between atoms: O_21  and  C_22
REMARK   11  A    between atoms: C_22  and  C_24
REMARK                            x       y       z     vdW  Elec       q    Type
REMARK                         _______ _______ _______ _____ _____    ______ ____
ROOT
ATOM      1  C   UNL     1      84.999  54.470  41.033  0.00  0.00    +0.111 C 
ATOM      2  C   UNL     1      85.817  53.260  40.638  0.00  0.00    -0.053 C 
ATOM      3  C   UNL     1      86.027  52.221  41.465  0.00  0.00    -0.043 C 
ATOM      4  C   UNL     1      85.684  52.244  42.936  0.00  0.00    +0.150 C 
ATOM      5  C   UNL     1      84.695  53.386  43.291  0.00  0.00    +0.130 C 
ATOM      6  C   UNL     1      85.072  54.718  42.567  0.00  0.00    +0.159 C 
ENDROOT
BRANCH   1   8
ATOM      7  C   UNL     1      83.321  55.057  39.526  0.00  0.00    +0.037 C 
ATOM      8  O   UNL     1      83.657  54.244  40.628  0.00  0.00    -0.373 OA
ENDBRANCH   1   8
BRANCH   6   9
ATOM      9  O   UNL     1      86.407  55.070  42.863  0.00  0.00    -0.380 OA
ATOM     10  H   UNL     1      87.007  54.402  42.495  0.00  0.00    +0.000 HD
ENDBRANCH   6   9
BRANCH   5  11
ATOM     11  O   UNL     1      84.563  53.538  44.684  0.00  0.00    -0.385 OA
ATOM     12  H   UNL     1      83.625  53.484  44.928  0.00  0.00    +0.000 HD
ENDBRANCH   5  11
BRANCH   6  13
ATOM     13  C   UNL     1      84.136  55.896  42.974  0.00  0.00    +0.127 C 
BRANCH  13  14
ATOM     14  O   UNL     1      84.866  57.065  43.354  0.00  0.00    -0.458 OA
BRANCH  14  15
ATOM     15  C   UNL     1      84.869  57.612  44.643  0.00  0.00    +0.339 C 
ATOM     16  O   UNL     1      84.813  58.862  44.805  0.00  0.00    -0.245 OA
BRANCH  15  17
ATOM     17  C   UNL     1      84.933  56.715  45.817  0.00  0.00    +0.059 A 
ATOM     18  C   UNL     1      86.155  56.145  46.222  0.00  0.00    -0.048 A 
ATOM     19  C   UNL     1      86.206  55.293  47.329  0.00  0.00    -0.061 A 
ATOM     20  C   UNL     1      85.042  55.000  48.043  0.00  0.00    -0.062 A 
ATOM     21  C   UNL     1      83.823  55.560  47.651  0.00  0.00    -0.061 A 
ATOM     22  C   UNL     1      83.767  56.413  46.544  0.00  0.00    -0.048 A 
ENDBRANCH  15  17
ENDBRANCH  14  15
ENDBRANCH  13  14
ENDBRANCH   6  13
BRANCH   4  23
ATOM     23  O   UNL     1      86.907  52.369  43.668  0.00  0.00    -0.455 OA
BRANCH  23  24
ATOM     24  C   UNL     1      87.214  51.622  44.811  0.00  0.00    +0.305 C 
ATOM     25  O   UNL     1      86.918  52.046  45.961  0.00  0.00    -0.251 OA
ATOM     26  C   UNL     1      87.857  50.286  44.661  0.00  0.00    +0.033 C 
ENDBRANCH  23  24
ENDBRANCH   4  23
TORSDOF 9
ENDMDL
MODEL 7
REMARK VINA RESULT:    -7.032      2.499      6.952
REMARK INTER + INTRA:         -11.238
REMARK INTER:                 -10.158
REMARK INTRA:                  -1.080
REMARK UNBOUND:                -0.917
REMARK  Name = 
REMARK  11 active torsions:
REMARK  status: ('A' for Active; 'I' for Inactive)
REMARK    1  A    between atoms: C_1  and  O_2
REMARK    2  A    between atoms: O_2  and  C_3
REMARK    3  A    between atoms: C_6  and  O_21
REMARK    4  A    between atoms: C_7  and  O_20
REMARK    5  A    between atoms: C_8  and  O_9
REMARK    6  A    between atoms: C_8  and  C_10
REMARK    7  A    between atoms: C_10  and  O_11
REMARK    8  A    between atoms: O_11  and  C_12
REMARK    9  A    between atoms: C_12  and  C_14
REMARK   10  A    between atoms: O_21  and  C_22
REMARK   11  A    between atoms: C_22  and  C_24
REMARK                            x       y       z     vdW  Elec       q    Type
REMARK                         _______ _______ _______ _____ _____    ______ ____
ROOT
ATOM      1  C   UNL     1      89.303  52.474  41.686  0.00  0.00    +0.111 C 
ATOM      2  C   UNL     1      89.978  51.163  41.344  0.00  0.00    -0.053 C 
ATOM      3  C   UNL     1      89.291  50.033  41.096  0.00  0.00    -0.043 C 
ATOM      4  C   UNL     1      87.812  49.882  41.361  0.00  0.00    +0.150 C 
ATOM      5  C   UNL     1      87.101  51.251  41.527  0.00  0.00    +0.130 C 
ATOM      6  C   UNL     1      87.943  52.233  42.402  0.00  0.00    +0.159 C 
ENDROOT
BRANCH   1   8
ATOM      7  C   UNL     1      90.342  53.613  39.938  0.00  0.00    +0.037 C 
ATOM      8  O   UNL     1      89.108  53.195  40.478  0.00  0.00    -0.373 OA
ENDBRANCH   1   8
BRANCH   6   9
ATOM      9  O   UNL     1      88.237  51.639  43.650  0.00  0.00    -0.380 OA
ATOM     10  H   UNL     1      87.769  52.117  44.354  0.00  0.00    +0.000 HD
ENDBRANCH   6   9
BRANCH   5  11
ATOM     11  O   UNL     1      85.783  51.094  41.994  0.00  0.00    -0.385 OA
ATOM     12  H   UNL     1      85.328  51.951  41.973  0.00  0.00    +0.000 HD
ENDBRANCH   5  11
BRANCH   6  13
ATOM     13  C   UNL     1      87.208  53.586  42.646  0.00  0.00    +0.127 C 
BRANCH  13  14
ATOM     14  O   UNL     1      86.311  53.525  43.757  0.00  0.00    -0.458 OA
BRANCH  14  15
ATOM     15  C   UNL     1      86.373  54.372  44.871  0.00  0.00    +0.339 C 
ATOM     16  O   UNL     1      86.612  55.603  44.723  0.00  0.00    -0.245 OA
BRANCH  15  17
ATOM     17  C   UNL     1      86.152  53.818  46.224  0.00  0.00    +0.059 A 
ATOM     18  C   UNL     1      86.262  52.435  46.461  0.00  0.00    -0.048 A 
ATOM     19  C   UNL     1      86.044  51.917  47.742  0.00  0.00    -0.061 A 
ATOM     20  C   UNL     1      85.716  52.772  48.797  0.00  0.00    -0.062 A 
ATOM     21  C   UNL     1      85.605  54.147  48.573  0.00  0.00    -0.061 A 
ATOM     22  C   UNL     1      85.821  54.669  47.294  0.00  0.00    -0.048 A 
ENDBRANCH  15  17
ENDBRANCH  14  15
ENDBRANCH  13  14
ENDBRANCH   6  13
BRANCH   4  23
ATOM     23  O   UNL     1      87.658  49.071  42.529  0.00  0.00    -0.455 OA
BRANCH  23  24
ATOM     24  C   UNL     1      87.173  47.758  42.510  0.00  0.00    +0.305 C 
ATOM     25  O   UNL     1      85.989  47.500  42.864  0.00  0.00    -0.251 OA
ATOM     26  C   UNL     1      88.052  46.659  42.022  0.00  0.00    +0.033 C 
ENDBRANCH  23  24
ENDBRANCH   4  23
TORSDOF 9
ENDMDL
MODEL 8
REMARK VINA RESULT:    -7.026      2.597      6.151
REMARK INTER + INTRA:         -11.230
REMARK INTER:                 -10.312
REMARK INTRA:                  -0.917
REMARK UNBOUND:                -0.917
REMARK  Name = 
REMARK  11 active torsions:
REMARK  status: ('A' for Active; 'I' for Inactive)
REMARK    1  A    between atoms: C_1  and  O_2
REMARK    2  A    between atoms: O_2  and  C_3
REMARK    3  A    between atoms: C_6  and  O_21
REMARK    4  A    between atoms: C_7  and  O_20
REMARK    5  A    between atoms: C_8  and  O_9
REMARK    6  A    between atoms: C_8  and  C_10
REMARK    7  A    between atoms: C_10  and  O_11
REMARK    8  A    between atoms: O_11  and  C_12
REMARK    9  A    between atoms: C_12  and  C_14
REMARK   10  A    between atoms: O_21  and  C_22
REMARK   11  A    between atoms: C_22  and  C_24
REMARK                            x       y       z     vdW  Elec       q    Type
REMARK                         _______ _______ _______ _____ _____    ______ ____
ROOT
ATOM      1  C   UNL     1      86.392  51.036  43.645  0.00  0.00    +0.111 C 
ATOM      2  C   UNL     1      87.766  50.659  43.136  0.00  0.00    -0.053 C 
ATOM      3  C   UNL     1      88.584  51.536  42.528  0.00  0.00    -0.043 C 
ATOM      4  C   UNL     1      88.145  52.907  42.073  0.00  0.00    +0.150 C 
ATOM      5  C   UNL     1      86.822  53.355  42.750  0.00  0.00    +0.130 C 
ATOM      6  C   UNL     1      85.781  52.192  42.802  0.00  0.00    +0.159 C 
ENDROOT
BRANCH   1   8
ATOM      7  C   UNL     1      86.873  50.324  45.812  0.00  0.00    +0.037 C 
ATOM      8  O   UNL     1      86.519  51.425  45.005  0.00  0.00    -0.373 OA
ENDBRANCH   1   8
BRANCH   6   9
ATOM      9  O   UNL     1      85.560  51.681  41.504  0.00  0.00    -0.380 OA
ATOM     10  H   UNL     1      84.620  51.462  41.398  0.00  0.00    +0.000 HD
ENDBRANCH   6   9
BRANCH   5  11
ATOM     11  O   UNL     1      86.309  54.523  42.155  0.00  0.00    -0.385 OA
ATOM     12  H   UNL     1      85.461  54.322  41.726  0.00  0.00    +0.000 HD
ENDBRANCH   5  11
BRANCH   6  13
ATOM     13  C   UNL     1      84.418  52.646  43.407  0.00  0.00    +0.127 C 
BRANCH  13  14
ATOM     14  O   UNL     1      83.557  51.543  43.697  0.00  0.00    -0.458 OA
BRANCH  14  15
ATOM     15  C   UNL     1      82.663  50.975  42.780  0.00  0.00    +0.339 C 
ATOM     16  O   UNL     1      82.485  51.508  41.650  0.00  0.00    -0.245 OA
BRANCH  15  17
ATOM     17  C   UNL     1      81.932  49.741  43.141  0.00  0.00    +0.059 A 
ATOM     18  C   UNL     1      80.528  49.739  43.237  0.00  0.00    -0.048 A 
ATOM     19  C   UNL     1      79.844  48.570  43.586  0.00  0.00    -0.061 A 
ATOM     20  C   UNL     1      80.553  47.393  43.843  0.00  0.00    -0.062 A 
ATOM     21  C   UNL     1      81.947  47.384  43.750  0.00  0.00    -0.061 A 
ATOM     22  C   UNL     1      82.635  48.550  43.402  0.00  0.00    -0.048 A 
ENDBRANCH  15  17
ENDBRANCH  14  15
ENDBRANCH  13  14
ENDBRANCH   6  13
BRANCH   4  23
ATOM     23  O   UNL     1      88.016  52.875  40.649  0.00  0.00    -0.455 OA
BRANCH  23  24
ATOM     24  C   UNL     1      89.077  52.618  39.773  0.00  0.00    +0.305 C 
ATOM     25  O   UNL     1      88.959  51.775  38.842  0.00  0.00    -0.251 OA
ATOM     26  C   UNL     1      90.347  53.385  39.916  0.00  0.00    +0.033 C 
ENDBRANCH  23  24
ENDBRANCH   4  23
TORSDOF 9
ENDMDL
MODEL 9
REMARK VINA RESULT:    -6.951      3.691      8.197
REMARK INTER + INTRA:         -11.119
REMARK INTER:                 -10.312
REMARK INTRA:                  -0.807
REMARK UNBOUND:                -0.917
REMARK  Name = 
REMARK  11 active torsions:
REMARK  status: ('A' for Active; 'I' for Inactive)
REMARK    1  A    between atoms: C_1  and  O_2
REMARK    2  A    between atoms: O_2  and  C_3
REMARK    3  A    between atoms: C_6  and  O_21
REMARK    4  A    between atoms: C_7  and  O_20
REMARK    5  A    between atoms: C_8  and  O_9
REMARK    6  A    between atoms: C_8  and  C_10
REMARK    7  A    between atoms: C_10  and  O_11
REMARK    8  A    between atoms: O_11  and  C_12
REMARK    9  A    between atoms: C_12  and  C_14
REMARK   10  A    between atoms: O_21  and  C_22
REMARK   11  A    between atoms: C_22  and  C_24
REMARK                            x       y       z     vdW  Elec       q    Type
REMARK                         _______ _______ _______ _____ _____    ______ ____
ROOT
ATOM      1  C   UNL     1      87.431  50.283  44.235  0.00  0.00    +0.111 C 
ATOM      2  C   UNL     1      87.996  49.044  43.575  0.00  0.00    -0.053 C 
ATOM      3  C   UNL     1      87.221  48.054  43.099  0.00  0.00    -0.043 C 
ATOM      4  C   UNL     1      85.740  47.948  43.378  0.00  0.00    +0.150 C 
ATOM      5  C   UNL     1      85.140  49.287  43.883  0.00  0.00    +0.130 C 
ATOM      6  C   UNL     1      86.072  49.976  44.928  0.00  0.00    +0.159 C 
ENDROOT
BRANCH   1   8
ATOM      7  C   UNL     1      88.467  51.477  42.523  0.00  0.00    +0.037 C 
ATOM      8  O   UNL     1      87.267  51.278  43.236  0.00  0.00    -0.373 OA
ENDBRANCH   1   8
BRANCH   6   9
ATOM      9  O   UNL     1      86.346  49.089  45.993  0.00  0.00    -0.380 OA
ATOM     10  H   UNL     1      86.562  48.213  45.637  0.00  0.00    +0.000 HD
ENDBRANCH   6   9
BRANCH   5  11
ATOM     11  O   UNL     1      83.823  49.117  44.350  0.00  0.00    -0.385 OA
ATOM     12  H   UNL     1      83.371  48.450  43.809  0.00  0.00    +0.000 HD
ENDBRANCH   5  11
BRANCH   6  13
ATOM     13  C   UNL     1      85.447  51.283  45.506  0.00  0.00    +0.127 C 
BRANCH  13  14
ATOM     14  O   UNL     1      86.207  51.815  46.593  0.00  0.00    -0.458 OA
BRANCH  14  15
ATOM     15  C   UNL     1      85.689  52.663  47.580  0.00  0.00    +0.339 C 
ATOM     16  O   UNL     1      85.530  52.246  48.760  0.00  0.00    -0.245 OA
BRANCH  15  17
ATOM     17  C   UNL     1      85.333  54.056  47.233  0.00  0.00    +0.059 A 
ATOM     18  C   UNL     1      84.040  54.553  47.485  0.00  0.00    -0.048 A 
ATOM     19  C   UNL     1      83.709  55.869  47.148  0.00  0.00    -0.061 A 
ATOM     20  C   UNL     1      84.662  56.701  46.556  0.00  0.00    -0.062 A 
ATOM     21  C   UNL     1      85.948  56.219  46.301  0.00  0.00    -0.061 A 
ATOM     22  C   UNL     1      86.284  54.904  46.636  0.00  0.00    -0.048 A 
ENDBRANCH  15  17
ENDBRANCH  14  15
ENDBRANCH  13  14
ENDBRANCH   6  13
BRANCH   4  23
ATOM     23  O   UNL     1      85.549  46.899  44.331  0.00  0.00    -0.455 OA
BRANCH  23  24
ATOM     24  C   UNL     1      85.444  45.545  43.994  0.00  0.00    +0.305 C 
ATOM     25  O   UNL     1      86.337  44.721  44.334  0.00  0.00    -0.251 OA
ATOM     26  C   UNL     1      84.236  45.064  43.265  0.00  0.00    +0.033 C 
ENDBRANCH  23  24
ENDBRANCH   4  23
TORSDOF 9
ENDMDL
