MODEL 1
REMARK VINA RESULT:    -7.362      0.000      0.000
REMARK INTER + INTRA:         -13.353
REMARK INTER:                 -11.686
REMARK INTRA:                  -1.668
REMARK UNBOUND:                -1.902
REMARK  Name = 
REMARK  13 active torsions:
REMARK  status: ('A' for Active; 'I' for Inactive)
REMARK    1  A    between atoms: C_1  and  O_2
REMARK    2  A    between atoms: O_2  and  C_3
REMARK    3  A    between atoms: C_6  and  O_24
REMARK    4  A    between atoms: C_7  and  O_20
REMARK    5  A    between atoms: C_8  and  O_9
REMARK    6  A    between atoms: C_8  and  C_10
REMARK    7  A    between atoms: C_10  and  O_11
REMARK    8  A    between atoms: O_11  and  C_12
REMARK    9  A    between atoms: C_12  and  C_14
REMARK   10  A    between atoms: O_20  and  C_21
REMARK   11  A    between atoms: C_21  and  C_23
REMARK   12  A    between atoms: O_24  and  C_25
REMARK   13  A    between atoms: C_25  and  C_27
REMARK                            x       y       z     vdW  Elec       q    Type
REMARK                         _______ _______ _______ _____ _____    ______ ____
ROOT
ATOM      1  C   UNL     1      88.641  48.413  42.871  0.00  0.00    +0.112 C 
ATOM      2  C   UNL     1      90.103  48.777  42.783  0.00  0.00    -0.053 C 
ATOM      3  C   UNL     1      90.477  49.855  42.085  0.00  0.00    -0.042 C 
ATOM      4  C   UNL     1      89.461  50.624  41.281  0.00  0.00    +0.161 C 
ATOM      5  C   UNL     1      88.106  50.809  42.040  0.00  0.00    +0.178 C 
ATOM      6  C   UNL     1      87.816  49.709  43.134  0.00  0.00    +0.170 C 
ENDROOT
BRANCH   1   8
ATOM      7  C   UNL     1      88.189  46.413  41.772  0.00  0.00    +0.037 C 
ATOM      8  O   UNL     1      88.229  47.818  41.648  0.00  0.00    -0.373 OA
ENDBRANCH   1   8
BRANCH   6   9
ATOM      9  O   UNL     1      88.142  50.191  44.421  0.00  0.00    -0.379 OA
ATOM     10  H   UNL     1      87.442  50.788  44.729  0.00  0.00    +0.000 HD
ENDBRANCH   6   9
BRANCH   6  11
ATOM     11  C   UNL     1      86.305  49.360  43.150  0.00  0.00    +0.128 C 
BRANCH  11  12
ATOM     12  O   UNL     1      85.661  49.888  44.311  0.00  0.00    -0.458 OA
BRANCH  12  13
ATOM     13  C   UNL     1      84.733  50.936  44.285  0.00  0.00    +0.339 C 
ATOM     14  O   UNL     1      85.015  52.047  44.814  0.00  0.00    -0.245 OA
BRANCH  13  15
ATOM     15  C   UNL     1      83.421  50.735  43.634  0.00  0.00    +0.059 A 
ATOM     16  C   UNL     1      82.933  51.680  42.713  0.00  0.00    -0.048 A 
ATOM     17  C   UNL     1      81.682  51.504  42.115  0.00  0.00    -0.061 A 
ATOM     18  C   UNL     1      80.907  50.386  42.428  0.00  0.00    -0.062 A 
ATOM     19  C   UNL     1      81.382  49.439  43.337  0.00  0.00    -0.061 A 
ATOM     20  C   UNL     1      82.633  49.609  43.939  0.00  0.00    -0.048 A 
ENDBRANCH  13  15
ENDBRANCH  12  13
ENDBRANCH  11  12
ENDBRANCH   6  11
BRANCH   5  21
ATOM     21  O   UNL     1      88.053  52.106  42.652  0.00  0.00    -0.454 OA
BRANCH  21  22
ATOM     22  C   UNL     1      87.188  53.134  42.261  0.00  0.00    +0.304 C 
ATOM     23  O   UNL     1      87.265  54.282  42.775  0.00  0.00    -0.251 OA
ATOM     24  C   UNL     1      86.132  52.849  41.247  0.00  0.00    +0.033 C 
ENDBRANCH  21  22
ENDBRANCH   5  21
BRANCH   4  25
ATOM     25  O   UNL     1      90.020  51.883  40.901  0.00  0.00    -0.453 OA
BRANCH  25  26
ATOM     26  C   UNL     1      89.807  52.473  39.650  0.00  0.00    +0.305 C 
ATOM     27  O   UNL     1      88.979  51.982  38.837  0.00  0.00    -0.251 OA
ATOM     28  C   UNL     1      90.603  53.672  39.261  0.00  0.00    +0.033 C 
ENDBRANCH  25  26
ENDBRANCH   4  25
TORSDOF 10
ENDMDL
MODEL 2
REMARK VINA RESULT:    -7.293      1.975      3.020
REMARK INTER + INTRA:         -13.245
REMARK INTER:                 -11.877
REMARK INTRA:                  -1.368
REMARK UNBOUND:                -1.902
REMARK  Name = 
REMARK  13 active torsions:
REMARK  status: ('A' for Active; 'I' for Inactive)
REMARK    1  A    between atoms: C_1  and  O_2
REMARK    2  A    between atoms: O_2  and  C_3
REMARK    3  A    between atoms: C_6  and  O_24
REMARK    4  A    between atoms: C_7  and  O_20
REMARK    5  A    between atoms: C_8  and  O_9
REMARK    6  A    between atoms: C_8  and  C_10
REMARK    7  A    between atoms: C_10  and  O_11
REMARK    8  A    between atoms: O_11  and  C_12
REMARK    9  A    between atoms: C_12  and  C_14
REMARK   10  A    between atoms: O_20  and  C_21
REMARK   11  A    between atoms: C_21  and  C_23
REMARK   12  A    between atoms: O_24  and  C_25
REMARK   13  A    between atoms: C_25  and  C_27
REMARK                            x       y       z     vdW  Elec       q    Type
REMARK                         _______ _______ _______ _____ _____    ______ ____
ROOT
ATOM      1  C   UNL     1      86.524  51.044  43.892  0.00  0.00    +0.112 C 
ATOM      2  C   UNL     1      87.988  51.324  43.654  0.00  0.00    -0.053 C 
ATOM      3  C   UNL     1      88.376  51.886  42.503  0.00  0.00    -0.042 C 
ATOM      4  C   UNL     1      87.377  52.114  41.399  0.00  0.00    +0.161 C 
ATOM      5  C   UNL     1      86.007  52.653  41.927  0.00  0.00    +0.178 C 
ATOM      6  C   UNL     1      85.695  52.279  43.429  0.00  0.00    +0.170 C 
ENDROOT
BRANCH   1   8
ATOM      7  C   UNL     1      86.229  48.737  43.951  0.00  0.00    +0.037 C 
ATOM      8  O   UNL     1      86.137  49.896  43.150  0.00  0.00    -0.373 OA
ENDBRANCH   1   8
BRANCH   6   9
ATOM      9  O   UNL     1      85.995  53.364  44.283  0.00  0.00    -0.379 OA
ATOM     10  H   UNL     1      85.187  53.872  44.455  0.00  0.00    +0.000 HD
ENDBRANCH   6   9
BRANCH   6  11
ATOM     11  C   UNL     1      84.184  51.974  43.597  0.00  0.00    +0.128 C 
BRANCH  11  12
ATOM     12  O   UNL     1      83.582  51.624  42.349  0.00  0.00    -0.458 OA
BRANCH  12  13
ATOM     13  C   UNL     1      82.210  51.399  42.176  0.00  0.00    +0.339 C 
ATOM     14  O   UNL     1      81.497  52.253  41.581  0.00  0.00    -0.245 OA
BRANCH  13  15
ATOM     15  C   UNL     1      81.603  50.154  42.692  0.00  0.00    +0.059 A 
ATOM     16  C   UNL     1      80.241  50.120  43.039  0.00  0.00    -0.048 A 
ATOM     17  C   UNL     1      79.670  48.951  43.551  0.00  0.00    -0.061 A 
ATOM     18  C   UNL     1      80.450  47.806  43.720  0.00  0.00    -0.062 A 
ATOM     19  C   UNL     1      81.803  47.826  43.375  0.00  0.00    -0.061 A 
ATOM     20  C   UNL     1      82.379  48.992  42.862  0.00  0.00    -0.048 A 
ENDBRANCH  13  15
ENDBRANCH  12  13
ENDBRANCH  11  12
ENDBRANCH   6  11
BRANCH   5  21
ATOM     21  O   UNL     1      85.943  54.078  41.775  0.00  0.00    -0.454 OA
BRANCH  21  22
ATOM     22  C   UNL     1      84.880  54.765  41.177  0.00  0.00    +0.304 C 
ATOM     23  O   UNL     1      84.855  54.972  39.934  0.00  0.00    -0.251 OA
ATOM     24  C   UNL     1      83.783  55.296  42.036  0.00  0.00    +0.033 C 
ENDBRANCH  21  22
ENDBRANCH   5  21
BRANCH   4  25
ATOM     25  O   UNL     1      87.945  52.997  40.430  0.00  0.00    -0.453 OA
BRANCH  25  26
ATOM     26  C   UNL     1      89.074  52.680  39.667  0.00  0.00    +0.305 C 
ATOM     27  O   UNL     1      89.049  51.729  38.839  0.00  0.00    -0.251 OA
ATOM     28  C   UNL     1      90.335  53.448  39.871  0.00  0.00    +0.033 C 
ENDBRANCH  25  26
ENDBRANCH   4  25
TORSDOF 10
ENDMDL
MODEL 3
REMARK VINA RESULT:    -7.288      2.648      6.482
REMARK INTER + INTRA:         -13.238
REMARK INTER:                 -11.629
REMARK INTRA:                  -1.609
REMARK UNBOUND:                -1.902
REMARK  Name = 
REMARK  13 active torsions:
REMARK  status: ('A' for Active; 'I' for Inactive)
REMARK    1  A    between atoms: C_1  and  O_2
REMARK    2  A    between atoms: O_2  and  C_3
REMARK    3  A    between atoms: C_6  and  O_24
REMARK    4  A    between atoms: C_7  and  O_20
REMARK    5  A    between atoms: C_8  and  O_9
REMARK    6  A    between atoms: C_8  and  C_10
REMARK    7  A    between atoms: C_10  and  O_11
REMARK    8  A    between atoms: O_11  and  C_12
REMARK    9  A    between atoms: C_12  and  C_14
REMARK   10  A    between atoms: O_20  and  C_21
REMARK   11  A    between atoms: C_21  and  C_23
REMARK   12  A    between atoms: O_24  and  C_25
REMARK   13  A    between atoms: C_25  and  C_27
REMARK                            x       y       z     vdW  Elec       q    Type
REMARK                         _______ _______ _______ _____ _____    ______ ____
ROOT
ATOM      1  C   UNL     1      86.091  51.226  43.807  0.00  0.00    +0.112 C 
ATOM      2  C   UNL     1      85.080  51.093  44.919  0.00  0.00    -0.053 C 
ATOM      3  C   UNL     1      84.656  52.186  45.564  0.00  0.00    -0.042 C 
ATOM      4  C   UNL     1      85.283  53.525  45.273  0.00  0.00    +0.161 C 
ATOM      5  C   UNL     1      85.531  53.757  43.746  0.00  0.00    +0.178 C 
ATOM      6  C   UNL     1      85.687  52.430  42.903  0.00  0.00    +0.170 C 
ENDROOT
BRANCH   1   8
ATOM      7  C   UNL     1      87.916  50.244  44.861  0.00  0.00    +0.037 C 
ATOM      8  O   UNL     1      87.378  51.450  44.364  0.00  0.00    -0.373 OA
ENDBRANCH   1   8
BRANCH   6   9
ATOM      9  O   UNL     1      84.477  52.112  42.249  0.00  0.00    -0.379 OA
ATOM     10  H   UNL     1      83.844  51.759  42.894  0.00  0.00    +0.000 HD
ENDBRANCH   6   9
BRANCH   6  11
ATOM     11  C   UNL     1      86.761  52.626  41.801  0.00  0.00    +0.128 C 
BRANCH  11  12
ATOM     12  O   UNL     1      86.967  51.424  41.056  0.00  0.00    -0.458 OA
BRANCH  12  13
ATOM     13  C   UNL     1      88.216  50.992  40.593  0.00  0.00    +0.339 C 
ATOM     14  O   UNL     1      88.742  51.535  39.583  0.00  0.00    -0.245 OA
BRANCH  13  15
ATOM     15  C   UNL     1      88.916  49.896  41.295  0.00  0.00    +0.059 A 
ATOM     16  C   UNL     1      90.212  50.092  41.805  0.00  0.00    -0.048 A 
ATOM     17  C   UNL     1      90.886  49.049  42.447  0.00  0.00    -0.061 A 
ATOM     18  C   UNL     1      90.274  47.802  42.589  0.00  0.00    -0.062 A 
ATOM     19  C   UNL     1      88.986  47.595  42.091  0.00  0.00    -0.061 A 
ATOM     20  C   UNL     1      88.307  48.635  41.447  0.00  0.00    -0.048 A 
ENDBRANCH  13  15
ENDBRANCH  12  13
ENDBRANCH  11  12
ENDBRANCH   6  11
BRANCH   5  21
ATOM     21  O   UNL     1      84.472  54.547  43.186  0.00  0.00    -0.454 OA
BRANCH  21  22
ATOM     22  C   UNL     1      84.658  55.760  42.513  0.00  0.00    +0.304 C 
ATOM     23  O   UNL     1      84.817  55.794  41.262  0.00  0.00    -0.251 OA
ATOM     24  C   UNL     1      84.710  57.026  43.298  0.00  0.00    +0.033 C 
ENDBRANCH  21  22
ENDBRANCH   5  21
BRANCH   4  25
ATOM     25  O   UNL     1      84.463  54.556  45.829  0.00  0.00    -0.453 OA
BRANCH  25  26
ATOM     26  C   UNL     1      84.835  55.317  46.943  0.00  0.00    +0.305 C 
ATOM     27  O   UNL     1      84.106  55.356  47.971  0.00  0.00    -0.251 OA
ATOM     28  C   UNL     1      86.088  56.124  46.895  0.00  0.00    +0.033 C 
ENDBRANCH  25  26
ENDBRANCH   4  25
TORSDOF 10
ENDMDL
MODEL 4
REMARK VINA RESULT:    -7.134      2.693      5.025
REMARK INTER + INTRA:         -12.998
REMARK INTER:                 -11.717
REMARK INTRA:                  -1.281
REMARK UNBOUND:                -1.902
REMARK  Name = 
REMARK  13 active torsions:
REMARK  status: ('A' for Active; 'I' for Inactive)
REMARK    1  A    between atoms: C_1  and  O_2
REMARK    2  A    between atoms: O_2  and  C_3
REMARK    3  A    between atoms: C_6  and  O_24
REMARK    4  A    between atoms: C_7  and  O_20
REMARK    5  A    between atoms: C_8  and  O_9
REMARK    6  A    between atoms: C_8  and  C_10
REMARK    7  A    between atoms: C_10  and  O_11
REMARK    8  A    between atoms: O_11  and  C_12
REMARK    9  A    between atoms: C_12  and  C_14
REMARK   10  A    between atoms: O_20  and  C_21
REMARK   11  A    between atoms: C_21  and  C_23
REMARK   12  A    between atoms: O_24  and  C_25
REMARK   13  A    between atoms: C_25  and  C_27
REMARK                            x       y       z     vdW  Elec       q    Type
REMARK                         _______ _______ _______ _____ _____    ______ ____
ROOT
ATOM      1  C   UNL     1      86.137  51.683  43.517  0.00  0.00    +0.112 C 
ATOM      2  C   UNL     1      87.168  51.100  44.452  0.00  0.00    -0.053 C 
ATOM      3  C   UNL     1      88.237  50.471  43.951  0.00  0.00    -0.042 C 
ATOM      4  C   UNL     1      88.344  50.228  42.468  0.00  0.00    +0.161 C 
ATOM      5  C   UNL     1      87.890  51.461  41.620  0.00  0.00    +0.178 C 
ATOM      6  C   UNL     1      86.871  52.418  42.356  0.00  0.00    +0.170 C 
ENDROOT
BRANCH   1   8
ATOM      7  C   UNL     1      84.407  50.194  43.964  0.00  0.00    +0.037 C 
ATOM      8  O   UNL     1      85.331  50.637  42.994  0.00  0.00    -0.373 OA
ENDBRANCH   1   8
BRANCH   6   9
ATOM      9  O   UNL     1      87.543  53.540  42.891  0.00  0.00    -0.379 OA
ATOM     10  H   UNL     1      87.247  54.342  42.434  0.00  0.00    +0.000 HD
ENDBRANCH   6   9
BRANCH   6  11
ATOM     11  C   UNL     1      85.824  52.956  41.346  0.00  0.00    +0.128 C 
BRANCH  11  12
ATOM     12  O   UNL     1      84.813  53.723  42.004  0.00  0.00    -0.458 OA
BRANCH  12  13
ATOM     13  C   UNL     1      84.794  55.122  42.047  0.00  0.00    +0.339 C 
ATOM     14  O   UNL     1      84.723  55.790  40.979  0.00  0.00    -0.245 OA
BRANCH  13  15
ATOM     15  C   UNL     1      84.857  55.814  43.352  0.00  0.00    +0.059 A 
ATOM     16  C   UNL     1      84.858  55.074  44.548  0.00  0.00    -0.048 A 
ATOM     17  C   UNL     1      84.893  55.727  45.784  0.00  0.00    -0.061 A 
ATOM     18  C   UNL     1      84.928  57.122  45.839  0.00  0.00    -0.062 A 
ATOM     19  C   UNL     1      84.932  57.867  44.658  0.00  0.00    -0.061 A 
ATOM     20  C   UNL     1      84.897  57.219  43.419  0.00  0.00    -0.048 A 
ENDBRANCH  13  15
ENDBRANCH  12  13
ENDBRANCH  11  12
ENDBRANCH   6  11
BRANCH   5  21
ATOM     21  O   UNL     1      89.031  52.223  41.201  0.00  0.00    -0.454 OA
BRANCH  21  22
ATOM     22  C   UNL     1      89.391  52.446  39.867  0.00  0.00    +0.304 C 
ATOM     23  O   UNL     1      88.917  51.738  38.938  0.00  0.00    -0.251 OA
ATOM     24  C   UNL     1      90.382  53.513  39.550  0.00  0.00    +0.033 C 
ENDBRANCH  21  22
ENDBRANCH   5  21
BRANCH   4  25
ATOM     25  O   UNL     1      89.684  49.845  42.152  0.00  0.00    -0.453 OA
BRANCH  25  26
ATOM     26  C   UNL     1      90.189  48.559  42.374  0.00  0.00    +0.305 C 
ATOM     27  O   UNL     1      89.746  47.570  41.728  0.00  0.00    -0.251 OA
ATOM     28  C   UNL     1      91.233  48.351  43.418  0.00  0.00    +0.033 C 
ENDBRANCH  25  26
ENDBRANCH   4  25
TORSDOF 10
ENDMDL
MODEL 5
REMARK VINA RESULT:    -7.013      2.760      5.063
REMARK INTER + INTRA:         -12.810
REMARK INTER:                 -11.266
REMARK INTRA:                  -1.544
REMARK UNBOUND:                -1.902
REMARK  Name = 
REMARK  13 active torsions:
REMARK  status: ('A' for Active; 'I' for Inactive)
REMARK    1  A    between atoms: C_1  and  O_2
REMARK    2  A    between atoms: O_2  and  C_3
REMARK    3  A    between atoms: C_6  and  O_24
REMARK    4  A    between atoms: C_7  and  O_20
REMARK    5  A    between atoms: C_8  and  O_9
REMARK    6  A    between atoms: C_8  and  C_10
REMARK    7  A    between atoms: C_10  and  O_11
REMARK    8  A    between atoms: O_11  and  C_12
REMARK    9  A    between atoms: C_12  and  C_14
REMARK   10  A    between atoms: O_20  and  C_21
REMARK   11  A    between atoms: C_21  and  C_23
REMARK   12  A    between atoms: O_24  and  C_25
REMARK   13  A    between atoms: C_25  and  C_27
REMARK                            x       y       z     vdW  Elec       q    Type
REMARK                         _______ _______ _______ _____ _____    ______ ____
ROOT
ATOM      1  C   UNL     1      88.343  52.538  40.910  0.00  0.00    +0.112 C 
ATOM      2  C   UNL     1      88.757  51.236  40.270  0.00  0.00    -0.053 C 
ATOM      3  C   UNL     1      89.148  50.213  41.039  0.00  0.00    -0.042 C 
ATOM      4  C   UNL     1      89.304  50.403  42.525  0.00  0.00    +0.161 C 
ATOM      5  C   UNL     1      88.146  51.248  43.151  0.00  0.00    +0.178 C 
ATOM      6  C   UNL     1      87.433  52.227  42.137  0.00  0.00    +0.170 C 
ENDROOT
BRANCH   1   8
ATOM      7  C   UNL     1      90.321  53.554  40.228  0.00  0.00    +0.037 C 
ATOM      8  O   UNL     1      89.501  53.243  41.334  0.00  0.00    -0.373 OA
ENDBRANCH   1   8
BRANCH   6   9
ATOM      9  O   UNL     1      86.227  51.662  41.667  0.00  0.00    -0.379 OA
ATOM     10  H   UNL     1      85.768  52.303  41.103  0.00  0.00    +0.000 HD
ENDBRANCH   6   9
BRANCH   6  11
ATOM     11  C   UNL     1      87.065  53.554  42.850  0.00  0.00    +0.128 C 
BRANCH  11  12
ATOM     12  O   UNL     1      85.662  53.631  43.114  0.00  0.00    -0.458 OA
BRANCH  12  13
ATOM     13  C   UNL     1      85.075  54.570  43.970  0.00  0.00    +0.339 C 
ATOM     14  O   UNL     1      84.467  55.570  43.496  0.00  0.00    -0.245 OA
BRANCH  13  15
ATOM     15  C   UNL     1      85.170  54.385  45.433  0.00  0.00    +0.059 A 
ATOM     16  C   UNL     1      84.489  53.327  46.061  0.00  0.00    -0.048 A 
ATOM     17  C   UNL     1      84.557  53.165  47.448  0.00  0.00    -0.061 A 
ATOM     18  C   UNL     1      85.306  54.054  48.221  0.00  0.00    -0.062 A 
ATOM     19  C   UNL     1      85.991  55.106  47.609  0.00  0.00    -0.061 A 
ATOM     20  C   UNL     1      85.926  55.274  46.222  0.00  0.00    -0.048 A 
ENDBRANCH  13  15
ENDBRANCH  12  13
ENDBRANCH  11  12
ENDBRANCH   6  11
BRANCH   5  21
ATOM     21  O   UNL     1      87.164  50.385  43.739  0.00  0.00    -0.454 OA
BRANCH  21  22
ATOM     22  C   UNL     1      86.887  50.315  45.109  0.00  0.00    +0.304 C 
ATOM     23  O   UNL     1      86.114  49.435  45.575  0.00  0.00    -0.251 OA
ATOM     24  C   UNL     1      87.486  51.328  46.024  0.00  0.00    +0.033 C 
ENDBRANCH  21  22
ENDBRANCH   5  21
BRANCH   4  25
ATOM     25  O   UNL     1      89.411  49.123  43.152  0.00  0.00    -0.453 OA
BRANCH  25  26
ATOM     26  C   UNL     1      90.566  48.335  43.100  0.00  0.00    +0.305 C 
ATOM     27  O   UNL     1      91.651  48.745  43.593  0.00  0.00    -0.251 OA
ATOM     28  C   UNL     1      90.520  47.012  42.413  0.00  0.00    +0.033 C 
ENDBRANCH  25  26
ENDBRANCH   4  25
TORSDOF 10
ENDMDL
MODEL 6
REMARK VINA RESULT:    -6.983      2.690      6.797
REMARK INTER + INTRA:         -12.763
REMARK INTER:                 -11.180
REMARK INTRA:                  -1.583
REMARK UNBOUND:                -1.902
REMARK  Name = 
REMARK  13 active torsions:
REMARK  status: ('A' for Active; 'I' for Inactive)
REMARK    1  A    between atoms: C_1  and  O_2
REMARK    2  A    between atoms: O_2  and  C_3
REMARK    3  A    between atoms: C_6  and  O_24
REMARK    4  A    between atoms: C_7  and  O_20
REMARK    5  A    between atoms: C_8  and  O_9
REMARK    6  A    between atoms: C_8  and  C_10
REMARK    7  A    between atoms: C_10  and  O_11
REMARK    8  A    between atoms: O_11  and  C_12
REMARK    9  A    between atoms: C_12  and  C_14
REMARK   10  A    between atoms: O_20  and  C_21
REMARK   11  A    between atoms: C_21  and  C_23
REMARK   12  A    between atoms: O_24  and  C_25
REMARK   13  A    between atoms: C_25  and  C_27
REMARK                            x       y       z     vdW  Elec       q    Type
REMARK                         _______ _______ _______ _____ _____    ______ ____
ROOT
ATOM      1  C   UNL     1      85.881  54.736  42.653  0.00  0.00    +0.112 C 
ATOM      2  C   UNL     1      86.458  55.549  43.786  0.00  0.00    -0.053 C 
ATOM      3  C   UNL     1      86.624  54.987  44.989  0.00  0.00    -0.042 C 
ATOM      4  C   UNL     1      86.113  53.593  45.247  0.00  0.00    +0.161 C 
ATOM      5  C   UNL     1      86.393  52.617  44.057  0.00  0.00    +0.178 C 
ATOM      6  C   UNL     1      86.549  53.328  42.656  0.00  0.00    +0.170 C 
ENDROOT
BRANCH   1   8
ATOM      7  C   UNL     1      83.842  55.855  42.675  0.00  0.00    +0.037 C 
ATOM      8  O   UNL     1      84.478  54.606  42.834  0.00  0.00    -0.373 OA
ENDBRANCH   1   8
BRANCH   6   9
ATOM      9  O   UNL     1      87.913  53.480  42.326  0.00  0.00    -0.379 OA
ATOM     10  H   UNL     1      88.064  53.166  41.421  0.00  0.00    +0.000 HD
ENDBRANCH   6   9
BRANCH   6  11
ATOM     11  C   UNL     1      85.908  52.456  41.544  0.00  0.00    +0.128 C 
BRANCH  11  12
ATOM     12  O   UNL     1      86.525  51.168  41.473  0.00  0.00    -0.458 OA
BRANCH  12  13
ATOM     13  C   UNL     1      87.731  50.911  40.811  0.00  0.00    +0.339 C 
ATOM     14  O   UNL     1      88.066  51.603  39.809  0.00  0.00    -0.245 OA
BRANCH  13  15
ATOM     15  C   UNL     1      88.612  49.825  41.290  0.00  0.00    +0.059 A 
ATOM     16  C   UNL     1      89.963  50.084  41.584  0.00  0.00    -0.048 A 
ATOM     17  C   UNL     1      90.804  49.054  42.014  0.00  0.00    -0.061 A 
ATOM     18  C   UNL     1      90.306  47.757  42.157  0.00  0.00    -0.062 A 
ATOM     19  C   UNL     1      88.966  47.488  41.873  0.00  0.00    -0.061 A 
ATOM     20  C   UNL     1      88.120  48.515  41.443  0.00  0.00    -0.048 A 
ENDBRANCH  13  15
ENDBRANCH  12  13
ENDBRANCH  11  12
ENDBRANCH   6  11
BRANCH   5  21
ATOM     21  O   UNL     1      87.567  51.836  44.321  0.00  0.00    -0.454 OA
BRANCH  21  22
ATOM     22  C   UNL     1      87.556  50.486  44.689  0.00  0.00    +0.304 C 
ATOM     23  O   UNL     1      88.626  49.826  44.780  0.00  0.00    -0.251 OA
ATOM     24  C   UNL     1      86.250  49.811  44.935  0.00  0.00    +0.033 C 
ENDBRANCH  21  22
ENDBRANCH   5  21
BRANCH   4  25
ATOM     25  O   UNL     1      86.682  53.105  46.464  0.00  0.00    -0.453 OA
BRANCH  25  26
ATOM     26  C   UNL     1      85.944  52.922  47.639  0.00  0.00    +0.305 C 
ATOM     27  O   UNL     1      85.590  51.769  48.006  0.00  0.00    -0.251 OA
ATOM     28  C   UNL     1      85.536  54.111  48.441  0.00  0.00    +0.033 C 
ENDBRANCH  25  26
ENDBRANCH   4  25
TORSDOF 10
ENDMDL
MODEL 7
REMARK VINA RESULT:    -6.945      2.306      4.751
REMARK INTER + INTRA:         -12.704
REMARK INTER:                 -11.564
REMARK INTRA:                  -1.140
REMARK UNBOUND:                -1.902
REMARK  Name = 
REMARK  13 active torsions:
REMARK  status: ('A' for Active; 'I' for Inactive)
REMARK    1  A    between atoms: C_1  and  O_2
REMARK    2  A    between atoms: O_2  and  C_3
REMARK    3  A    between atoms: C_6  and  O_24
REMARK    4  A    between atoms: C_7  and  O_20
REMARK    5  A    between atoms: C_8  and  O_9
REMARK    6  A    between atoms: C_8  and  C_10
REMARK    7  A    between atoms: C_10  and  O_11
REMARK    8  A    between atoms: O_11  and  C_12
REMARK    9  A    between atoms: C_12  and  C_14
REMARK   10  A    between atoms: O_20  and  C_21
REMARK   11  A    between atoms: C_21  and  C_23
REMARK   12  A    between atoms: O_24  and  C_25
REMARK   13  A    between atoms: C_25  and  C_27
REMARK                            x       y       z     vdW  Elec       q    Type
REMARK                         _______ _______ _______ _____ _____    ______ ____
ROOT
ATOM      1  C   UNL     1      86.182  51.071  43.516  0.00  0.00    +0.112 C 
ATOM      2  C   UNL     1      86.911  49.871  44.070  0.00  0.00    -0.053 C 
ATOM      3  C   UNL     1      87.613  49.083  43.247  0.00  0.00    -0.042 C 
ATOM      4  C   UNL     1      87.565  49.313  41.759  0.00  0.00    +0.161 C 
ATOM      5  C   UNL     1      87.631  50.829  41.379  0.00  0.00    +0.178 C 
ATOM      6  C   UNL     1      87.118  51.806  42.509  0.00  0.00    +0.170 C 
ENDROOT
BRANCH   1   8
ATOM      7  C   UNL     1      84.039  50.211  43.789  0.00  0.00    +0.037 C 
ATOM      8  O   UNL     1      85.002  50.640  42.852  0.00  0.00    -0.373 OA
ENDBRANCH   1   8
BRANCH   6   9
ATOM      9  O   UNL     1      88.206  52.350  43.227  0.00  0.00    -0.379 OA
ATOM     10  H   UNL     1      88.937  51.712  43.238  0.00  0.00    +0.000 HD
ENDBRANCH   6   9
BRANCH   6  11
ATOM     11  C   UNL     1      86.353  52.996  41.874  0.00  0.00    +0.128 C 
BRANCH  11  12
ATOM     12  O   UNL     1      86.729  54.237  42.476  0.00  0.00    -0.458 OA
BRANCH  12  13
ATOM     13  C   UNL     1      85.840  55.085  43.148  0.00  0.00    +0.339 C 
ATOM     14  O   UNL     1      85.183  55.952  42.509  0.00  0.00    -0.245 OA
BRANCH  13  15
ATOM     15  C   UNL     1      85.675  54.958  44.611  0.00  0.00    +0.059 A 
ATOM     16  C   UNL     1      86.379  55.810  45.482  0.00  0.00    -0.048 A 
ATOM     17  C   UNL     1      86.243  55.676  46.866  0.00  0.00    -0.061 A 
ATOM     18  C   UNL     1      85.404  54.694  47.396  0.00  0.00    -0.062 A 
ATOM     19  C   UNL     1      84.696  53.845  46.543  0.00  0.00    -0.061 A 
ATOM     20  C   UNL     1      84.829  53.975  45.156  0.00  0.00    -0.048 A 
ENDBRANCH  13  15
ENDBRANCH  12  13
ENDBRANCH  11  12
ENDBRANCH   6  11
BRANCH   5  21
ATOM     21  O   UNL     1      88.971  51.193  41.018  0.00  0.00    -0.454 OA
BRANCH  21  22
ATOM     22  C   UNL     1      89.306  52.021  39.941  0.00  0.00    +0.304 C 
ATOM     23  O   UNL     1      88.903  51.767  38.774  0.00  0.00    -0.251 OA
ATOM     24  C   UNL     1      90.188  53.199  40.177  0.00  0.00    +0.033 C 
ENDBRANCH  21  22
ENDBRANCH   5  21
BRANCH   4  25
ATOM     25  O   UNL     1      88.620  48.575  41.137  0.00  0.00    -0.453 OA
BRANCH  25  26
ATOM     26  C   UNL     1      89.623  47.915  41.855  0.00  0.00    +0.305 C 
ATOM     27  O   UNL     1      89.490  46.707  42.189  0.00  0.00    -0.251 OA
ATOM     28  C   UNL     1      90.845  48.665  42.265  0.00  0.00    +0.033 C 
ENDBRANCH  25  26
ENDBRANCH   4  25
TORSDOF 10
ENDMDL
MODEL 8
REMARK VINA RESULT:    -6.890      2.733      5.797
REMARK INTER + INTRA:         -12.618
REMARK INTER:                 -10.840
REMARK INTRA:                  -1.778
REMARK UNBOUND:                -1.902
REMARK  Name = 
REMARK  13 active torsions:
REMARK  status: ('A' for Active; 'I' for Inactive)
REMARK    1  A    between atoms: C_1  and  O_2
REMARK    2  A    between atoms: O_2  and  C_3
REMARK    3  A    between atoms: C_6  and  O_24
REMARK    4  A    between atoms: C_7  and  O_20
REMARK    5  A    between atoms: C_8  and  O_9
REMARK    6  A    between atoms: C_8  and  C_10
REMARK    7  A    between atoms: C_10  and  O_11
REMARK    8  A    between atoms: O_11  and  C_12
REMARK    9  A    between atoms: C_12  and  C_14
REMARK   10  A    between atoms: O_20  and  C_21
REMARK   11  A    between atoms: C_21  and  C_23
REMARK   12  A    between atoms: O_24  and  C_25
REMARK   13  A    between atoms: C_25  and  C_27
REMARK                            x       y       z     vdW  Elec       q    Type
REMARK                         _______ _______ _______ _____ _____    ______ ____
ROOT
ATOM      1  C   UNL     1      85.880  55.029  42.906  0.00  0.00    +0.112 C 
ATOM      2  C   UNL     1      86.528  55.772  44.048  0.00  0.00    -0.053 C 
ATOM      3  C   UNL     1      86.672  55.171  45.234  0.00  0.00    -0.042 C 
ATOM      4  C   UNL     1      86.069  53.810  45.468  0.00  0.00    +0.161 C 
ATOM      5  C   UNL     1      86.263  52.846  44.252  0.00  0.00    +0.178 C 
ATOM      6  C   UNL     1      86.449  53.578  42.865  0.00  0.00    +0.170 C 
ENDROOT
BRANCH   1   8
ATOM      7  C   UNL     1      83.901  56.247  42.811  0.00  0.00    +0.037 C 
ATOM      8  O   UNL     1      84.474  54.992  43.105  0.00  0.00    -0.373 OA
ENDBRANCH   1   8
BRANCH   6   9
ATOM      9  O   UNL     1      87.816  53.644  42.517  0.00  0.00    -0.379 OA
ATOM     10  H   UNL     1      88.045  54.555  42.279  0.00  0.00    +0.000 HD
ENDBRANCH   6   9
BRANCH   6  11
ATOM     11  C   UNL     1      85.734  52.779  41.743  0.00  0.00    +0.128 C 
BRANCH  11  12
ATOM     12  O   UNL     1      84.786  51.856  42.285  0.00  0.00    -0.458 OA
BRANCH  12  13
ATOM     13  C   UNL     1      83.417  51.876  41.994  0.00  0.00    +0.339 C 
ATOM     14  O   UNL     1      82.942  52.764  41.233  0.00  0.00    -0.245 OA
BRANCH  13  15
ATOM     15  C   UNL     1      82.530  50.851  42.582  0.00  0.00    +0.059 A 
ATOM     16  C   UNL     1      83.059  49.845  43.410  0.00  0.00    -0.048 A 
ATOM     17  C   UNL     1      82.225  48.859  43.947  0.00  0.00    -0.061 A 
ATOM     18  C   UNL     1      80.858  48.868  43.666  0.00  0.00    -0.062 A 
ATOM     19  C   UNL     1      80.320  49.864  42.848  0.00  0.00    -0.061 A 
ATOM     20  C   UNL     1      81.149  50.853  42.308  0.00  0.00    -0.048 A 
ENDBRANCH  13  15
ENDBRANCH  12  13
ENDBRANCH  11  12
ENDBRANCH   6  11
BRANCH   5  21
ATOM     21  O   UNL     1      87.384  51.980  44.479  0.00  0.00    -0.454 OA
BRANCH  21  22
ATOM     22  C   UNL     1      87.360  50.591  44.309  0.00  0.00    +0.304 C 
ATOM     23  O   UNL     1      88.103  50.024  43.463  0.00  0.00    -0.251 OA
ATOM     24  C   UNL     1      86.408  49.776  45.117  0.00  0.00    +0.033 C 
ENDBRANCH  21  22
ENDBRANCH   5  21
BRANCH   4  25
ATOM     25  O   UNL     1      86.619  53.254  46.665  0.00  0.00    -0.453 OA
BRANCH  25  26
ATOM     26  C   UNL     1      85.839  52.692  47.681  0.00  0.00    +0.305 C 
ATOM     27  O   UNL     1      84.731  53.201  48.002  0.00  0.00    -0.251 OA
ATOM     28  C   UNL     1      86.348  51.502  48.422  0.00  0.00    +0.033 C 
ENDBRANCH  25  26
ENDBRANCH   4  25
TORSDOF 10
ENDMDL
MODEL 9
REMARK VINA RESULT:    -6.712      1.619      6.840
REMARK INTER + INTRA:         -12.342
REMARK INTER:                 -10.440
REMARK INTRA:                  -1.902
REMARK UNBOUND:                -1.902
REMARK  Name = 
REMARK  13 active torsions:
REMARK  status: ('A' for Active; 'I' for Inactive)
REMARK    1  A    between atoms: C_1  and  O_2
REMARK    2  A    between atoms: O_2  and  C_3
REMARK    3  A    between atoms: C_6  and  O_24
REMARK    4  A    between atoms: C_7  and  O_20
REMARK    5  A    between atoms: C_8  and  O_9
REMARK    6  A    between atoms: C_8  and  C_10
REMARK    7  A    between atoms: C_10  and  O_11
REMARK    8  A    between atoms: O_11  and  C_12
REMARK    9  A    between atoms: C_12  and  C_14
REMARK   10  A    between atoms: O_20  and  C_21
REMARK   11  A    between atoms: C_21  and  C_23
REMARK   12  A    between atoms: O_24  and  C_25
REMARK   13  A    between atoms: C_25  and  C_27
REMARK                            x       y       z     vdW  Elec       q    Type
REMARK                         _______ _______ _______ _____ _____    ______ ____
ROOT
ATOM      1  C   UNL     1      85.446  53.935  41.820  0.00  0.00    +0.112 C 
ATOM      2  C   UNL     1      84.148  54.069  42.577  0.00  0.00    -0.053 C 
ATOM      3  C   UNL     1      83.577  52.984  43.113  0.00  0.00    -0.042 C 
ATOM      4  C   UNL     1      84.156  51.618  42.847  0.00  0.00    +0.161 C 
ATOM      5  C   UNL     1      85.718  51.601  42.915  0.00  0.00    +0.178 C 
ATOM      6  C   UNL     1      86.398  52.995  42.620  0.00  0.00    +0.170 C 
ENDROOT
BRANCH   1   8
ATOM      7  C   UNL     1      84.498  54.313  39.731  0.00  0.00    +0.037 C 
ATOM      8  O   UNL     1      85.189  53.384  40.537  0.00  0.00    -0.373 OA
ENDBRANCH   1   8
BRANCH   6   9
ATOM      9  O   UNL     1      86.753  53.639  43.826  0.00  0.00    -0.379 OA
ATOM     10  H   UNL     1      87.042  52.977  44.473  0.00  0.00    +0.000 HD
ENDBRANCH   6   9
BRANCH   6  11
ATOM     11  C   UNL     1      87.708  52.787  41.815  0.00  0.00    +0.128 C 
BRANCH  11  12
ATOM     12  O   UNL     1      87.692  51.544  41.109  0.00  0.00    -0.458 OA
BRANCH  12  13
ATOM     13  C   UNL     1      88.837  50.914  40.605  0.00  0.00    +0.339 C 
ATOM     14  O   UNL     1      89.364  51.318  39.531  0.00  0.00    -0.245 OA
BRANCH  13  15
ATOM     15  C   UNL     1      89.426  49.774  41.337  0.00  0.00    +0.059 A 
ATOM     16  C   UNL     1      88.745  48.545  41.406  0.00  0.00    -0.048 A 
ATOM     17  C   UNL     1      89.288  47.473  42.119  0.00  0.00    -0.061 A 
ATOM     18  C   UNL     1      90.516  47.614  42.769  0.00  0.00    -0.062 A 
ATOM     19  C   UNL     1      91.204  48.827  42.705  0.00  0.00    -0.061 A 
ATOM     20  C   UNL     1      90.665  49.904  41.993  0.00  0.00    -0.048 A 
ENDBRANCH  13  15
ENDBRANCH  12  13
ENDBRANCH  11  12
ENDBRANCH   6  11
BRANCH   5  21
ATOM     21  O   UNL     1      86.154  51.128  44.198  0.00  0.00    -0.454 OA
BRANCH  21  22
ATOM     22  C   UNL     1      86.992  50.025  44.394  0.00  0.00    +0.304 C 
ATOM     23  O   UNL     1      88.229  50.172  44.590  0.00  0.00    -0.251 OA
ATOM     24  C   UNL     1      86.415  48.652  44.328  0.00  0.00    +0.033 C 
ENDBRANCH  21  22
ENDBRANCH   5  21
BRANCH   4  25
ATOM     25  O   UNL     1      83.585  50.682  43.764  0.00  0.00    -0.453 OA
BRANCH  25  26
ATOM     26  C   UNL     1      82.684  49.682  43.382  0.00  0.00    +0.305 C 
ATOM     27  O   UNL     1      83.000  48.464  43.460  0.00  0.00    -0.251 OA
ATOM     28  C   UNL     1      81.352  50.067  42.835  0.00  0.00    +0.033 C 
ENDBRANCH  25  26
ENDBRANCH   4  25
TORSDOF 10
ENDMDL
