MODEL 1
REMARK VINA RESULT:    -7.512      0.000      0.000
REMARK INTER + INTRA:         -11.565
REMARK INTER:                 -10.514
REMARK INTRA:                  -1.052
REMARK UNBOUND:                -0.979
REMARK  Name = 
REMARK  9 active torsions:
REMARK  status: ('A' for Active; 'I' for Inactive)
REMARK    1  A    between atoms: C_1  and  C_2
REMARK    2  A    between atoms: C_2  and  O_4
REMARK    3  A    between atoms: O_4  and  C_5
REMARK    4  A    between atoms: C_9  and  O_12
REMARK    5  A    between atoms: C_9  and  C_13
REMARK    6  A    between atoms: C_10  and  O_11
REMARK    7  A    between atoms: C_13  and  O_14
REMARK    8  A    between atoms: O_14  and  C_15
REMARK    9  A    between atoms: C_15  and  C_17
REMARK                            x       y       z     vdW  Elec       q    Type
REMARK                         _______ _______ _______ _____ _____    ______ ____
ROOT
ATOM      1  C   UNL     1      86.870  46.393  42.963  0.00  0.00    +0.150 C 
ATOM      2  C   UNL     1      88.150  45.661  42.663  0.00  0.00    -0.044 C 
ATOM      3  C   UNL     1      89.296  46.285  42.360  0.00  0.00    -0.064 C 
ATOM      4  C   UNL     1      89.474  47.779  42.481  0.00  0.00    +0.087 C 
ATOM      5  C   UNL     1      88.122  48.560  42.437  0.00  0.00    +0.149 C 
ATOM      6  C   UNL     1      87.122  47.856  43.396  0.00  0.00    +0.129 C 
ATOM      7 CL   UNL     1      90.634  48.301  41.220  0.00  0.00    -0.114 Cl
ENDROOT
BRANCH   6   8
ATOM      8  O   UNL     1      85.901  48.553  43.405  0.00  0.00    -0.385 OA
ATOM      9  H   UNL     1      85.424  48.359  44.227  0.00  0.00    +0.000 HD
ENDBRANCH   6   8
BRANCH   5  10
ATOM     10  O   UNL     1      87.569  48.534  41.137  0.00  0.00    -0.381 OA
ATOM     11  H   UNL     1      86.604  48.466  41.198  0.00  0.00    +0.000 HD
ENDBRANCH   5  10
BRANCH   1  12
ATOM     12  O   UNL     1      86.182  45.687  43.997  0.00  0.00    -0.455 OA
BRANCH  12  14
ATOM     13  C   UNL     1      84.310  44.076  43.629  0.00  0.00    +0.033 C 
ATOM     14  C   UNL     1      84.805  45.436  43.989  0.00  0.00    +0.305 C 
ATOM     15  O   UNL     1      83.978  46.356  44.229  0.00  0.00    -0.251 OA
ENDBRANCH  12  14
ENDBRANCH   1  12
BRANCH   5  16
ATOM     16  C   UNL     1      88.314  50.028  42.916  0.00  0.00    +0.126 C 
BRANCH  16  17
ATOM     17  O   UNL     1      87.931  50.187  44.279  0.00  0.00    -0.458 OA
BRANCH  17  18
ATOM     18  C   UNL     1      87.467  51.398  44.800  0.00  0.00    +0.339 C 
ATOM     19  O   UNL     1      87.388  52.416  44.058  0.00  0.00    -0.245 OA
BRANCH  18  20
ATOM     20  C   UNL     1      87.068  51.483  46.222  0.00  0.00    +0.059 A 
ATOM     21  C   UNL     1      86.240  52.528  46.676  0.00  0.00    -0.048 A 
ATOM     22  C   UNL     1      85.867  52.600  48.021  0.00  0.00    -0.061 A 
ATOM     23  C   UNL     1      86.313  51.635  48.926  0.00  0.00    -0.062 A 
ATOM     24  C   UNL     1      87.138  50.596  48.489  0.00  0.00    -0.061 A 
ATOM     25  C   UNL     1      87.514  50.519  47.144  0.00  0.00    -0.048 A 
ENDBRANCH  18  20
ENDBRANCH  17  18
ENDBRANCH  16  17
ENDBRANCH   5  16
TORSDOF 8
ENDMDL
MODEL 2
REMARK VINA RESULT:    -7.482      4.510      8.306
REMARK INTER + INTRA:         -11.523
REMARK INTER:                 -10.506
REMARK INTRA:                  -1.017
REMARK UNBOUND:                -0.979
REMARK  Name = 
REMARK  9 active torsions:
REMARK  status: ('A' for Active; 'I' for Inactive)
REMARK    1  A    between atoms: C_1  and  C_2
REMARK    2  A    between atoms: C_2  and  O_4
REMARK    3  A    between atoms: O_4  and  C_5
REMARK    4  A    between atoms: C_9  and  O_12
REMARK    5  A    between atoms: C_9  and  C_13
REMARK    6  A    between atoms: C_10  and  O_11
REMARK    7  A    between atoms: C_13  and  O_14
REMARK    8  A    between atoms: O_14  and  C_15
REMARK    9  A    between atoms: C_15  and  C_17
REMARK                            x       y       z     vdW  Elec       q    Type
REMARK                         _______ _______ _______ _____ _____    ______ ____
ROOT
ATOM      1  C   UNL     1      85.452  55.765  43.119  0.00  0.00    +0.150 C 
ATOM      2  C   UNL     1      83.947  55.761  43.107  0.00  0.00    -0.044 C 
ATOM      3  C   UNL     1      83.221  54.691  42.754  0.00  0.00    -0.064 C 
ATOM      4  C   UNL     1      83.827  53.327  42.524  0.00  0.00    +0.087 C 
ATOM      5  C   UNL     1      85.351  53.387  42.185  0.00  0.00    +0.149 C 
ATOM      6  C   UNL     1      86.039  54.338  43.204  0.00  0.00    +0.129 C 
ATOM      7 CL   UNL     1      82.856  52.496  41.270  0.00  0.00    -0.114 Cl
ENDROOT
BRANCH   6   8
ATOM      8  O   UNL     1      87.421  54.389  42.948  0.00  0.00    -0.385 OA
ATOM      9  H   UNL     1      87.569  54.567  42.006  0.00  0.00    +0.000 HD
ENDBRANCH   6   8
BRANCH   5  10
ATOM     10  O   UNL     1      85.558  53.913  40.891  0.00  0.00    -0.381 OA
ATOM     11  H   UNL     1      85.104  53.357  40.239  0.00  0.00    +0.000 HD
ENDBRANCH   5  10
BRANCH   1  12
ATOM     12  O   UNL     1      85.888  56.543  44.235  0.00  0.00    -0.455 OA
BRANCH  12  14
ATOM     13  C   UNL     1      84.826  58.341  45.604  0.00  0.00    +0.033 C 
ATOM     14  C   UNL     1      85.594  57.901  44.404  0.00  0.00    +0.305 C 
ATOM     15  O   UNL     1      85.922  58.748  43.530  0.00  0.00    -0.251 OA
ENDBRANCH  12  14
ENDBRANCH   1  12
BRANCH   5  16
ATOM     16  C   UNL     1      86.001  51.978  42.308  0.00  0.00    +0.126 C 
BRANCH  16  17
ATOM     17  O   UNL     1      86.985  51.768  41.299  0.00  0.00    -0.458 OA
BRANCH  17  18
ATOM     18  C   UNL     1      88.326  51.502  41.592  0.00  0.00    +0.339 C 
ATOM     19  O   UNL     1      89.140  52.455  41.744  0.00  0.00    -0.245 OA
BRANCH  18  20
ATOM     20  C   UNL     1      88.787  50.102  41.724  0.00  0.00    +0.059 A 
ATOM     21  C   UNL     1      87.904  49.029  41.497  0.00  0.00    -0.048 A 
ATOM     22  C   UNL     1      88.349  47.709  41.622  0.00  0.00    -0.061 A 
ATOM     23  C   UNL     1      89.675  47.446  41.974  0.00  0.00    -0.062 A 
ATOM     24  C   UNL     1      90.559  48.503  42.205  0.00  0.00    -0.061 A 
ATOM     25  C   UNL     1      90.119  49.825  42.081  0.00  0.00    -0.048 A 
ENDBRANCH  18  20
ENDBRANCH  17  18
ENDBRANCH  16  17
ENDBRANCH   5  16
TORSDOF 8
ENDMDL
MODEL 3
REMARK VINA RESULT:    -7.448      5.442      8.152
REMARK INTER + INTRA:         -11.474
REMARK INTER:                 -10.443
REMARK INTRA:                  -1.031
REMARK UNBOUND:                -0.979
REMARK  Name = 
REMARK  9 active torsions:
REMARK  status: ('A' for Active; 'I' for Inactive)
REMARK    1  A    between atoms: C_1  and  C_2
REMARK    2  A    between atoms: C_2  and  O_4
REMARK    3  A    between atoms: O_4  and  C_5
REMARK    4  A    between atoms: C_9  and  O_12
REMARK    5  A    between atoms: C_9  and  C_13
REMARK    6  A    between atoms: C_10  and  O_11
REMARK    7  A    between atoms: C_13  and  O_14
REMARK    8  A    between atoms: O_14  and  C_15
REMARK    9  A    between atoms: C_15  and  C_17
REMARK                            x       y       z     vdW  Elec       q    Type
REMARK                         _______ _______ _______ _____ _____    ______ ____
ROOT
ATOM      1  C   UNL     1      86.452  54.293  46.202  0.00  0.00    +0.150 C 
ATOM      2  C   UNL     1      86.224  55.346  47.254  0.00  0.00    -0.044 C 
ATOM      3  C   UNL     1      85.666  56.535  46.989  0.00  0.00    -0.064 C 
ATOM      4  C   UNL     1      85.033  56.868  45.659  0.00  0.00    +0.087 C 
ATOM      5  C   UNL     1      85.559  55.971  44.493  0.00  0.00    +0.149 C 
ATOM      6  C   UNL     1      85.542  54.492  44.970  0.00  0.00    +0.129 C 
ATOM      7 CL   UNL     1      85.259  58.619  45.362  0.00  0.00    -0.114 Cl
ENDROOT
BRANCH   6   8
ATOM      8  O   UNL     1      85.979  53.652  43.930  0.00  0.00    -0.385 OA
ATOM      9  H   UNL     1      86.660  54.108  43.411  0.00  0.00    +0.000 HD
ENDBRANCH   6   8
BRANCH   5  10
ATOM     10  O   UNL     1      86.891  56.306  44.163  0.00  0.00    -0.381 OA
ATOM     11  H   UNL     1      86.956  56.469  43.209  0.00  0.00    +0.000 HD
ENDBRANCH   5  10
BRANCH   1  12
ATOM     12  O   UNL     1      86.209  53.014  46.791  0.00  0.00    -0.455 OA
BRANCH  12  14
ATOM     13  C   UNL     1      87.242  50.934  47.709  0.00  0.00    +0.033 C 
ATOM     14  C   UNL     1      87.024  51.894  46.588  0.00  0.00    +0.305 C 
ATOM     15  O   UNL     1      87.618  51.715  45.491  0.00  0.00    -0.251 OA
ENDBRANCH  12  14
ENDBRANCH   1  12
BRANCH   5  16
ATOM     16  C   UNL     1      84.642  56.097  43.241  0.00  0.00    +0.126 C 
BRANCH  16  17
ATOM     17  O   UNL     1      85.293  55.616  42.068  0.00  0.00    -0.458 OA
BRANCH  17  18
ATOM     18  C   UNL     1      84.618  54.927  41.056  0.00  0.00    +0.339 C 
ATOM     19  O   UNL     1      84.947  55.097  39.849  0.00  0.00    -0.245 OA
BRANCH  18  20
ATOM     20  C   UNL     1      83.521  53.998  41.403  0.00  0.00    +0.059 A 
ATOM     21  C   UNL     1      82.179  54.422  41.362  0.00  0.00    -0.048 A 
ATOM     22  C   UNL     1      81.147  53.537  41.690  0.00  0.00    -0.061 A 
ATOM     23  C   UNL     1      81.441  52.224  42.062  0.00  0.00    -0.062 A 
ATOM     24  C   UNL     1      82.769  51.792  42.110  0.00  0.00    -0.061 A 
ATOM     25  C   UNL     1      83.805  52.673  41.782  0.00  0.00    -0.048 A 
ENDBRANCH  18  20
ENDBRANCH  17  18
ENDBRANCH  16  17
ENDBRANCH   5  16
TORSDOF 8
ENDMDL
MODEL 4
REMARK VINA RESULT:    -7.406      4.299      7.909
REMARK INTER + INTRA:         -11.415
REMARK INTER:                 -10.298
REMARK INTRA:                  -1.117
REMARK UNBOUND:                -0.979
REMARK  Name = 
REMARK  9 active torsions:
REMARK  status: ('A' for Active; 'I' for Inactive)
REMARK    1  A    between atoms: C_1  and  C_2
REMARK    2  A    between atoms: C_2  and  O_4
REMARK    3  A    between atoms: O_4  and  C_5
REMARK    4  A    between atoms: C_9  and  O_12
REMARK    5  A    between atoms: C_9  and  C_13
REMARK    6  A    between atoms: C_10  and  O_11
REMARK    7  A    between atoms: C_13  and  O_14
REMARK    8  A    between atoms: O_14  and  C_15
REMARK    9  A    between atoms: C_15  and  C_17
REMARK                            x       y       z     vdW  Elec       q    Type
REMARK                         _______ _______ _______ _____ _____    ______ ____
ROOT
ATOM      1  C   UNL     1      84.927  55.298  44.416  0.00  0.00    +0.150 C 
ATOM      2  C   UNL     1      84.820  54.398  45.618  0.00  0.00    -0.044 C 
ATOM      3  C   UNL     1      84.790  53.061  45.531  0.00  0.00    -0.064 C 
ATOM      4  C   UNL     1      85.057  52.316  44.246  0.00  0.00    +0.087 C 
ATOM      5  C   UNL     1      84.817  53.190  42.973  0.00  0.00    +0.149 C 
ATOM      6  C   UNL     1      85.511  54.564  43.188  0.00  0.00    +0.129 C 
ATOM      7 CL   UNL     1      84.084  50.813  44.266  0.00  0.00    -0.114 Cl
ENDROOT
BRANCH   6   8
ATOM      8  O   UNL     1      85.342  55.366  42.045  0.00  0.00    -0.385 OA
ATOM      9  H   UNL     1      84.711  54.941  41.442  0.00  0.00    +0.000 HD
ENDBRANCH   6   8
BRANCH   5  10
ATOM     10  O   UNL     1      83.438  53.425  42.779  0.00  0.00    -0.381 OA
ATOM     11  H   UNL     1      82.925  52.743  43.241  0.00  0.00    +0.000 HD
ENDBRANCH   5  10
BRANCH   1  12
ATOM     12  O   UNL     1      85.754  56.410  44.762  0.00  0.00    -0.455 OA
BRANCH  12  14
ATOM     13  C   UNL     1      84.971  58.619  45.625  0.00  0.00    +0.033 C 
ATOM     14  C   UNL     1      85.417  57.744  44.503  0.00  0.00    +0.305 C 
ATOM     15  O   UNL     1      85.434  58.200  43.327  0.00  0.00    -0.251 OA
ENDBRANCH  12  14
ENDBRANCH   1  12
BRANCH   5  16
ATOM     16  C   UNL     1      85.435  52.516  41.714  0.00  0.00    +0.126 C 
BRANCH  16  17
ATOM     17  O   UNL     1      86.841  52.736  41.641  0.00  0.00    -0.458 OA
BRANCH  17  18
ATOM     18  C   UNL     1      87.719  51.838  41.027  0.00  0.00    +0.339 C 
ATOM     19  O   UNL     1      87.902  51.889  39.779  0.00  0.00    -0.245 OA
BRANCH  18  20
ATOM     20  C   UNL     1      88.432  50.831  41.842  0.00  0.00    +0.059 A 
ATOM     21  C   UNL     1      88.022  50.551  43.160  0.00  0.00    -0.048 A 
ATOM     22  C   UNL     1      88.701  49.597  43.924  0.00  0.00    -0.061 A 
ATOM     23  C   UNL     1      89.793  48.913  43.384  0.00  0.00    -0.062 A 
ATOM     24  C   UNL     1      90.210  49.185  42.078  0.00  0.00    -0.061 A 
ATOM     25  C   UNL     1      89.535  50.139  41.310  0.00  0.00    -0.048 A 
ENDBRANCH  18  20
ENDBRANCH  17  18
ENDBRANCH  16  17
ENDBRANCH   5  16
TORSDOF 8
ENDMDL
MODEL 5
REMARK VINA RESULT:    -7.398      1.496      2.120
REMARK INTER + INTRA:         -11.404
REMARK INTER:                 -10.720
REMARK INTRA:                  -0.684
REMARK UNBOUND:                -0.979
REMARK  Name = 
REMARK  9 active torsions:
REMARK  status: ('A' for Active; 'I' for Inactive)
REMARK    1  A    between atoms: C_1  and  C_2
REMARK    2  A    between atoms: C_2  and  O_4
REMARK    3  A    between atoms: O_4  and  C_5
REMARK    4  A    between atoms: C_9  and  O_12
REMARK    5  A    between atoms: C_9  and  C_13
REMARK    6  A    between atoms: C_10  and  O_11
REMARK    7  A    between atoms: C_13  and  O_14
REMARK    8  A    between atoms: O_14  and  C_15
REMARK    9  A    between atoms: C_15  and  C_17
REMARK                            x       y       z     vdW  Elec       q    Type
REMARK                         _______ _______ _______ _____ _____    ______ ____
ROOT
ATOM      1  C   UNL     1      88.646  46.218  42.292  0.00  0.00    +0.150 C 
ATOM      2  C   UNL     1      90.061  46.681  42.071  0.00  0.00    -0.044 C 
ATOM      3  C   UNL     1      90.416  47.974  42.070  0.00  0.00    -0.064 C 
ATOM      4  C   UNL     1      89.479  49.083  42.482  0.00  0.00    +0.087 C 
ATOM      5  C   UNL     1      87.973  48.684  42.365  0.00  0.00    +0.149 C 
ATOM      6  C   UNL     1      87.789  47.283  43.013  0.00  0.00    +0.129 C 
ATOM      7 CL   UNL     1      89.900  50.543  41.534  0.00  0.00    -0.114 Cl
ENDROOT
BRANCH   6   8
ATOM      8  O   UNL     1      86.435  46.906  42.953  0.00  0.00    -0.385 OA
ATOM      9  H   UNL     1      86.074  47.133  42.083  0.00  0.00    +0.000 HD
ENDBRANCH   6   8
BRANCH   5  10
ATOM     10  O   UNL     1      87.582  48.591  41.011  0.00  0.00    -0.381 OA
ATOM     11  H   UNL     1      86.809  49.157  40.859  0.00  0.00    +0.000 HD
ENDBRANCH   5  10
BRANCH   1  12
ATOM     12  O   UNL     1      88.684  45.015  43.061  0.00  0.00    -0.455 OA
BRANCH  12  14
ATOM     13  C   UNL     1      87.949  42.721  43.718  0.00  0.00    +0.033 C 
ATOM     14  C   UNL     1      87.777  43.960  42.906  0.00  0.00    +0.305 C 
ATOM     15  O   UNL     1      86.851  44.022  42.053  0.00  0.00    -0.251 OA
ENDBRANCH  12  14
ENDBRANCH   1  12
BRANCH   5  16
ATOM     16  C   UNL     1      87.070  49.700  43.122  0.00  0.00    +0.126 C 
BRANCH  16  17
ATOM     17  O   UNL     1      87.821  50.471  44.056  0.00  0.00    -0.458 OA
BRANCH  17  18
ATOM     18  C   UNL     1      87.291  51.576  44.727  0.00  0.00    +0.339 C 
ATOM     19  O   UNL     1      87.057  52.645  44.096  0.00  0.00    -0.245 OA
BRANCH  18  20
ATOM     20  C   UNL     1      87.004  51.491  46.176  0.00  0.00    +0.059 A 
ATOM     21  C   UNL     1      87.485  50.412  46.942  0.00  0.00    -0.048 A 
ATOM     22  C   UNL     1      87.210  50.340  48.311  0.00  0.00    -0.061 A 
ATOM     23  C   UNL     1      86.455  51.339  48.929  0.00  0.00    -0.062 A 
ATOM     24  C   UNL     1      85.970  52.412  48.178  0.00  0.00    -0.061 A 
ATOM     25  C   UNL     1      86.242  52.489  46.808  0.00  0.00    -0.048 A 
ENDBRANCH  18  20
ENDBRANCH  17  18
ENDBRANCH  16  17
ENDBRANCH   5  16
TORSDOF 8
ENDMDL
MODEL 6
REMARK VINA RESULT:    -7.263     19.075     21.410
REMARK INTER + INTRA:         -11.214
REMARK INTER:                 -10.488
REMARK INTRA:                  -0.725
REMARK UNBOUND:                -0.979
REMARK  Name = 
REMARK  9 active torsions:
REMARK  status: ('A' for Active; 'I' for Inactive)
REMARK    1  A    between atoms: C_1  and  C_2
REMARK    2  A    between atoms: C_2  and  O_4
REMARK    3  A    between atoms: O_4  and  C_5
REMARK    4  A    between atoms: C_9  and  O_12
REMARK    5  A    between atoms: C_9  and  C_13
REMARK    6  A    between atoms: C_10  and  O_11
REMARK    7  A    between atoms: C_13  and  O_14
REMARK    8  A    between atoms: O_14  and  C_15
REMARK    9  A    between atoms: C_15  and  C_17
REMARK                            x       y       z     vdW  Elec       q    Type
REMARK                         _______ _______ _______ _____ _____    ______ ____
ROOT
ATOM      1  C   UNL     1      94.221  69.023  48.025  0.00  0.00    +0.150 C 
ATOM      2  C   UNL     1      95.409  69.771  48.567  0.00  0.00    -0.044 C 
ATOM      3  C   UNL     1      96.561  69.902  47.894  0.00  0.00    -0.064 C 
ATOM      4  C   UNL     1      96.720  69.486  46.452  0.00  0.00    +0.087 C 
ATOM      5  C   UNL     1      95.667  68.423  46.004  0.00  0.00    +0.149 C 
ATOM      6  C   UNL     1      94.266  68.892  46.486  0.00  0.00    +0.129 C 
ATOM      7 CL   UNL     1      98.412  68.948  46.215  0.00  0.00    -0.114 Cl
ENDROOT
BRANCH   6   8
ATOM      8  O   UNL     1      93.287  67.973  46.071  0.00  0.00    -0.385 OA
ATOM      9  H   UNL     1      93.218  67.257  46.722  0.00  0.00    +0.000 HD
ENDBRANCH   6   8
BRANCH   5  10
ATOM     10  O   UNL     1      95.934  67.170  46.598  0.00  0.00    -0.381 OA
ATOM     11  H   UNL     1      95.386  66.489  46.177  0.00  0.00    +0.000 HD
ENDBRANCH   5  10
BRANCH   1  12
ATOM     12  O   UNL     1      93.037  69.715  48.425  0.00  0.00    -0.455 OA
BRANCH  12  14
ATOM     13  C   UNL     1      90.819  68.570  48.487  0.00  0.00    +0.033 C 
ATOM     14  C   UNL     1      92.011  69.136  49.181  0.00  0.00    +0.305 C 
ATOM     15  O   UNL     1      92.057  69.134  50.441  0.00  0.00    -0.251 OA
ENDBRANCH  12  14
ENDBRANCH   1  12
BRANCH   5  16
ATOM     16  C   UNL     1      95.636  68.292  44.453  0.00  0.00    +0.126 C 
BRANCH  16  17
ATOM     17  O   UNL     1      94.799  67.217  44.036  0.00  0.00    -0.458 OA
BRANCH  17  18
ATOM     18  C   UNL     1      95.204  65.880  44.081  0.00  0.00    +0.339 C 
ATOM     19  O   UNL     1      94.604  65.063  44.834  0.00  0.00    -0.245 OA
BRANCH  18  20
ATOM     20  C   UNL     1      96.336  65.425  43.244  0.00  0.00    +0.059 A 
ATOM     21  C   UNL     1      96.449  65.836  41.902  0.00  0.00    -0.048 A 
ATOM     22  C   UNL     1      97.522  65.401  41.118  0.00  0.00    -0.061 A 
ATOM     23  C   UNL     1      98.491  64.556  41.662  0.00  0.00    -0.062 A 
ATOM     24  C   UNL     1      98.388  64.139  42.991  0.00  0.00    -0.061 A 
ATOM     25  C   UNL     1      97.316  64.570  43.780  0.00  0.00    -0.048 A 
ENDBRANCH  18  20
ENDBRANCH  17  18
ENDBRANCH  16  17
ENDBRANCH   5  16
TORSDOF 8
ENDMDL
MODEL 7
REMARK VINA RESULT:    -7.153      5.135      7.415
REMARK INTER + INTRA:         -11.059
REMARK INTER:                 -10.081
REMARK INTRA:                  -0.979
REMARK UNBOUND:                -0.979
REMARK  Name = 
REMARK  9 active torsions:
REMARK  status: ('A' for Active; 'I' for Inactive)
REMARK    1  A    between atoms: C_1  and  C_2
REMARK    2  A    between atoms: C_2  and  O_4
REMARK    3  A    between atoms: O_4  and  C_5
REMARK    4  A    between atoms: C_9  and  O_12
REMARK    5  A    between atoms: C_9  and  C_13
REMARK    6  A    between atoms: C_10  and  O_11
REMARK    7  A    between atoms: C_13  and  O_14
REMARK    8  A    between atoms: O_14  and  C_15
REMARK    9  A    between atoms: C_15  and  C_17
REMARK                            x       y       z     vdW  Elec       q    Type
REMARK                         _______ _______ _______ _____ _____    ______ ____
ROOT
ATOM      1  C   UNL     1      83.758  53.604  41.291  0.00  0.00    +0.150 C 
ATOM      2  C   UNL     1      82.472  52.964  41.741  0.00  0.00    -0.044 C 
ATOM      3  C   UNL     1      82.391  52.154  42.805  0.00  0.00    -0.064 C 
ATOM      4  C   UNL     1      83.531  51.954  43.773  0.00  0.00    +0.087 C 
ATOM      5  C   UNL     1      84.924  52.298  43.154  0.00  0.00    +0.149 C 
ATOM      6  C   UNL     1      84.807  53.665  42.423  0.00  0.00    +0.129 C 
ATOM      7 CL   UNL     1      83.433  50.281  44.405  0.00  0.00    -0.114 Cl
ENDROOT
BRANCH   6   8
ATOM      8  O   UNL     1      86.054  54.022  41.881  0.00  0.00    -0.385 OA
ATOM      9  H   UNL     1      86.461  54.710  42.430  0.00  0.00    +0.000 HD
ENDBRANCH   6   8
BRANCH   5  10
ATOM     10  O   UNL     1      85.304  51.327  42.202  0.00  0.00    -0.381 OA
ATOM     11  H   UNL     1      85.230  51.702  41.310  0.00  0.00    +0.000 HD
ENDBRANCH   5  10
BRANCH   1  12
ATOM     12  O   UNL     1      83.463  54.920  40.822  0.00  0.00    -0.455 OA
BRANCH  12  14
ATOM     13  C   UNL     1      83.060  55.815  38.526  0.00  0.00    +0.033 C 
ATOM     14  C   UNL     1      83.984  55.465  39.643  0.00  0.00    +0.305 C 
ATOM     15  O   UNL     1      85.227  55.614  39.492  0.00  0.00    -0.251 OA
ENDBRANCH  12  14
ENDBRANCH   1  12
BRANCH   5  16
ATOM     16  C   UNL     1      86.008  52.423  44.264  0.00  0.00    +0.126 C 
BRANCH  16  17
ATOM     17  O   UNL     1      86.481  53.762  44.383  0.00  0.00    -0.458 OA
BRANCH  17  18
ATOM     18  C   UNL     1      86.363  54.506  45.560  0.00  0.00    +0.339 C 
ATOM     19  O   UNL     1      86.654  53.981  46.671  0.00  0.00    -0.245 OA
BRANCH  18  20
ATOM     20  C   UNL     1      85.899  55.910  45.501  0.00  0.00    +0.059 A 
ATOM     21  C   UNL     1      84.981  56.404  46.448  0.00  0.00    -0.048 A 
ATOM     22  C   UNL     1      84.549  57.733  46.386  0.00  0.00    -0.061 A 
ATOM     23  C   UNL     1      85.025  58.579  45.382  0.00  0.00    -0.062 A 
ATOM     24  C   UNL     1      85.933  58.099  44.436  0.00  0.00    -0.061 A 
ATOM     25  C   UNL     1      86.369  56.771  44.493  0.00  0.00    -0.048 A 
ENDBRANCH  18  20
ENDBRANCH  17  18
ENDBRANCH  16  17
ENDBRANCH   5  16
TORSDOF 8
ENDMDL
MODEL 8
REMARK VINA RESULT:    -7.149      3.868      8.138
REMARK INTER + INTRA:         -11.053
REMARK INTER:                 -10.056
REMARK INTRA:                  -0.996
REMARK UNBOUND:                -0.979
REMARK  Name = 
REMARK  9 active torsions:
REMARK  status: ('A' for Active; 'I' for Inactive)
REMARK    1  A    between atoms: C_1  and  C_2
REMARK    2  A    between atoms: C_2  and  O_4
REMARK    3  A    between atoms: O_4  and  C_5
REMARK    4  A    between atoms: C_9  and  O_12
REMARK    5  A    between atoms: C_9  and  C_13
REMARK    6  A    between atoms: C_10  and  O_11
REMARK    7  A    between atoms: C_13  and  O_14
REMARK    8  A    between atoms: O_14  and  C_15
REMARK    9  A    between atoms: C_15  and  C_17
REMARK                            x       y       z     vdW  Elec       q    Type
REMARK                         _______ _______ _______ _____ _____    ______ ____
ROOT
ATOM      1  C   UNL     1      85.009  55.494  45.765  0.00  0.00    +0.150 C 
ATOM      2  C   UNL     1      84.606  55.686  47.202  0.00  0.00    -0.044 C 
ATOM      3  C   UNL     1      84.901  54.807  48.169  0.00  0.00    -0.064 C 
ATOM      4  C   UNL     1      85.831  53.636  47.958  0.00  0.00    +0.087 C 
ATOM      5  C   UNL     1      85.962  53.224  46.457  0.00  0.00    +0.149 C 
ATOM      6  C   UNL     1      86.193  54.511  45.617  0.00  0.00    +0.129 C 
ATOM      7 CL   UNL     1      85.283  52.298  49.014  0.00  0.00    -0.114 Cl
ENDROOT
BRANCH   6   8
ATOM      8  O   UNL     1      86.348  54.173  44.261  0.00  0.00    -0.385 OA
ATOM      9  H   UNL     1      86.209  54.961  43.713  0.00  0.00    +0.000 HD
ENDBRANCH   6   8
BRANCH   5  10
ATOM     10  O   UNL     1      84.774  52.614  45.998  0.00  0.00    -0.381 OA
ATOM     11  H   UNL     1      84.873  52.377  45.063  0.00  0.00    +0.000 HD
ENDBRANCH   5  10
BRANCH   1  12
ATOM     12  O   UNL     1      85.358  56.769  45.223  0.00  0.00    -0.455 OA
BRANCH  12  14
ATOM     13  C   UNL     1      83.942  56.433  43.195  0.00  0.00    +0.033 C 
ATOM     14  C   UNL     1      84.940  57.225  43.968  0.00  0.00    +0.305 C 
ATOM     15  O   UNL     1      85.436  58.268  43.460  0.00  0.00    -0.251 OA
ENDBRANCH  12  14
ENDBRANCH   1  12
BRANCH   5  16
ATOM     16  C   UNL     1      87.177  52.274  46.248  0.00  0.00    +0.126 C 
BRANCH  16  17
ATOM     17  O   UNL     1      86.798  51.089  45.553  0.00  0.00    -0.458 OA
BRANCH  17  18
ATOM     18  C   UNL     1      86.870  50.969  44.162  0.00  0.00    +0.339 C 
ATOM     19  O   UNL     1      85.889  51.318  43.447  0.00  0.00    -0.245 OA
BRANCH  18  20
ATOM     20  C   UNL     1      88.097  50.436  43.531  0.00  0.00    +0.059 A 
ATOM     21  C   UNL     1      88.773  49.334  44.091  0.00  0.00    -0.048 A 
ATOM     22  C   UNL     1      89.931  48.835  43.487  0.00  0.00    -0.061 A 
ATOM     23  C   UNL     1      90.427  49.427  42.323  0.00  0.00    -0.062 A 
ATOM     24  C   UNL     1      89.766  50.522  41.761  0.00  0.00    -0.061 A 
ATOM     25  C   UNL     1      88.607  51.025  42.361  0.00  0.00    -0.048 A 
ENDBRANCH  18  20
ENDBRANCH  17  18
ENDBRANCH  16  17
ENDBRANCH   5  16
TORSDOF 8
ENDMDL
MODEL 9
REMARK VINA RESULT:    -7.064      3.564      5.447
REMARK INTER + INTRA:         -10.934
REMARK INTER:                  -9.822
REMARK INTRA:                  -1.112
REMARK UNBOUND:                -0.979
REMARK  Name = 
REMARK  9 active torsions:
REMARK  status: ('A' for Active; 'I' for Inactive)
REMARK    1  A    between atoms: C_1  and  C_2
REMARK    2  A    between atoms: C_2  and  O_4
REMARK    3  A    between atoms: O_4  and  C_5
REMARK    4  A    between atoms: C_9  and  O_12
REMARK    5  A    between atoms: C_9  and  C_13
REMARK    6  A    between atoms: C_10  and  O_11
REMARK    7  A    between atoms: C_13  and  O_14
REMARK    8  A    between atoms: O_14  and  C_15
REMARK    9  A    between atoms: C_15  and  C_17
REMARK                            x       y       z     vdW  Elec       q    Type
REMARK                         _______ _______ _______ _____ _____    ______ ____
ROOT
ATOM      1  C   UNL     1      87.580  47.014  43.113  0.00  0.00    +0.150 C 
ATOM      2  C   UNL     1      87.803  45.556  42.815  0.00  0.00    -0.044 C 
ATOM      3  C   UNL     1      86.825  44.641  42.864  0.00  0.00    -0.064 C 
ATOM      4  C   UNL     1      85.369  45.004  43.029  0.00  0.00    +0.087 C 
ATOM      5  C   UNL     1      85.161  46.409  43.679  0.00  0.00    +0.149 C 
ATOM      6  C   UNL     1      86.096  47.421  42.961  0.00  0.00    +0.129 C 
ATOM      7 CL   UNL     1      84.570  43.681  43.934  0.00  0.00    -0.114 Cl
ENDROOT
BRANCH   6   8
ATOM      8  O   UNL     1      85.911  48.706  43.500  0.00  0.00    -0.385 OA
ATOM      9  H   UNL     1      85.321  48.653  44.268  0.00  0.00    +0.000 HD
ENDBRANCH   6   8
BRANCH   5  10
ATOM     10  O   UNL     1      85.513  46.387  45.047  0.00  0.00    -0.381 OA
ATOM     11  H   UNL     1      86.474  46.287  45.132  0.00  0.00    +0.000 HD
ENDBRANCH   5  10
BRANCH   1  12
ATOM     12  O   UNL     1      88.393  47.782  42.225  0.00  0.00    -0.455 OA
BRANCH  12  14
ATOM     13  C   UNL     1      90.670  48.684  42.713  0.00  0.00    +0.033 C 
ATOM     14  C   UNL     1      89.192  48.858  42.631  0.00  0.00    +0.305 C 
ATOM     15  O   UNL     1      88.674  49.954  42.979  0.00  0.00    -0.251 OA
ENDBRANCH  12  14
ENDBRANCH   1  12
BRANCH   5  16
ATOM     16  C   UNL     1      83.690  46.887  43.505  0.00  0.00    +0.126 C 
BRANCH  16  17
ATOM     17  O   UNL     1      83.397  47.993  44.354  0.00  0.00    -0.458 OA
BRANCH  17  18
ATOM     18  C   UNL     1      82.275  48.808  44.178  0.00  0.00    +0.339 C 
ATOM     19  O   UNL     1      81.134  48.397  44.532  0.00  0.00    -0.245 OA
BRANCH  18  20
ATOM     20  C   UNL     1      82.426  50.151  43.579  0.00  0.00    +0.059 A 
ATOM     21  C   UNL     1      81.571  50.579  42.545  0.00  0.00    -0.048 A 
ATOM     22  C   UNL     1      81.720  51.851  41.985  0.00  0.00    -0.061 A 
ATOM     23  C   UNL     1      82.721  52.708  42.447  0.00  0.00    -0.062 A 
ATOM     24  C   UNL     1      83.578  52.294  43.470  0.00  0.00    -0.061 A 
ATOM     25  C   UNL     1      83.433  51.022  44.034  0.00  0.00    -0.048 A 
ENDBRANCH  18  20
ENDBRANCH  17  18
ENDBRANCH  16  17
ENDBRANCH   5  16
TORSDOF 8
ENDMDL
