MODEL 1
REMARK VINA RESULT:    -9.475      0.000      0.000
REMARK INTER + INTRA:         -17.780
REMARK INTER:                 -14.870
REMARK INTRA:                  -2.911
REMARK UNBOUND:                -1.936
REMARK  Name = 
REMARK  14 active torsions:
REMARK  status: ('A' for Active; 'I' for Inactive)
REMARK    1  A    between atoms: C_1  and  C_2
REMARK    2  A    between atoms: C_2  and  O_4
REMARK    3  A    between atoms: O_4  and  C_5
REMARK    4  A    between atoms: C_8  and  O_26
REMARK    5  A    between atoms: C_9  and  O_15
REMARK    6  A    between atoms: C_9  and  C_16
REMARK    7  A    between atoms: C_10  and  O_11
REMARK    8  A    between atoms: O_11  and  C_12
REMARK    9  A    between atoms: C_12  and  C_14
REMARK   10  A    between atoms: C_16  and  O_17
REMARK   11  A    between atoms: O_17  and  C_18
REMARK   12  A    between atoms: C_18  and  C_20
REMARK   13  A    between atoms: O_26  and  C_27
REMARK   14  A    between atoms: C_27  and  C_29
REMARK                            x       y       z     vdW  Elec       q    Type
REMARK                         _______ _______ _______ _____ _____    ______ ____
ROOT
ATOM      1  C   UNL     1      85.332  48.736  44.140  0.00  0.00    +0.161 C 
ATOM      2  C   UNL     1      84.138  49.607  43.859  0.00  0.00    -0.041 C 
ATOM      3  C   UNL     1      84.318  50.819  43.324  0.00  0.00    -0.041 C 
ATOM      4  C   UNL     1      85.707  51.386  43.159  0.00  0.00    +0.157 C 
ATOM      5  C   UNL     1      86.779  50.311  42.701  0.00  0.00    +0.181 C 
ATOM      6  C   UNL     1      86.279  48.830  42.934  0.00  0.00    +0.179 C 
ENDROOT
BRANCH   5   7
ATOM      7  O   UNL     1      87.053  50.477  41.329  0.00  0.00    -0.378 OA
ATOM      8  H   UNL     1      87.252  51.410  41.150  0.00  0.00    +0.000 HD
ENDBRANCH   5   7
BRANCH   1   9
ATOM      9  O   UNL     1      84.924  47.379  44.319  0.00  0.00    -0.453 OA
BRANCH   9  11
ATOM     10  C   UNL     1      84.086  46.134  42.322  0.00  0.00    +0.033 C 
ATOM     11  C   UNL     1      83.848  46.804  43.632  0.00  0.00    +0.305 C 
ATOM     12  O   UNL     1      82.687  46.811  44.126  0.00  0.00    -0.251 OA
ENDBRANCH   9  11
ENDBRANCH   1   9
BRANCH   6  13
ATOM     13  O   UNL     1      87.356  47.904  43.109  0.00  0.00    -0.454 OA
BRANCH  13  14
ATOM     14  C   UNL     1      87.834  47.071  42.089  0.00  0.00    +0.304 C 
ATOM     15  O   UNL     1      88.198  47.548  40.980  0.00  0.00    -0.251 OA
ATOM     16  C   UNL     1      87.842  45.595  42.294  0.00  0.00    +0.033 C 
ENDBRANCH  13  14
ENDBRANCH   6  13
BRANCH   5  17
ATOM     17  C   UNL     1      88.093  50.581  43.493  0.00  0.00    +0.129 C 
BRANCH  17  18
ATOM     18  O   UNL     1      87.893  51.450  44.609  0.00  0.00    -0.458 OA
BRANCH  18  19
ATOM     19  C   UNL     1      87.656  50.996  45.915  0.00  0.00    +0.339 C 
ATOM     20  O   UNL     1      88.163  49.910  46.313  0.00  0.00    -0.245 OA
BRANCH  19  21
ATOM     21  C   UNL     1      86.814  51.795  46.828  0.00  0.00    +0.059 A 
ATOM     22  C   UNL     1      86.340  53.060  46.433  0.00  0.00    -0.048 A 
ATOM     23  C   UNL     1      85.536  53.814  47.292  0.00  0.00    -0.061 A 
ATOM     24  C   UNL     1      85.200  53.319  48.554  0.00  0.00    -0.062 A 
ATOM     25  C   UNL     1      85.670  52.068  48.961  0.00  0.00    -0.061 A 
ATOM     26  C   UNL     1      86.474  51.308  48.105  0.00  0.00    -0.048 A 
ENDBRANCH  19  21
ENDBRANCH  18  19
ENDBRANCH  17  18
ENDBRANCH   5  17
BRANCH   4  27
ATOM     27  O   UNL     1      85.642  52.470  42.227  0.00  0.00    -0.451 OA
BRANCH  27  28
ATOM     28  C   UNL     1      86.456  53.610  42.285  0.00  0.00    +0.340 C 
ATOM     29  O   UNL     1      87.625  53.583  41.810  0.00  0.00    -0.245 OA
BRANCH  28  30
ATOM     30  C   UNL     1      85.944  54.843  42.922  0.00  0.00    +0.059 A 
ATOM     31  C   UNL     1      86.747  55.557  43.831  0.00  0.00    -0.048 A 
ATOM     32  C   UNL     1      86.261  56.717  44.444  0.00  0.00    -0.061 A 
ATOM     33  C   UNL     1      84.971  57.173  44.158  0.00  0.00    -0.062 A 
ATOM     34  C   UNL     1      84.165  56.472  43.258  0.00  0.00    -0.061 A 
ATOM     35  C   UNL     1      84.646  55.312  42.642  0.00  0.00    -0.048 A 
ENDBRANCH  28  30
ENDBRANCH  27  28
ENDBRANCH   4  27
TORSDOF 12
ENDMDL
MODEL 2
REMARK VINA RESULT:    -9.350      2.452      7.286
REMARK INTER + INTRA:         -17.571
REMARK INTER:                 -15.652
REMARK INTRA:                  -1.919
REMARK UNBOUND:                -1.936
REMARK  Name = 
REMARK  14 active torsions:
REMARK  status: ('A' for Active; 'I' for Inactive)
REMARK    1  A    between atoms: C_1  and  C_2
REMARK    2  A    between atoms: C_2  and  O_4
REMARK    3  A    between atoms: O_4  and  C_5
REMARK    4  A    between atoms: C_8  and  O_26
REMARK    5  A    between atoms: C_9  and  O_15
REMARK    6  A    between atoms: C_9  and  C_16
REMARK    7  A    between atoms: C_10  and  O_11
REMARK    8  A    between atoms: O_11  and  C_12
REMARK    9  A    between atoms: C_12  and  C_14
REMARK   10  A    between atoms: C_16  and  O_17
REMARK   11  A    between atoms: O_17  and  C_18
REMARK   12  A    between atoms: C_18  and  C_20
REMARK   13  A    between atoms: O_26  and  C_27
REMARK   14  A    between atoms: C_27  and  C_29
REMARK                            x       y       z     vdW  Elec       q    Type
REMARK                         _______ _______ _______ _____ _____    ______ ____
ROOT
ATOM      1  C   UNL     1      85.362  52.954  45.085  0.00  0.00    +0.161 C 
ATOM      2  C   UNL     1      86.590  52.295  45.652  0.00  0.00    -0.041 C 
ATOM      3  C   UNL     1      87.455  51.693  44.829  0.00  0.00    -0.041 C 
ATOM      4  C   UNL     1      87.127  51.521  43.365  0.00  0.00    +0.157 C 
ATOM      5  C   UNL     1      86.392  52.774  42.730  0.00  0.00    +0.181 C 
ATOM      6  C   UNL     1      85.780  53.731  43.828  0.00  0.00    +0.179 C 
ENDROOT
BRANCH   5   7
ATOM      7  O   UNL     1      87.310  53.514  41.957  0.00  0.00    -0.378 OA
ATOM      8  H   UNL     1      87.774  54.148  42.526  0.00  0.00    +0.000 HD
ENDBRANCH   5   7
BRANCH   1   9
ATOM      9  O   UNL     1      84.800  53.857  46.038  0.00  0.00    -0.453 OA
BRANCH   9  11
ATOM     10  C   UNL     1      86.281  55.726  46.781  0.00  0.00    +0.033 C 
ATOM     11  C   UNL     1      85.547  54.459  47.058  0.00  0.00    +0.305 C 
ATOM     12  O   UNL     1      85.574  53.964  48.218  0.00  0.00    -0.251 OA
ENDBRANCH   9  11
ENDBRANCH   1   9
BRANCH   6  13
ATOM     13  O   UNL     1      84.662  54.483  43.346  0.00  0.00    -0.454 OA
BRANCH  13  14
ATOM     14  C   UNL     1      84.783  55.714  42.690  0.00  0.00    +0.304 C 
ATOM     15  O   UNL     1      85.003  55.768  41.449  0.00  0.00    -0.251 OA
ATOM     16  C   UNL     1      84.723  56.974  43.482  0.00  0.00    +0.033 C 
ENDBRANCH  13  14
ENDBRANCH   6  13
BRANCH   5  17
ATOM     17  C   UNL     1      85.279  52.242  41.779  0.00  0.00    +0.129 C 
BRANCH  17  18
ATOM     18  O   UNL     1      84.374  51.354  42.435  0.00  0.00    -0.458 OA
BRANCH  18  19
ATOM     19  C   UNL     1      82.991  51.338  42.200  0.00  0.00    +0.339 C 
ATOM     20  O   UNL     1      82.452  52.255  41.520  0.00  0.00    -0.245 OA
BRANCH  19  21
ATOM     21  C   UNL     1      82.165  50.243  42.748  0.00  0.00    +0.059 A 
ATOM     22  C   UNL     1      80.763  50.356  42.773  0.00  0.00    -0.048 A 
ATOM     23  C   UNL     1      79.979  49.317  43.282  0.00  0.00    -0.061 A 
ATOM     24  C   UNL     1      80.583  48.159  43.777  0.00  0.00    -0.062 A 
ATOM     25  C   UNL     1      81.975  48.038  43.764  0.00  0.00    -0.061 A 
ATOM     26  C   UNL     1      82.764  49.074  43.254  0.00  0.00    -0.048 A 
ENDBRANCH  19  21
ENDBRANCH  18  19
ENDBRANCH  17  18
ENDBRANCH   5  17
BRANCH   4  27
ATOM     27  O   UNL     1      88.340  51.232  42.664  0.00  0.00    -0.451 OA
BRANCH  27  28
ATOM     28  C   UNL     1      88.507  50.149  41.789  0.00  0.00    +0.340 C 
ATOM     29  O   UNL     1      87.960  50.160  40.652  0.00  0.00    -0.245 OA
BRANCH  28  30
ATOM     30  C   UNL     1      89.313  48.983  42.212  0.00  0.00    +0.059 A 
ATOM     31  C   UNL     1      90.447  49.163  43.026  0.00  0.00    -0.048 A 
ATOM     32  C   UNL     1      91.219  48.064  43.417  0.00  0.00    -0.061 A 
ATOM     33  C   UNL     1      90.866  46.777  43.002  0.00  0.00    -0.062 A 
ATOM     34  C   UNL     1      89.742  46.586  42.194  0.00  0.00    -0.061 A 
ATOM     35  C   UNL     1      88.968  47.682  41.799  0.00  0.00    -0.048 A 
ENDBRANCH  28  30
ENDBRANCH  27  28
ENDBRANCH   4  27
TORSDOF 12
ENDMDL
MODEL 3
REMARK VINA RESULT:    -9.321      2.762      7.633
REMARK INTER + INTRA:         -17.523
REMARK INTER:                 -15.576
REMARK INTRA:                  -1.948
REMARK UNBOUND:                -1.936
REMARK  Name = 
REMARK  14 active torsions:
REMARK  status: ('A' for Active; 'I' for Inactive)
REMARK    1  A    between atoms: C_1  and  C_2
REMARK    2  A    between atoms: C_2  and  O_4
REMARK    3  A    between atoms: O_4  and  C_5
REMARK    4  A    between atoms: C_8  and  O_26
REMARK    5  A    between atoms: C_9  and  O_15
REMARK    6  A    between atoms: C_9  and  C_16
REMARK    7  A    between atoms: C_10  and  O_11
REMARK    8  A    between atoms: O_11  and  C_12
REMARK    9  A    between atoms: C_12  and  C_14
REMARK   10  A    between atoms: C_16  and  O_17
REMARK   11  A    between atoms: O_17  and  C_18
REMARK   12  A    between atoms: C_18  and  C_20
REMARK   13  A    between atoms: O_26  and  C_27
REMARK   14  A    between atoms: C_27  and  C_29
REMARK                            x       y       z     vdW  Elec       q    Type
REMARK                         _______ _______ _______ _____ _____    ______ ____
ROOT
ATOM      1  C   UNL     1      83.912  53.343  41.136  0.00  0.00    +0.161 C 
ATOM      2  C   UNL     1      82.613  52.587  41.217  0.00  0.00    -0.041 C 
ATOM      3  C   UNL     1      82.496  51.566  42.071  0.00  0.00    -0.041 C 
ATOM      4  C   UNL     1      83.700  51.058  42.829  0.00  0.00    +0.157 C 
ATOM      5  C   UNL     1      84.667  52.212  43.325  0.00  0.00    +0.181 C 
ATOM      6  C   UNL     1      84.412  53.576  42.570  0.00  0.00    +0.179 C 
ENDROOT
BRANCH   5   7
ATOM      7  O   UNL     1      84.473  52.425  44.705  0.00  0.00    -0.378 OA
ATOM      8  H   UNL     1      85.145  53.042  45.035  0.00  0.00    +0.000 HD
ENDBRANCH   5   7
BRANCH   1   9
ATOM      9  O   UNL     1      83.713  54.601  40.491  0.00  0.00    -0.453 OA
BRANCH   9  11
ATOM     10  C   UNL     1      83.536  55.809  38.312  0.00  0.00    +0.033 C 
ATOM     11  C   UNL     1      84.282  54.927  39.254  0.00  0.00    +0.305 C 
ATOM     12  O   UNL     1      85.433  54.517  38.942  0.00  0.00    -0.251 OA
ENDBRANCH   9  11
ENDBRANCH   1   9
BRANCH   6  13
ATOM     13  O   UNL     1      85.572  54.413  42.533  0.00  0.00    -0.454 OA
BRANCH  13  14
ATOM     14  C   UNL     1      85.653  55.652  43.181  0.00  0.00    +0.304 C 
ATOM     15  O   UNL     1      85.020  56.653  42.747  0.00  0.00    -0.251 OA
ATOM     16  C   UNL     1      86.557  55.806  44.355  0.00  0.00    +0.033 C 
ENDBRANCH  13  14
ENDBRANCH   6  13
BRANCH   5  17
ATOM     17  C   UNL     1      86.133  51.729  43.114  0.00  0.00    +0.129 C 
BRANCH  17  18
ATOM     18  O   UNL     1      86.261  50.828  42.013  0.00  0.00    -0.458 OA
BRANCH  18  19
ATOM     19  C   UNL     1      87.412  50.729  41.218  0.00  0.00    +0.339 C 
ATOM     20  O   UNL     1      87.638  51.584  40.316  0.00  0.00    -0.245 OA
BRANCH  19  21
ATOM     21  C   UNL     1      88.366  49.622  41.441  0.00  0.00    +0.059 A 
ATOM     22  C   UNL     1      89.735  49.891  41.617  0.00  0.00    -0.048 A 
ATOM     23  C   UNL     1      90.638  48.846  41.837  0.00  0.00    -0.061 A 
ATOM     24  C   UNL     1      90.186  47.525  41.877  0.00  0.00    -0.062 A 
ATOM     25  C   UNL     1      88.829  47.246  41.697  0.00  0.00    -0.061 A 
ATOM     26  C   UNL     1      87.921  48.287  41.478  0.00  0.00    -0.048 A 
ENDBRANCH  19  21
ENDBRANCH  18  19
ENDBRANCH  17  18
ENDBRANCH   5  17
BRANCH   4  27
ATOM     27  O   UNL     1      83.238  50.271  43.930  0.00  0.00    -0.451 OA
BRANCH  27  28
ATOM     28  C   UNL     1      83.184  48.870  43.930  0.00  0.00    +0.340 C 
ATOM     29  O   UNL     1      84.248  48.191  43.956  0.00  0.00    -0.245 OA
BRANCH  28  30
ATOM     30  C   UNL     1      81.872  48.188  43.881  0.00  0.00    +0.059 A 
ATOM     31  C   UNL     1      80.683  48.928  44.014  0.00  0.00    -0.048 A 
ATOM     32  C   UNL     1      79.441  48.285  43.980  0.00  0.00    -0.061 A 
ATOM     33  C   UNL     1      79.374  46.899  43.815  0.00  0.00    -0.062 A 
ATOM     34  C   UNL     1      80.549  46.153  43.682  0.00  0.00    -0.061 A 
ATOM     35  C   UNL     1      81.792  46.792  43.715  0.00  0.00    -0.048 A 
ENDBRANCH  28  30
ENDBRANCH  27  28
ENDBRANCH   4  27
TORSDOF 12
ENDMDL
MODEL 4
REMARK VINA RESULT:    -9.255      2.115      5.262
REMARK INTER + INTRA:         -17.413
REMARK INTER:                 -14.995
REMARK INTRA:                  -2.418
REMARK UNBOUND:                -1.936
REMARK  Name = 
REMARK  14 active torsions:
REMARK  status: ('A' for Active; 'I' for Inactive)
REMARK    1  A    between atoms: C_1  and  C_2
REMARK    2  A    between atoms: C_2  and  O_4
REMARK    3  A    between atoms: O_4  and  C_5
REMARK    4  A    between atoms: C_8  and  O_26
REMARK    5  A    between atoms: C_9  and  O_15
REMARK    6  A    between atoms: C_9  and  C_16
REMARK    7  A    between atoms: C_10  and  O_11
REMARK    8  A    between atoms: O_11  and  C_12
REMARK    9  A    between atoms: C_12  and  C_14
REMARK   10  A    between atoms: C_16  and  O_17
REMARK   11  A    between atoms: O_17  and  C_18
REMARK   12  A    between atoms: C_18  and  C_20
REMARK   13  A    between atoms: O_26  and  C_27
REMARK   14  A    between atoms: C_27  and  C_29
REMARK                            x       y       z     vdW  Elec       q    Type
REMARK                         _______ _______ _______ _____ _____    ______ ____
ROOT
ATOM      1  C   UNL     1      87.269  51.185  41.641  0.00  0.00    +0.161 C 
ATOM      2  C   UNL     1      87.417  52.549  42.259  0.00  0.00    -0.041 C 
ATOM      3  C   UNL     1      87.371  52.679  43.589  0.00  0.00    -0.041 C 
ATOM      4  C   UNL     1      87.004  51.503  44.462  0.00  0.00    +0.157 C 
ATOM      5  C   UNL     1      87.623  50.130  43.965  0.00  0.00    +0.181 C 
ATOM      6  C   UNL     1      88.112  50.200  42.465  0.00  0.00    +0.179 C 
ENDROOT
BRANCH   5   7
ATOM      7  O   UNL     1      88.725  49.791  44.777  0.00  0.00    -0.378 OA
ATOM      8  H   UNL     1      88.983  50.561  45.309  0.00  0.00    +0.000 HD
ENDBRANCH   5   7
BRANCH   1   9
ATOM      9  O   UNL     1      87.737  51.200  40.292  0.00  0.00    -0.453 OA
BRANCH   9  11
ATOM     10  C   UNL     1      89.853  52.440  39.819  0.00  0.00    +0.033 C 
ATOM     11  C   UNL     1      88.373  52.304  39.712  0.00  0.00    +0.305 C 
ATOM     12  O   UNL     1      87.713  53.164  39.066  0.00  0.00    -0.251 OA
ENDBRANCH   9  11
ENDBRANCH   1   9
BRANCH   6  13
ATOM     13  O   UNL     1      88.106  48.922  41.820  0.00  0.00    -0.454 OA
BRANCH  13  14
ATOM     14  C   UNL     1      89.232  48.096  41.729  0.00  0.00    +0.304 C 
ATOM     15  O   UNL     1      89.132  46.846  41.868  0.00  0.00    -0.251 OA
ATOM     16  C   UNL     1      90.576  48.710  41.539  0.00  0.00    +0.033 C 
ENDBRANCH  13  14
ENDBRANCH   6  13
BRANCH   5  17
ATOM     17  C   UNL     1      86.537  49.026  44.141  0.00  0.00    +0.129 C 
BRANCH  17  18
ATOM     18  O   UNL     1      85.266  49.561  44.514  0.00  0.00    -0.458 OA
BRANCH  18  19
ATOM     19  C   UNL     1      84.056  49.180  43.916  0.00  0.00    +0.339 C 
ATOM     20  O   UNL     1      83.658  47.984  43.994  0.00  0.00    -0.245 OA
BRANCH  19  21
ATOM     21  C   UNL     1      83.243  50.183  43.198  0.00  0.00    +0.059 A 
ATOM     22  C   UNL     1      83.800  51.425  42.844  0.00  0.00    -0.048 A 
ATOM     23  C   UNL     1      83.035  52.372  42.156  0.00  0.00    -0.061 A 
ATOM     24  C   UNL     1      81.708  52.094  41.821  0.00  0.00    -0.062 A 
ATOM     25  C   UNL     1      81.142  50.866  42.174  0.00  0.00    -0.061 A 
ATOM     26  C   UNL     1      81.903  49.914  42.860  0.00  0.00    -0.048 A 
ENDBRANCH  19  21
ENDBRANCH  18  19
ENDBRANCH  17  18
ENDBRANCH   5  17
BRANCH   4  27
ATOM     27  O   UNL     1      87.415  51.792  45.801  0.00  0.00    -0.451 OA
BRANCH  27  28
ATOM     28  C   UNL     1      86.585  51.672  46.924  0.00  0.00    +0.340 C 
ATOM     29  O   UNL     1      86.460  50.560  47.508  0.00  0.00    -0.245 OA
BRANCH  28  30
ATOM     30  C   UNL     1      85.840  52.853  47.414  0.00  0.00    +0.059 A 
ATOM     31  C   UNL     1      85.055  52.763  48.578  0.00  0.00    -0.048 A 
ATOM     32  C   UNL     1      84.340  53.875  49.037  0.00  0.00    -0.061 A 
ATOM     33  C   UNL     1      84.401  55.084  48.339  0.00  0.00    -0.062 A 
ATOM     34  C   UNL     1      85.178  55.184  47.181  0.00  0.00    -0.061 A 
ATOM     35  C   UNL     1      85.894  54.076  46.719  0.00  0.00    -0.048 A 
ENDBRANCH  28  30
ENDBRANCH  27  28
ENDBRANCH   4  27
TORSDOF 12
ENDMDL
MODEL 5
REMARK VINA RESULT:    -9.229      1.748      2.516
REMARK INTER + INTRA:         -17.368
REMARK INTER:                 -13.592
REMARK INTRA:                  -3.777
REMARK UNBOUND:                -1.936
REMARK  Name = 
REMARK  14 active torsions:
REMARK  status: ('A' for Active; 'I' for Inactive)
REMARK    1  A    between atoms: C_1  and  C_2
REMARK    2  A    between atoms: C_2  and  O_4
REMARK    3  A    between atoms: O_4  and  C_5
REMARK    4  A    between atoms: C_8  and  O_26
REMARK    5  A    between atoms: C_9  and  O_15
REMARK    6  A    between atoms: C_9  and  C_16
REMARK    7  A    between atoms: C_10  and  O_11
REMARK    8  A    between atoms: O_11  and  C_12
REMARK    9  A    between atoms: C_12  and  C_14
REMARK   10  A    between atoms: C_16  and  O_17
REMARK   11  A    between atoms: O_17  and  C_18
REMARK   12  A    between atoms: C_18  and  C_20
REMARK   13  A    between atoms: O_26  and  C_27
REMARK   14  A    between atoms: C_27  and  C_29
REMARK                            x       y       z     vdW  Elec       q    Type
REMARK                         _______ _______ _______ _____ _____    ______ ____
ROOT
ATOM      1  C   UNL     1      82.832  49.077  43.902  0.00  0.00    +0.161 C 
ATOM      2  C   UNL     1      82.300  50.078  42.913  0.00  0.00    -0.041 C 
ATOM      3  C   UNL     1      83.079  51.087  42.511  0.00  0.00    -0.041 C 
ATOM      4  C   UNL     1      84.418  51.329  43.165  0.00  0.00    +0.157 C 
ATOM      5  C   UNL     1      85.207  49.995  43.503  0.00  0.00    +0.181 C 
ATOM      6  C   UNL     1      84.269  48.724  43.490  0.00  0.00    +0.179 C 
ENDROOT
BRANCH   5   7
ATOM      7  O   UNL     1      86.231  49.803  42.553  0.00  0.00    -0.378 OA
ATOM      8  H   UNL     1      86.340  48.854  42.383  0.00  0.00    +0.000 HD
ENDBRANCH   5   7
BRANCH   1   9
ATOM      9  O   UNL     1      82.030  47.896  43.892  0.00  0.00    -0.453 OA
BRANCH   9  11
ATOM     10  C   UNL     1      79.772  46.843  43.722  0.00  0.00    +0.033 C 
ATOM     11  C   UNL     1      80.686  47.876  44.284  0.00  0.00    +0.305 C 
ATOM     12  O   UNL     1      80.249  48.698  45.136  0.00  0.00    -0.251 OA
ENDBRANCH   9  11
ENDBRANCH   1   9
BRANCH   6  13
ATOM     13  O   UNL     1      84.754  47.670  44.328  0.00  0.00    -0.454 OA
BRANCH  13  14
ATOM     14  C   UNL     1      85.500  46.585  43.854  0.00  0.00    +0.304 C 
ATOM     15  O   UNL     1      86.428  46.752  43.017  0.00  0.00    -0.251 OA
ATOM     16  C   UNL     1      85.142  45.205  44.289  0.00  0.00    +0.033 C 
ENDBRANCH  13  14
ENDBRANCH   6  13
BRANCH   5  17
ATOM     17  C   UNL     1      85.873  50.176  44.900  0.00  0.00    +0.129 C 
BRANCH  17  18
ATOM     18  O   UNL     1      85.334  51.282  45.626  0.00  0.00    -0.458 OA
BRANCH  18  19
ATOM     19  C   UNL     1      86.116  52.180  46.368  0.00  0.00    +0.339 C 
ATOM     20  O   UNL     1      87.265  51.843  46.766  0.00  0.00    -0.245 OA
BRANCH  19  21
ATOM     21  C   UNL     1      85.592  53.526  46.679  0.00  0.00    +0.059 A 
ATOM     22  C   UNL     1      86.473  54.571  47.011  0.00  0.00    -0.048 A 
ATOM     23  C   UNL     1      85.981  55.847  47.297  0.00  0.00    -0.061 A 
ATOM     24  C   UNL     1      84.606  56.093  47.262  0.00  0.00    -0.062 A 
ATOM     25  C   UNL     1      83.721  55.062  46.941  0.00  0.00    -0.061 A 
ATOM     26  C   UNL     1      84.208  53.783  46.652  0.00  0.00    -0.048 A 
ENDBRANCH  19  21
ENDBRANCH  18  19
ENDBRANCH  17  18
ENDBRANCH   5  17
BRANCH   4  27
ATOM     27  O   UNL     1      85.190  52.175  42.308  0.00  0.00    -0.451 OA
BRANCH  27  28
ATOM     28  C   UNL     1      86.159  53.082  42.760  0.00  0.00    +0.340 C 
ATOM     29  O   UNL     1      87.359  52.716  42.899  0.00  0.00    -0.245 OA
BRANCH  28  30
ATOM     30  C   UNL     1      85.764  54.469  43.091  0.00  0.00    +0.059 A 
ATOM     31  C   UNL     1      84.446  54.905  42.864  0.00  0.00    -0.048 A 
ATOM     32  C   UNL     1      84.073  56.219  43.166  0.00  0.00    -0.061 A 
ATOM     33  C   UNL     1      85.011  57.109  43.694  0.00  0.00    -0.062 A 
ATOM     34  C   UNL     1      86.324  56.688  43.924  0.00  0.00    -0.061 A 
ATOM     35  C   UNL     1      86.701  55.375  43.624  0.00  0.00    -0.048 A 
ENDBRANCH  28  30
ENDBRANCH  27  28
ENDBRANCH   4  27
TORSDOF 12
ENDMDL
MODEL 6
REMARK VINA RESULT:    -9.171      3.014      5.776
REMARK INTER + INTRA:         -17.272
REMARK INTER:                 -15.173
REMARK INTRA:                  -2.098
REMARK UNBOUND:                -1.936
REMARK  Name = 
REMARK  14 active torsions:
REMARK  status: ('A' for Active; 'I' for Inactive)
REMARK    1  A    between atoms: C_1  and  C_2
REMARK    2  A    between atoms: C_2  and  O_4
REMARK    3  A    between atoms: O_4  and  C_5
REMARK    4  A    between atoms: C_8  and  O_26
REMARK    5  A    between atoms: C_9  and  O_15
REMARK    6  A    between atoms: C_9  and  C_16
REMARK    7  A    between atoms: C_10  and  O_11
REMARK    8  A    between atoms: O_11  and  C_12
REMARK    9  A    between atoms: C_12  and  C_14
REMARK   10  A    between atoms: C_16  and  O_17
REMARK   11  A    between atoms: O_17  and  C_18
REMARK   12  A    between atoms: C_18  and  C_20
REMARK   13  A    between atoms: O_26  and  C_27
REMARK   14  A    between atoms: C_27  and  C_29
REMARK                            x       y       z     vdW  Elec       q    Type
REMARK                         _______ _______ _______ _____ _____    ______ ____
ROOT
ATOM      1  C   UNL     1      88.953  50.576  42.077  0.00  0.00    +0.161 C 
ATOM      2  C   UNL     1      87.829  49.589  42.242  0.00  0.00    -0.041 C 
ATOM      3  C   UNL     1      86.581  50.035  42.413  0.00  0.00    -0.041 C 
ATOM      4  C   UNL     1      86.313  51.508  42.612  0.00  0.00    +0.157 C 
ATOM      5  C   UNL     1      87.217  52.443  41.706  0.00  0.00    +0.181 C 
ATOM      6  C   UNL     1      88.474  51.683  41.126  0.00  0.00    +0.179 C 
ENDROOT
BRANCH   5   7
ATOM      7  O   UNL     1      86.452  52.928  40.625  0.00  0.00    -0.378 OA
ATOM      8  H   UNL     1      86.950  53.622  40.164  0.00  0.00    +0.000 HD
ENDBRANCH   5   7
BRANCH   1   9
ATOM      9  O   UNL     1      90.099  49.932  41.519  0.00  0.00    -0.453 OA
BRANCH   9  11
ATOM     10  C   UNL     1      91.283  48.638  43.297  0.00  0.00    +0.033 C 
ATOM     11  C   UNL     1      90.591  48.704  41.979  0.00  0.00    +0.305 C 
ATOM     12  O   UNL     1      90.421  47.648  41.310  0.00  0.00    -0.251 OA
ENDBRANCH   9  11
ENDBRANCH   1   9
BRANCH   6  13
ATOM     13  O   UNL     1      89.567  52.561  40.838  0.00  0.00    -0.454 OA
BRANCH  13  14
ATOM     14  C   UNL     1      89.728  53.221  39.614  0.00  0.00    +0.304 C 
ATOM     15  O   UNL     1      88.825  53.185  38.735  0.00  0.00    -0.251 OA
ATOM     16  C   UNL     1      91.015  53.911  39.319  0.00  0.00    +0.033 C 
ENDBRANCH  13  14
ENDBRANCH   6  13
BRANCH   5  17
ATOM     17  C   UNL     1      87.658  53.662  42.570  0.00  0.00    +0.129 C 
BRANCH  17  18
ATOM     18  O   UNL     1      86.612  54.144  43.415  0.00  0.00    -0.458 OA
BRANCH  18  19
ATOM     19  C   UNL     1      85.815  55.257  43.110  0.00  0.00    +0.339 C 
ATOM     20  O   UNL     1      85.407  55.442  41.929  0.00  0.00    -0.245 OA
BRANCH  19  21
ATOM     21  C   UNL     1      85.448  56.213  44.175  0.00  0.00    +0.059 A 
ATOM     22  C   UNL     1      85.578  57.597  43.961  0.00  0.00    -0.048 A 
ATOM     23  C   UNL     1      85.223  58.504  44.964  0.00  0.00    -0.061 A 
ATOM     24  C   UNL     1      84.743  58.040  46.191  0.00  0.00    -0.062 A 
ATOM     25  C   UNL     1      84.616  56.668  46.417  0.00  0.00    -0.061 A 
ATOM     26  C   UNL     1      84.968  55.756  45.416  0.00  0.00    -0.048 A 
ENDBRANCH  19  21
ENDBRANCH  18  19
ENDBRANCH  17  18
ENDBRANCH   5  17
BRANCH   4  27
ATOM     27  O   UNL     1      84.924  51.749  42.369  0.00  0.00    -0.451 OA
BRANCH  27  28
ATOM     28  C   UNL     1      83.939  51.768  43.366  0.00  0.00    +0.340 C 
ATOM     29  O   UNL     1      84.025  52.577  44.330  0.00  0.00    -0.245 OA
BRANCH  28  30
ATOM     30  C   UNL     1      82.806  50.819  43.294  0.00  0.00    +0.059 A 
ATOM     31  C   UNL     1      82.884  49.570  43.937  0.00  0.00    -0.048 A 
ATOM     32  C   UNL     1      81.819  48.667  43.860  0.00  0.00    -0.061 A 
ATOM     33  C   UNL     1      80.667  49.001  43.143  0.00  0.00    -0.062 A 
ATOM     34  C   UNL     1      80.578  50.239  42.500  0.00  0.00    -0.061 A 
ATOM     35  C   UNL     1      81.640  51.145  42.574  0.00  0.00    -0.048 A 
ENDBRANCH  28  30
ENDBRANCH  27  28
ENDBRANCH   4  27
TORSDOF 12
ENDMDL
MODEL 7
REMARK VINA RESULT:    -9.109      2.253      5.478
REMARK INTER + INTRA:         -17.168
REMARK INTER:                 -15.240
REMARK INTRA:                  -1.928
REMARK UNBOUND:                -1.936
REMARK  Name = 
REMARK  14 active torsions:
REMARK  status: ('A' for Active; 'I' for Inactive)
REMARK    1  A    between atoms: C_1  and  C_2
REMARK    2  A    between atoms: C_2  and  O_4
REMARK    3  A    between atoms: O_4  and  C_5
REMARK    4  A    between atoms: C_8  and  O_26
REMARK    5  A    between atoms: C_9  and  O_15
REMARK    6  A    between atoms: C_9  and  C_16
REMARK    7  A    between atoms: C_10  and  O_11
REMARK    8  A    between atoms: O_11  and  C_12
REMARK    9  A    between atoms: C_12  and  C_14
REMARK   10  A    between atoms: C_16  and  O_17
REMARK   11  A    between atoms: O_17  and  C_18
REMARK   12  A    between atoms: C_18  and  C_20
REMARK   13  A    between atoms: O_26  and  C_27
REMARK   14  A    between atoms: C_27  and  C_29
REMARK                            x       y       z     vdW  Elec       q    Type
REMARK                         _______ _______ _______ _____ _____    ______ ____
ROOT
ATOM      1  C   UNL     1      87.747  47.947  42.073  0.00  0.00    +0.161 C 
ATOM      2  C   UNL     1      88.942  48.676  42.623  0.00  0.00    -0.041 C 
ATOM      3  C   UNL     1      88.763  49.675  43.492  0.00  0.00    -0.041 C 
ATOM      4  C   UNL     1      87.376  50.189  43.795  0.00  0.00    +0.157 C 
ATOM      5  C   UNL     1      86.284  49.043  43.890  0.00  0.00    +0.181 C 
ATOM      6  C   UNL     1      86.774  47.692  43.234  0.00  0.00    +0.179 C 
ENDROOT
BRANCH   5   7
ATOM      7  O   UNL     1      85.981  48.796  45.245  0.00  0.00    -0.378 OA
ATOM      8  H   UNL     1      86.591  49.297  45.809  0.00  0.00    +0.000 HD
ENDBRANCH   5   7
BRANCH   1   9
ATOM      9  O   UNL     1      88.146  46.700  41.504  0.00  0.00    -0.453 OA
BRANCH   9  11
ATOM     10  C   UNL     1      88.544  44.557  42.723  0.00  0.00    +0.033 C 
ATOM     11  C   UNL     1      89.046  45.825  42.124  0.00  0.00    +0.305 C 
ATOM     12  O   UNL     1      90.281  46.079  42.148  0.00  0.00    -0.251 OA
ENDBRANCH   9  11
ENDBRANCH   1   9
BRANCH   6  13
ATOM     13  O   UNL     1      85.692  46.877  42.771  0.00  0.00    -0.454 OA
BRANCH  13  14
ATOM     14  C   UNL     1      85.157  45.812  43.505  0.00  0.00    +0.304 C 
ATOM     15  O   UNL     1      85.032  45.885  44.758  0.00  0.00    -0.251 OA
ATOM     16  C   UNL     1      84.799  44.547  42.803  0.00  0.00    +0.033 C 
ENDBRANCH  13  14
ENDBRANCH   6  13
BRANCH   5  17
ATOM     17  C   UNL     1      84.990  49.558  43.192  0.00  0.00    +0.129 C 
BRANCH  17  18
ATOM     18  O   UNL     1      83.847  49.508  44.048  0.00  0.00    -0.458 OA
BRANCH  18  19
ATOM     19  C   UNL     1      82.532  49.706  43.602  0.00  0.00    +0.339 C 
ATOM     20  O   UNL     1      82.200  50.803  43.071  0.00  0.00    -0.245 OA
BRANCH  19  21
ATOM     21  C   UNL     1      81.535  48.626  43.750  0.00  0.00    +0.059 A 
ATOM     22  C   UNL     1      81.910  47.284  43.558  0.00  0.00    -0.048 A 
ATOM     23  C   UNL     1      80.971  46.259  43.707  0.00  0.00    -0.061 A 
ATOM     24  C   UNL     1      79.649  46.562  44.042  0.00  0.00    -0.062 A 
ATOM     25  C   UNL     1      79.264  47.892  44.228  0.00  0.00    -0.061 A 
ATOM     26  C   UNL     1      80.200  48.921  44.083  0.00  0.00    -0.048 A 
ENDBRANCH  19  21
ENDBRANCH  18  19
ENDBRANCH  17  18
ENDBRANCH   5  17
BRANCH   4  27
ATOM     27  O   UNL     1      87.431  50.943  45.009  0.00  0.00    -0.451 OA
BRANCH  27  28
ATOM     28  C   UNL     1      86.938  52.248  45.150  0.00  0.00    +0.340 C 
ATOM     29  O   UNL     1      86.938  53.039  44.168  0.00  0.00    -0.245 OA
BRANCH  28  30
ATOM     30  C   UNL     1      86.432  52.701  46.465  0.00  0.00    +0.059 A 
ATOM     31  C   UNL     1      86.304  51.787  47.528  0.00  0.00    -0.048 A 
ATOM     32  C   UNL     1      85.815  52.210  48.769  0.00  0.00    -0.061 A 
ATOM     33  C   UNL     1      85.450  53.545  48.960  0.00  0.00    -0.062 A 
ATOM     34  C   UNL     1      85.573  54.461  47.912  0.00  0.00    -0.061 A 
ATOM     35  C   UNL     1      86.061  54.044  46.670  0.00  0.00    -0.048 A 
ENDBRANCH  28  30
ENDBRANCH  27  28
ENDBRANCH   4  27
TORSDOF 12
ENDMDL
MODEL 8
REMARK VINA RESULT:    -8.996      2.466      6.382
REMARK INTER + INTRA:         -16.979
REMARK INTER:                 -14.950
REMARK INTRA:                  -2.029
REMARK UNBOUND:                -1.936
REMARK  Name = 
REMARK  14 active torsions:
REMARK  status: ('A' for Active; 'I' for Inactive)
REMARK    1  A    between atoms: C_1  and  C_2
REMARK    2  A    between atoms: C_2  and  O_4
REMARK    3  A    between atoms: O_4  and  C_5
REMARK    4  A    between atoms: C_8  and  O_26
REMARK    5  A    between atoms: C_9  and  O_15
REMARK    6  A    between atoms: C_9  and  C_16
REMARK    7  A    between atoms: C_10  and  O_11
REMARK    8  A    between atoms: O_11  and  C_12
REMARK    9  A    between atoms: C_12  and  C_14
REMARK   10  A    between atoms: C_16  and  O_17
REMARK   11  A    between atoms: O_17  and  C_18
REMARK   12  A    between atoms: C_18  and  C_20
REMARK   13  A    between atoms: O_26  and  C_27
REMARK   14  A    between atoms: C_27  and  C_29
REMARK                            x       y       z     vdW  Elec       q    Type
REMARK                         _______ _______ _______ _____ _____    ______ ____
ROOT
ATOM      1  C   UNL     1      84.828  54.042  40.502  0.00  0.00    +0.161 C 
ATOM      2  C   UNL     1      84.415  55.275  41.260  0.00  0.00    -0.041 C 
ATOM      3  C   UNL     1      84.757  55.403  42.546  0.00  0.00    -0.041 C 
ATOM      4  C   UNL     1      85.400  54.255  43.287  0.00  0.00    +0.157 C 
ATOM      5  C   UNL     1      86.450  53.449  42.414  0.00  0.00    +0.181 C 
ATOM      6  C   UNL     1      86.286  53.729  40.868  0.00  0.00    +0.179 C 
ENDROOT
BRANCH   5   7
ATOM      7  O   UNL     1      87.757  53.816  42.797  0.00  0.00    -0.378 OA
ATOM      8  H   UNL     1      88.280  54.017  42.006  0.00  0.00    +0.000 HD
ENDBRANCH   5   7
BRANCH   1   9
ATOM      9  O   UNL     1      84.728  54.270  39.096  0.00  0.00    -0.453 OA
BRANCH   9  11
ATOM     10  C   UNL     1      83.002  55.828  38.186  0.00  0.00    +0.033 C 
ATOM     11  C   UNL     1      84.415  55.516  38.540  0.00  0.00    +0.305 C 
ATOM     12  O   UNL     1      85.308  56.391  38.371  0.00  0.00    -0.251 OA
ENDBRANCH   9  11
ENDBRANCH   1   9
BRANCH   6  13
ATOM     13  O   UNL     1      86.752  52.646  40.057  0.00  0.00    -0.454 OA
BRANCH  13  14
ATOM     14  C   UNL     1      88.068  52.539  39.590  0.00  0.00    +0.304 C 
ATOM     15  O   UNL     1      88.489  53.283  38.663  0.00  0.00    -0.251 OA
ATOM     16  C   UNL     1      88.958  51.482  40.147  0.00  0.00    +0.033 C 
ENDBRANCH  13  14
ENDBRANCH   6  13
BRANCH   5  17
ATOM     17  C   UNL     1      86.264  51.934  42.724  0.00  0.00    +0.129 C 
BRANCH  17  18
ATOM     18  O   UNL     1      87.390  51.368  43.395  0.00  0.00    -0.458 OA
BRANCH  18  19
ATOM     19  C   UNL     1      87.494  50.010  43.733  0.00  0.00    +0.339 C 
ATOM     20  O   UNL     1      86.795  49.533  44.670  0.00  0.00    -0.245 OA
BRANCH  19  21
ATOM     21  C   UNL     1      88.421  49.136  42.986  0.00  0.00    +0.059 A 
ATOM     22  C   UNL     1      89.811  49.327  43.085  0.00  0.00    -0.048 A 
ATOM     23  C   UNL     1      90.691  48.495  42.386  0.00  0.00    -0.061 A 
ATOM     24  C   UNL     1      90.195  47.470  41.577  0.00  0.00    -0.062 A 
ATOM     25  C   UNL     1      88.816  47.276  41.465  0.00  0.00    -0.061 A 
ATOM     26  C   UNL     1      87.931  48.104  42.164  0.00  0.00    -0.048 A 
ENDBRANCH  19  21
ENDBRANCH  18  19
ENDBRANCH  17  18
ENDBRANCH   5  17
BRANCH   4  27
ATOM     27  O   UNL     1      86.011  54.772  44.472  0.00  0.00    -0.451 OA
BRANCH  27  28
ATOM     28  C   UNL     1      85.358  54.898  45.706  0.00  0.00    +0.340 C 
ATOM     29  O   UNL     1      84.643  55.910  45.949  0.00  0.00    -0.245 OA
BRANCH  28  30
ATOM     30  C   UNL     1      85.526  53.847  46.734  0.00  0.00    +0.059 A 
ATOM     31  C   UNL     1      84.890  53.969  47.983  0.00  0.00    -0.048 A 
ATOM     32  C   UNL     1      85.056  52.982  48.961  0.00  0.00    -0.061 A 
ATOM     33  C   UNL     1      85.857  51.867  48.702  0.00  0.00    -0.062 A 
ATOM     34  C   UNL     1      86.494  51.735  47.464  0.00  0.00    -0.061 A 
ATOM     35  C   UNL     1      86.331  52.718  46.484  0.00  0.00    -0.048 A 
ENDBRANCH  28  30
ENDBRANCH  27  28
ENDBRANCH   4  27
TORSDOF 12
ENDMDL
MODEL 9
REMARK VINA RESULT:    -8.849      2.384      5.511
REMARK INTER + INTRA:         -16.733
REMARK INTER:                 -14.798
REMARK INTRA:                  -1.936
REMARK UNBOUND:                -1.936
REMARK  Name = 
REMARK  14 active torsions:
REMARK  status: ('A' for Active; 'I' for Inactive)
REMARK    1  A    between atoms: C_1  and  C_2
REMARK    2  A    between atoms: C_2  and  O_4
REMARK    3  A    between atoms: O_4  and  C_5
REMARK    4  A    between atoms: C_8  and  O_26
REMARK    5  A    between atoms: C_9  and  O_15
REMARK    6  A    between atoms: C_9  and  C_16
REMARK    7  A    between atoms: C_10  and  O_11
REMARK    8  A    between atoms: O_11  and  C_12
REMARK    9  A    between atoms: C_12  and  C_14
REMARK   10  A    between atoms: C_16  and  O_17
REMARK   11  A    between atoms: O_17  and  C_18
REMARK   12  A    between atoms: C_18  and  C_20
REMARK   13  A    between atoms: O_26  and  C_27
REMARK   14  A    between atoms: C_27  and  C_29
REMARK                            x       y       z     vdW  Elec       q    Type
REMARK                         _______ _______ _______ _____ _____    ______ ____
ROOT
ATOM      1  C   UNL     1      88.928  50.315  42.497  0.00  0.00    +0.161 C 
ATOM      2  C   UNL     1      87.962  49.181  42.707  0.00  0.00    -0.041 C 
ATOM      3  C   UNL     1      86.659  49.442  42.850  0.00  0.00    -0.041 C 
ATOM      4  C   UNL     1      86.171  50.866  42.974  0.00  0.00    +0.157 C 
ATOM      5  C   UNL     1      86.935  51.880  42.025  0.00  0.00    +0.181 C 
ATOM      6  C   UNL     1      88.299  51.290  41.489  0.00  0.00    +0.179 C 
ENDROOT
BRANCH   5   7
ATOM      7  O   UNL     1      86.120  52.191  40.918  0.00  0.00    -0.378 OA
ATOM      8  H   UNL     1      85.376  51.569  40.879  0.00  0.00    +0.000 HD
ENDBRANCH   5   7
BRANCH   1   9
ATOM      9  O   UNL     1      90.163  49.824  41.976  0.00  0.00    -0.453 OA
BRANCH   9  11
ATOM     10  C   UNL     1      91.502  48.488  43.608  0.00  0.00    +0.033 C 
ATOM     11  C   UNL     1      90.716  48.592  42.346  0.00  0.00    +0.305 C 
ATOM     12  O   UNL     1      90.526  47.561  41.644  0.00  0.00    -0.251 OA
ENDBRANCH   9  11
ENDBRANCH   1   9
BRANCH   6  13
ATOM     13  O   UNL     1      89.251  52.306  41.161  0.00  0.00    -0.454 OA
BRANCH  13  14
ATOM     14  C   UNL     1      89.715  52.542  39.861  0.00  0.00    +0.304 C 
ATOM     15  O   UNL     1      89.343  51.817  38.899  0.00  0.00    -0.251 OA
ATOM     16  C   UNL     1      90.718  53.619  39.627  0.00  0.00    +0.033 C 
ENDBRANCH  13  14
ENDBRANCH   6  13
BRANCH   5  17
ATOM     17  C   UNL     1      87.179  53.193  42.828  0.00  0.00    +0.129 C 
BRANCH  17  18
ATOM     18  O   UNL     1      86.180  53.422  43.823  0.00  0.00    -0.458 OA
BRANCH  18  19
ATOM     19  C   UNL     1      86.457  53.925  45.103  0.00  0.00    +0.339 C 
ATOM     20  O   UNL     1      86.712  55.151  45.262  0.00  0.00    -0.245 OA
BRANCH  19  21
ATOM     21  C   UNL     1      86.445  53.016  46.268  0.00  0.00    +0.059 A 
ATOM     22  C   UNL     1      87.129  51.788  46.216  0.00  0.00    -0.048 A 
ATOM     23  C   UNL     1      87.127  50.931  47.321  0.00  0.00    -0.061 A 
ATOM     24  C   UNL     1      86.438  51.286  48.483  0.00  0.00    -0.062 A 
ATOM     25  C   UNL     1      85.750  52.500  48.543  0.00  0.00    -0.061 A 
ATOM     26  C   UNL     1      85.750  53.362  47.442  0.00  0.00    -0.048 A 
ENDBRANCH  19  21
ENDBRANCH  18  19
ENDBRANCH  17  18
ENDBRANCH   5  17
BRANCH   4  27
ATOM     27  O   UNL     1      84.765  50.883  42.713  0.00  0.00    -0.451 OA
BRANCH  27  28
ATOM     28  C   UNL     1      83.778  50.721  43.695  0.00  0.00    +0.340 C 
ATOM     29  O   UNL     1      83.700  51.530  44.660  0.00  0.00    -0.245 OA
BRANCH  28  30
ATOM     30  C   UNL     1      82.837  49.582  43.606  0.00  0.00    +0.059 A 
ATOM     31  C   UNL     1      81.452  49.813  43.516  0.00  0.00    -0.048 A 
ATOM     32  C   UNL     1      80.559  48.738  43.443  0.00  0.00    -0.061 A 
ATOM     33  C   UNL     1      81.039  47.426  43.460  0.00  0.00    -0.062 A 
ATOM     34  C   UNL     1      82.413  47.185  43.549  0.00  0.00    -0.061 A 
ATOM     35  C   UNL     1      83.310  48.255  43.622  0.00  0.00    -0.048 A 
ENDBRANCH  28  30
ENDBRANCH  27  28
ENDBRANCH   4  27
TORSDOF 12
ENDMDL
