MODEL 1
REMARK VINA RESULT:    -7.877      0.000      0.000
REMARK INTER + INTRA:         -13.415
REMARK INTER:                 -11.794
REMARK INTRA:                  -1.621
REMARK UNBOUND:                -1.393
REMARK  Name = 
REMARK  12 active torsions:
REMARK  status: ('A' for Active; 'I' for Inactive)
REMARK    1  A    between atoms: C_1  and  C_2
REMARK    2  A    between atoms: C_2  and  O_4
REMARK    3  A    between atoms: O_4  and  C_5
REMARK    4  A    between atoms: C_8  and  O_23
REMARK    5  A    between atoms: C_9  and  O_22
REMARK    6  A    between atoms: C_10  and  O_11
REMARK    7  A    between atoms: C_10  and  C_12
REMARK    8  A    between atoms: C_12  and  O_13
REMARK    9  A    between atoms: O_13  and  C_14
REMARK   10  A    between atoms: C_14  and  C_16
REMARK   11  A    between atoms: O_23  and  C_24
REMARK   12  A    between atoms: C_24  and  C_26
REMARK                            x       y       z     vdW  Elec       q    Type
REMARK                         _______ _______ _______ _____ _____    ______ ____
ROOT
ATOM      1  C   UNL     1      88.483  52.025  40.957  0.00  0.00    +0.156 C 
ATOM      2  C   UNL     1      89.050  51.072  41.981  0.00  0.00    -0.041 C 
ATOM      3  C   UNL     1      88.280  50.350  42.813  0.00  0.00    -0.042 C 
ATOM      4  C   UNL     1      86.788  50.545  42.954  0.00  0.00    +0.150 C 
ATOM      5  C   UNL     1      86.193  51.383  41.789  0.00  0.00    +0.131 C 
ATOM      6  C   UNL     1      87.097  52.594  41.391  0.00  0.00    +0.170 C 
ENDROOT
BRANCH   6   7
ATOM      7  O   UNL     1      86.512  53.277  40.306  0.00  0.00    -0.379 OA
ATOM      8  H   UNL     1      86.993  54.105  40.148  0.00  0.00    +0.000 HD
ENDBRANCH   6   7
BRANCH   5   9
ATOM      9  O   UNL     1      84.868  51.785  42.042  0.00  0.00    -0.385 OA
ATOM     10  H   UNL     1      84.681  52.607  41.561  0.00  0.00    +0.000 HD
ENDBRANCH   5   9
BRANCH   1  11
ATOM     11  O   UNL     1      89.431  53.073  40.734  0.00  0.00    -0.454 OA
BRANCH  11  13
ATOM     12  C   UNL     1      91.281  53.818  39.236  0.00  0.00    +0.033 C 
ATOM     13  C   UNL     1      89.844  53.496  39.466  0.00  0.00    +0.305 C 
ATOM     14  O   UNL     1      89.030  53.554  38.505  0.00  0.00    -0.251 OA
ENDBRANCH  11  13
ENDBRANCH   1  11
BRANCH   6  15
ATOM     15  C   UNL     1      87.277  53.613  42.555  0.00  0.00    +0.128 C 
BRANCH  15  16
ATOM     16  O   UNL     1      86.026  54.043  43.090  0.00  0.00    -0.458 OA
BRANCH  16  17
ATOM     17  C   UNL     1      85.484  55.318  42.886  0.00  0.00    +0.339 C 
ATOM     18  O   UNL     1      85.097  55.667  41.736  0.00  0.00    -0.245 OA
BRANCH  17  19
ATOM     19  C   UNL     1      85.372  56.258  44.024  0.00  0.00    +0.059 A 
ATOM     20  C   UNL     1      85.343  57.645  43.797  0.00  0.00    -0.048 A 
ATOM     21  C   UNL     1      85.242  58.535  44.871  0.00  0.00    -0.061 A 
ATOM     22  C   UNL     1      85.167  58.051  46.178  0.00  0.00    -0.062 A 
ATOM     23  C   UNL     1      85.195  56.675  46.416  0.00  0.00    -0.061 A 
ATOM     24  C   UNL     1      85.297  55.780  45.345  0.00  0.00    -0.048 A 
ENDBRANCH  17  19
ENDBRANCH  16  17
ENDBRANCH  15  16
ENDBRANCH   6  15
BRANCH   4  25
ATOM     25  O   UNL     1      86.175  49.254  42.988  0.00  0.00    -0.455 OA
BRANCH  25  26
ATOM     26  C   UNL     1      85.279  48.840  43.981  0.00  0.00    +0.305 C 
ATOM     27  O   UNL     1      85.677  48.599  45.153  0.00  0.00    -0.251 OA
ATOM     28  C   UNL     1      83.850  48.613  43.627  0.00  0.00    +0.033 C 
ENDBRANCH  25  26
ENDBRANCH   4  25
TORSDOF 10
ENDMDL
MODEL 2
REMARK VINA RESULT:    -7.847      3.083      4.313
REMARK INTER + INTRA:         -13.369
REMARK INTER:                 -11.807
REMARK INTRA:                  -1.562
REMARK UNBOUND:                -1.393
REMARK  Name = 
REMARK  12 active torsions:
REMARK  status: ('A' for Active; 'I' for Inactive)
REMARK    1  A    between atoms: C_1  and  C_2
REMARK    2  A    between atoms: C_2  and  O_4
REMARK    3  A    between atoms: O_4  and  C_5
REMARK    4  A    between atoms: C_8  and  O_23
REMARK    5  A    between atoms: C_9  and  O_22
REMARK    6  A    between atoms: C_10  and  O_11
REMARK    7  A    between atoms: C_10  and  C_12
REMARK    8  A    between atoms: C_12  and  O_13
REMARK    9  A    between atoms: O_13  and  C_14
REMARK   10  A    between atoms: C_14  and  C_16
REMARK   11  A    between atoms: O_23  and  C_24
REMARK   12  A    between atoms: C_24  and  C_26
REMARK                            x       y       z     vdW  Elec       q    Type
REMARK                         _______ _______ _______ _____ _____    ______ ____
ROOT
ATOM      1  C   UNL     1      89.281  50.268  41.358  0.00  0.00    +0.156 C 
ATOM      2  C   UNL     1      90.273  49.131  41.357  0.00  0.00    -0.041 C 
ATOM      3  C   UNL     1      89.941  47.870  41.684  0.00  0.00    -0.042 C 
ATOM      4  C   UNL     1      88.602  47.482  42.268  0.00  0.00    +0.150 C 
ATOM      5  C   UNL     1      87.540  48.603  42.099  0.00  0.00    +0.131 C 
ATOM      6  C   UNL     1      88.118  50.029  42.370  0.00  0.00    +0.170 C 
ENDROOT
BRANCH   6   7
ATOM      7  O   UNL     1      87.110  50.990  42.157  0.00  0.00    -0.379 OA
ATOM      8  H   UNL     1      87.474  51.878  42.298  0.00  0.00    +0.000 HD
ENDBRANCH   6   7
BRANCH   5   9
ATOM      9  O   UNL     1      86.380  48.360  42.857  0.00  0.00    -0.385 OA
ATOM     10  H   UNL     1      86.626  48.201  43.783  0.00  0.00    +0.000 HD
ENDBRANCH   5   9
BRANCH   1  11
ATOM     11  O   UNL     1      89.980  51.484  41.641  0.00  0.00    -0.454 OA
BRANCH  11  13
ATOM     12  C   UNL     1      90.475  53.244  39.944  0.00  0.00    +0.033 C 
ATOM     13  C   UNL     1      89.656  52.721  41.074  0.00  0.00    +0.305 C 
ATOM     14  O   UNL     1      88.650  53.372  41.469  0.00  0.00    -0.251 OA
ENDBRANCH  11  13
ENDBRANCH   1  11
BRANCH   6  15
ATOM     15  C   UNL     1      88.637  50.197  43.829  0.00  0.00    +0.128 C 
BRANCH  15  16
ATOM     16  O   UNL     1      87.790  51.044  44.604  0.00  0.00    -0.458 OA
BRANCH  16  17
ATOM     17  C   UNL     1      86.999  50.597  45.671  0.00  0.00    +0.339 C 
ATOM     18  O   UNL     1      86.671  49.381  45.751  0.00  0.00    -0.245 OA
BRANCH  17  19
ATOM     19  C   UNL     1      86.547  51.557  46.702  0.00  0.00    +0.059 A 
ATOM     20  C   UNL     1      86.324  52.905  46.366  0.00  0.00    -0.048 A 
ATOM     21  C   UNL     1      85.901  53.815  47.340  0.00  0.00    -0.061 A 
ATOM     22  C   UNL     1      85.696  53.391  48.654  0.00  0.00    -0.062 A 
ATOM     23  C   UNL     1      85.915  52.055  49.000  0.00  0.00    -0.061 A 
ATOM     24  C   UNL     1      86.338  51.141  48.030  0.00  0.00    -0.048 A 
ENDBRANCH  17  19
ENDBRANCH  16  17
ENDBRANCH  15  16
ENDBRANCH   6  15
BRANCH   4  25
ATOM     25  O   UNL     1      88.162  46.291  41.611  0.00  0.00    -0.455 OA
BRANCH  25  26
ATOM     26  C   UNL     1      87.518  45.232  42.261  0.00  0.00    +0.305 C 
ATOM     27  O   UNL     1      86.272  45.250  42.452  0.00  0.00    -0.251 OA
ATOM     28  C   UNL     1      88.328  44.102  42.795  0.00  0.00    +0.033 C 
ENDBRANCH  25  26
ENDBRANCH   4  25
TORSDOF 10
ENDMDL
MODEL 3
REMARK VINA RESULT:    -7.626      1.723      7.035
REMARK INTER + INTRA:         -13.030
REMARK INTER:                 -11.700
REMARK INTRA:                  -1.330
REMARK UNBOUND:                -1.393
REMARK  Name = 
REMARK  12 active torsions:
REMARK  status: ('A' for Active; 'I' for Inactive)
REMARK    1  A    between atoms: C_1  and  C_2
REMARK    2  A    between atoms: C_2  and  O_4
REMARK    3  A    between atoms: O_4  and  C_5
REMARK    4  A    between atoms: C_8  and  O_23
REMARK    5  A    between atoms: C_9  and  O_22
REMARK    6  A    between atoms: C_10  and  O_11
REMARK    7  A    between atoms: C_10  and  C_12
REMARK    8  A    between atoms: C_12  and  O_13
REMARK    9  A    between atoms: O_13  and  C_14
REMARK   10  A    between atoms: C_14  and  C_16
REMARK   11  A    between atoms: O_23  and  C_24
REMARK   12  A    between atoms: C_24  and  C_26
REMARK                            x       y       z     vdW  Elec       q    Type
REMARK                         _______ _______ _______ _____ _____    ______ ____
ROOT
ATOM      1  C   UNL     1      85.614  52.378  43.976  0.00  0.00    +0.156 C 
ATOM      2  C   UNL     1      86.046  53.305  45.085  0.00  0.00    -0.041 C 
ATOM      3  C   UNL     1      86.035  54.644  44.965  0.00  0.00    -0.042 C 
ATOM      4  C   UNL     1      85.775  55.365  43.663  0.00  0.00    +0.150 C 
ATOM      5  C   UNL     1      85.162  54.430  42.585  0.00  0.00    +0.131 C 
ATOM      6  C   UNL     1      85.822  53.014  42.567  0.00  0.00    +0.170 C 
ENDROOT
BRANCH   6   7
ATOM      7  O   UNL     1      85.186  52.215  41.596  0.00  0.00    -0.379 OA
ATOM      8  H   UNL     1      84.438  51.747  42.001  0.00  0.00    +0.000 HD
ENDBRANCH   6   7
BRANCH   5   9
ATOM      9  O   UNL     1      85.157  55.018  41.307  0.00  0.00    -0.385 OA
ATOM     10  H   UNL     1      84.629  54.473  40.702  0.00  0.00    +0.000 HD
ENDBRANCH   5   9
BRANCH   1  11
ATOM     11  O   UNL     1      86.330  51.146  44.105  0.00  0.00    -0.454 OA
BRANCH  11  13
ATOM     12  C   UNL     1      86.681  49.761  46.150  0.00  0.00    +0.033 C 
ATOM     13  C   UNL     1      85.915  50.082  44.912  0.00  0.00    +0.305 C 
ATOM     14  O   UNL     1      84.872  49.428  44.637  0.00  0.00    -0.251 OA
ENDBRANCH  11  13
ENDBRANCH   1  11
BRANCH   6  15
ATOM     15  C   UNL     1      87.340  53.066  42.222  0.00  0.00    +0.128 C 
BRANCH  15  16
ATOM     16  O   UNL     1      87.572  53.012  40.815  0.00  0.00    -0.458 OA
BRANCH  16  17
ATOM     17  C   UNL     1      88.275  51.982  40.177  0.00  0.00    +0.339 C 
ATOM     18  O   UNL     1      88.525  52.055  38.942  0.00  0.00    -0.245 OA
BRANCH  17  19
ATOM     19  C   UNL     1      88.720  50.805  40.956  0.00  0.00    +0.059 A 
ATOM     20  C   UNL     1      87.818  49.765  41.244  0.00  0.00    -0.048 A 
ATOM     21  C   UNL     1      88.234  48.654  41.984  0.00  0.00    -0.061 A 
ATOM     22  C   UNL     1      89.551  48.569  42.442  0.00  0.00    -0.062 A 
ATOM     23  C   UNL     1      90.455  49.597  42.162  0.00  0.00    -0.061 A 
ATOM     24  C   UNL     1      90.043  50.710  41.422  0.00  0.00    -0.048 A 
ENDBRANCH  17  19
ENDBRANCH  16  17
ENDBRANCH  15  16
ENDBRANCH   6  15
BRANCH   4  25
ATOM     25  O   UNL     1      84.886  56.452  43.929  0.00  0.00    -0.455 OA
BRANCH  25  26
ATOM     26  C   UNL     1      85.306  57.759  44.202  0.00  0.00    +0.305 C 
ATOM     27  O   UNL     1      85.933  58.432  43.339  0.00  0.00    -0.251 OA
ATOM     28  C   UNL     1      85.071  58.334  45.556  0.00  0.00    +0.033 C 
ENDBRANCH  25  26
ENDBRANCH   4  25
TORSDOF 10
ENDMDL
MODEL 4
REMARK VINA RESULT:    -7.484      3.996      5.404
REMARK INTER + INTRA:         -12.814
REMARK INTER:                 -11.406
REMARK INTRA:                  -1.408
REMARK UNBOUND:                -1.393
REMARK  Name = 
REMARK  12 active torsions:
REMARK  status: ('A' for Active; 'I' for Inactive)
REMARK    1  A    between atoms: C_1  and  C_2
REMARK    2  A    between atoms: C_2  and  O_4
REMARK    3  A    between atoms: O_4  and  C_5
REMARK    4  A    between atoms: C_8  and  O_23
REMARK    5  A    between atoms: C_9  and  O_22
REMARK    6  A    between atoms: C_10  and  O_11
REMARK    7  A    between atoms: C_10  and  C_12
REMARK    8  A    between atoms: C_12  and  O_13
REMARK    9  A    between atoms: O_13  and  C_14
REMARK   10  A    between atoms: C_14  and  C_16
REMARK   11  A    between atoms: O_23  and  C_24
REMARK   12  A    between atoms: C_24  and  C_26
REMARK                            x       y       z     vdW  Elec       q    Type
REMARK                         _______ _______ _______ _____ _____    ______ ____
ROOT
ATOM      1  C   UNL     1      89.497  49.595  41.126  0.00  0.00    +0.156 C 
ATOM      2  C   UNL     1      90.595  48.774  41.757  0.00  0.00    -0.041 C 
ATOM      3  C   UNL     1      90.381  47.567  42.309  0.00  0.00    -0.042 C 
ATOM      4  C   UNL     1      89.006  46.981  42.532  0.00  0.00    +0.150 C 
ATOM      5  C   UNL     1      87.909  47.734  41.730  0.00  0.00    +0.131 C 
ATOM      6  C   UNL     1      88.102  49.284  41.751  0.00  0.00    +0.170 C 
ENDROOT
BRANCH   6   7
ATOM      7  O   UNL     1      87.096  49.891  40.971  0.00  0.00    -0.379 OA
ATOM      8  H   UNL     1      86.807  49.274  40.280  0.00  0.00    +0.000 HD
ENDBRANCH   6   7
BRANCH   5   9
ATOM      9  O   UNL     1      86.609  47.367  42.127  0.00  0.00    -0.385 OA
ATOM     10  H   UNL     1      86.131  46.998  41.367  0.00  0.00    +0.000 HD
ENDBRANCH   5   9
BRANCH   1  11
ATOM     11  O   UNL     1      89.831  50.980  41.254  0.00  0.00    -0.454 OA
BRANCH  11  13
ATOM     12  C   UNL     1      90.419  53.213  40.311  0.00  0.00    +0.033 C 
ATOM     13  C   UNL     1      89.688  51.917  40.225  0.00  0.00    +0.305 C 
ATOM     14  O   UNL     1      88.997  51.657  39.203  0.00  0.00    -0.251 OA
ENDBRANCH  11  13
ENDBRANCH   1  11
BRANCH   6  15
ATOM     15  C   UNL     1      88.015  49.880  43.188  0.00  0.00    +0.128 C 
BRANCH  15  16
ATOM     16  O   UNL     1      86.704  50.355  43.492  0.00  0.00    -0.458 OA
BRANCH  16  17
ATOM     17  C   UNL     1      85.704  49.570  44.081  0.00  0.00    +0.339 C 
ATOM     18  O   UNL     1      85.998  48.741  44.985  0.00  0.00    -0.245 OA
BRANCH  17  19
ATOM     19  C   UNL     1      84.301  49.715  43.635  0.00  0.00    +0.059 A 
ATOM     20  C   UNL     1      83.810  50.971  43.235  0.00  0.00    -0.048 A 
ATOM     21  C   UNL     1      82.483  51.111  42.817  0.00  0.00    -0.061 A 
ATOM     22  C   UNL     1      81.634  50.002  42.794  0.00  0.00    -0.062 A 
ATOM     23  C   UNL     1      82.110  48.750  43.190  0.00  0.00    -0.061 A 
ATOM     24  C   UNL     1      83.437  48.605  43.609  0.00  0.00    -0.048 A 
ENDBRANCH  17  19
ENDBRANCH  16  17
ENDBRANCH  15  16
ENDBRANCH   6  15
BRANCH   4  25
ATOM     25  O   UNL     1      89.041  45.608  42.139  0.00  0.00    -0.455 OA
BRANCH  25  26
ATOM     26  C   UNL     1      88.274  44.602  42.738  0.00  0.00    +0.305 C 
ATOM     27  O   UNL     1      87.028  44.541  42.554  0.00  0.00    -0.251 OA
ATOM     28  C   UNL     1      88.931  43.635  43.662  0.00  0.00    +0.033 C 
ENDBRANCH  25  26
ENDBRANCH   4  25
TORSDOF 10
ENDMDL
MODEL 5
REMARK VINA RESULT:    -7.470      3.028      7.118
REMARK INTER + INTRA:         -12.793
REMARK INTER:                 -11.341
REMARK INTRA:                  -1.452
REMARK UNBOUND:                -1.393
REMARK  Name = 
REMARK  12 active torsions:
REMARK  status: ('A' for Active; 'I' for Inactive)
REMARK    1  A    between atoms: C_1  and  C_2
REMARK    2  A    between atoms: C_2  and  O_4
REMARK    3  A    between atoms: O_4  and  C_5
REMARK    4  A    between atoms: C_8  and  O_23
REMARK    5  A    between atoms: C_9  and  O_22
REMARK    6  A    between atoms: C_10  and  O_11
REMARK    7  A    between atoms: C_10  and  C_12
REMARK    8  A    between atoms: C_12  and  O_13
REMARK    9  A    between atoms: O_13  and  C_14
REMARK   10  A    between atoms: C_14  and  C_16
REMARK   11  A    between atoms: O_23  and  C_24
REMARK   12  A    between atoms: C_24  and  C_26
REMARK                            x       y       z     vdW  Elec       q    Type
REMARK                         _______ _______ _______ _____ _____    ______ ____
ROOT
ATOM      1  C   UNL     1      87.951  52.430  42.250  0.00  0.00    +0.156 C 
ATOM      2  C   UNL     1      86.853  53.313  42.789  0.00  0.00    -0.041 C 
ATOM      3  C   UNL     1      86.352  53.182  44.029  0.00  0.00    -0.042 C 
ATOM      4  C   UNL     1      86.686  52.032  44.950  0.00  0.00    +0.150 C 
ATOM      5  C   UNL     1      87.933  51.239  44.470  0.00  0.00    +0.131 C 
ATOM      6  C   UNL     1      87.954  51.023  42.923  0.00  0.00    +0.170 C 
ENDROOT
BRANCH   6   7
ATOM      7  O   UNL     1      89.131  50.336  42.563  0.00  0.00    -0.379 OA
ATOM      8  H   UNL     1      89.802  50.974  42.272  0.00  0.00    +0.000 HD
ENDBRANCH   6   7
BRANCH   5   9
ATOM      9  O   UNL     1      88.097  50.027  45.166  0.00  0.00    -0.385 OA
ATOM     10  H   UNL     1      89.018  49.730  45.088  0.00  0.00    +0.000 HD
ENDBRANCH   5   9
BRANCH   1  11
ATOM     11  O   UNL     1      87.802  52.331  40.830  0.00  0.00    -0.454 OA
BRANCH  11  13
ATOM     12  C   UNL     1      90.126  53.106  40.360  0.00  0.00    +0.033 C 
ATOM     13  C   UNL     1      88.860  52.451  39.923  0.00  0.00    +0.305 C 
ATOM     14  O   UNL     1      88.778  51.963  38.763  0.00  0.00    -0.251 OA
ENDBRANCH  11  13
ENDBRANCH   1  11
BRANCH   6  15
ATOM     15  C   UNL     1      86.740  50.187  42.419  0.00  0.00    +0.128 C 
BRANCH  15  16
ATOM     16  O   UNL     1      86.790  48.838  42.882  0.00  0.00    -0.458 OA
BRANCH  16  17
ATOM     17  C   UNL     1      87.200  47.754  42.095  0.00  0.00    +0.339 C 
ATOM     18  O   UNL     1      87.718  47.953  40.962  0.00  0.00    -0.245 OA
BRANCH  17  19
ATOM     19  C   UNL     1      87.018  46.374  42.596  0.00  0.00    +0.059 A 
ATOM     20  C   UNL     1      86.010  46.087  43.533  0.00  0.00    -0.048 A 
ATOM     21  C   UNL     1      85.839  44.784  44.012  0.00  0.00    -0.061 A 
ATOM     22  C   UNL     1      86.670  43.757  43.561  0.00  0.00    -0.062 A 
ATOM     23  C   UNL     1      87.676  44.030  42.630  0.00  0.00    -0.061 A 
ATOM     24  C   UNL     1      87.851  45.331  42.149  0.00  0.00    -0.048 A 
ENDBRANCH  17  19
ENDBRANCH  16  17
ENDBRANCH  15  16
ENDBRANCH   6  15
BRANCH   4  25
ATOM     25  O   UNL     1      86.919  52.563  46.256  0.00  0.00    -0.455 OA
BRANCH  25  26
ATOM     26  C   UNL     1      86.389  52.016  47.430  0.00  0.00    +0.305 C 
ATOM     27  O   UNL     1      86.573  50.802  47.720  0.00  0.00    -0.251 OA
ATOM     28  C   UNL     1      85.537  52.862  48.311  0.00  0.00    +0.033 C 
ENDBRANCH  25  26
ENDBRANCH   4  25
TORSDOF 10
ENDMDL
MODEL 6
REMARK VINA RESULT:    -7.439      2.912      4.304
REMARK INTER + INTRA:         -12.745
REMARK INTER:                 -11.164
REMARK INTRA:                  -1.582
REMARK UNBOUND:                -1.393
REMARK  Name = 
REMARK  12 active torsions:
REMARK  status: ('A' for Active; 'I' for Inactive)
REMARK    1  A    between atoms: C_1  and  C_2
REMARK    2  A    between atoms: C_2  and  O_4
REMARK    3  A    between atoms: O_4  and  C_5
REMARK    4  A    between atoms: C_8  and  O_23
REMARK    5  A    between atoms: C_9  and  O_22
REMARK    6  A    between atoms: C_10  and  O_11
REMARK    7  A    between atoms: C_10  and  C_12
REMARK    8  A    between atoms: C_12  and  O_13
REMARK    9  A    between atoms: O_13  and  C_14
REMARK   10  A    between atoms: C_14  and  C_16
REMARK   11  A    between atoms: O_23  and  C_24
REMARK   12  A    between atoms: C_24  and  C_26
REMARK                            x       y       z     vdW  Elec       q    Type
REMARK                         _______ _______ _______ _____ _____    ______ ____
ROOT
ATOM      1  C   UNL     1      87.610  49.942  41.981  0.00  0.00    +0.156 C 
ATOM      2  C   UNL     1      88.072  48.534  41.696  0.00  0.00    -0.041 C 
ATOM      3  C   UNL     1      87.449  47.447  42.184  0.00  0.00    -0.042 C 
ATOM      4  C   UNL     1      86.347  47.507  43.217  0.00  0.00    +0.150 C 
ATOM      5  C   UNL     1      85.762  48.939  43.369  0.00  0.00    +0.131 C 
ATOM      6  C   UNL     1      86.862  50.047  43.346  0.00  0.00    +0.170 C 
ENDROOT
BRANCH   6   7
ATOM      7  O   UNL     1      86.251  51.314  43.447  0.00  0.00    -0.379 OA
ATOM      8  H   UNL     1      86.062  51.653  42.558  0.00  0.00    +0.000 HD
ENDBRANCH   6   7
BRANCH   5   9
ATOM      9  O   UNL     1      84.927  49.058  44.495  0.00  0.00    -0.385 OA
ATOM     10  H   UNL     1      84.774  49.997  44.687  0.00  0.00    +0.000 HD
ENDBRANCH   5   9
BRANCH   1  11
ATOM     11  O   UNL     1      88.746  50.812  41.939  0.00  0.00    -0.454 OA
BRANCH  11  13
ATOM     12  C   UNL     1      89.521  52.079  39.935  0.00  0.00    +0.033 C 
ATOM     13  C   UNL     1      88.781  52.016  41.227  0.00  0.00    +0.305 C 
ATOM     14  O   UNL     1      88.151  53.029  41.636  0.00  0.00    -0.251 OA
ENDBRANCH  11  13
ENDBRANCH   1  11
BRANCH   6  15
ATOM     15  C   UNL     1      87.874  49.911  44.523  0.00  0.00    +0.128 C 
BRANCH  15  16
ATOM     16  O   UNL     1      87.216  49.779  45.782  0.00  0.00    -0.458 OA
BRANCH  16  17
ATOM     17  C   UNL     1      87.549  50.523  46.921  0.00  0.00    +0.339 C 
ATOM     18  O   UNL     1      88.538  50.188  47.631  0.00  0.00    -0.245 OA
BRANCH  17  19
ATOM     19  C   UNL     1      86.734  51.701  47.292  0.00  0.00    +0.059 A 
ATOM     20  C   UNL     1      86.674  52.818  46.441  0.00  0.00    -0.048 A 
ATOM     21  C   UNL     1      85.908  53.934  46.792  0.00  0.00    -0.061 A 
ATOM     22  C   UNL     1      85.196  53.947  47.993  0.00  0.00    -0.062 A 
ATOM     23  C   UNL     1      85.249  52.843  48.847  0.00  0.00    -0.061 A 
ATOM     24  C   UNL     1      86.014  51.724  48.501  0.00  0.00    -0.048 A 
ENDBRANCH  17  19
ENDBRANCH  16  17
ENDBRANCH  15  16
ENDBRANCH   6  15
BRANCH   4  25
ATOM     25  O   UNL     1      85.318  46.600  42.819  0.00  0.00    -0.455 OA
BRANCH  25  26
ATOM     26  C   UNL     1      84.643  45.746  43.699  0.00  0.00    +0.305 C 
ATOM     27  O   UNL     1      83.617  46.135  44.320  0.00  0.00    -0.251 OA
ATOM     28  C   UNL     1      85.188  44.384  43.958  0.00  0.00    +0.033 C 
ENDBRANCH  25  26
ENDBRANCH   4  25
TORSDOF 10
ENDMDL
MODEL 7
REMARK VINA RESULT:    -7.202      2.205      5.957
REMARK INTER + INTRA:         -12.384
REMARK INTER:                 -11.082
REMARK INTRA:                  -1.302
REMARK UNBOUND:                -1.393
REMARK  Name = 
REMARK  12 active torsions:
REMARK  status: ('A' for Active; 'I' for Inactive)
REMARK    1  A    between atoms: C_1  and  C_2
REMARK    2  A    between atoms: C_2  and  O_4
REMARK    3  A    between atoms: O_4  and  C_5
REMARK    4  A    between atoms: C_8  and  O_23
REMARK    5  A    between atoms: C_9  and  O_22
REMARK    6  A    between atoms: C_10  and  O_11
REMARK    7  A    between atoms: C_10  and  C_12
REMARK    8  A    between atoms: C_12  and  O_13
REMARK    9  A    between atoms: O_13  and  C_14
REMARK   10  A    between atoms: C_14  and  C_16
REMARK   11  A    between atoms: O_23  and  C_24
REMARK   12  A    between atoms: C_24  and  C_26
REMARK                            x       y       z     vdW  Elec       q    Type
REMARK                         _______ _______ _______ _____ _____    ______ ____
ROOT
ATOM      1  C   UNL     1      86.031  55.244  44.074  0.00  0.00    +0.156 C 
ATOM      2  C   UNL     1      86.335  54.293  45.205  0.00  0.00    -0.041 C 
ATOM      3  C   UNL     1      86.721  53.021  45.006  0.00  0.00    -0.042 C 
ATOM      4  C   UNL     1      86.711  52.344  43.655  0.00  0.00    +0.150 C 
ATOM      5  C   UNL     1      86.575  53.362  42.490  0.00  0.00    +0.131 C 
ATOM      6  C   UNL     1      85.544  54.496  42.795  0.00  0.00    +0.170 C 
ENDROOT
BRANCH   6   7
ATOM      7  O   UNL     1      85.508  55.398  41.712  0.00  0.00    -0.379 OA
ATOM      8  H   UNL     1      84.654  55.322  41.257  0.00  0.00    +0.000 HD
ENDBRANCH   6   7
BRANCH   5   9
ATOM      9  O   UNL     1      86.307  52.733  41.259  0.00  0.00    -0.385 OA
ATOM     10  H   UNL     1      85.426  52.326  41.289  0.00  0.00    +0.000 HD
ENDBRANCH   5   9
BRANCH   1  11
ATOM     11  O   UNL     1      85.060  56.194  44.525  0.00  0.00    -0.454 OA
BRANCH  11  13
ATOM     12  C   UNL     1      85.145  58.461  45.563  0.00  0.00    +0.033 C 
ATOM     13  C   UNL     1      85.187  57.578  44.363  0.00  0.00    +0.305 C 
ATOM     14  O   UNL     1      85.392  58.081  43.225  0.00  0.00    -0.251 OA
ENDBRANCH  11  13
ENDBRANCH   1  11
BRANCH   6  15
ATOM     15  C   UNL     1      84.101  53.951  43.010  0.00  0.00    +0.128 C 
BRANCH  15  16
ATOM     16  O   UNL     1      83.692  53.086  41.951  0.00  0.00    -0.458 OA
BRANCH  16  17
ATOM     17  C   UNL     1      82.431  52.478  41.880  0.00  0.00    +0.339 C 
ATOM     18  O   UNL     1      81.482  53.054  41.280  0.00  0.00    -0.245 OA
BRANCH  17  19
ATOM     19  C   UNL     1      82.217  51.159  42.515  0.00  0.00    +0.059 A 
ATOM     20  C   UNL     1      80.932  50.588  42.545  0.00  0.00    -0.048 A 
ATOM     21  C   UNL     1      80.726  49.344  43.149  0.00  0.00    -0.061 A 
ATOM     22  C   UNL     1      81.796  48.658  43.727  0.00  0.00    -0.062 A 
ATOM     23  C   UNL     1      83.077  49.216  43.703  0.00  0.00    -0.061 A 
ATOM     24  C   UNL     1      83.288  50.461  43.101  0.00  0.00    -0.048 A 
ENDBRANCH  17  19
ENDBRANCH  16  17
ENDBRANCH  15  16
ENDBRANCH   6  15
BRANCH   4  25
ATOM     25  O   UNL     1      87.929  51.609  43.520  0.00  0.00    -0.455 OA
BRANCH  25  26
ATOM     26  C   UNL     1      88.261  50.844  42.396  0.00  0.00    +0.305 C 
ATOM     27  O   UNL     1      87.492  49.936  41.979  0.00  0.00    -0.251 OA
ATOM     28  C   UNL     1      89.574  51.061  41.726  0.00  0.00    +0.033 C 
ENDBRANCH  25  26
ENDBRANCH   4  25
TORSDOF 10
ENDMDL
MODEL 8
REMARK VINA RESULT:    -7.143      2.395      7.335
REMARK INTER + INTRA:         -12.294
REMARK INTER:                 -10.901
REMARK INTRA:                  -1.393
REMARK UNBOUND:                -1.393
REMARK  Name = 
REMARK  12 active torsions:
REMARK  status: ('A' for Active; 'I' for Inactive)
REMARK    1  A    between atoms: C_1  and  C_2
REMARK    2  A    between atoms: C_2  and  O_4
REMARK    3  A    between atoms: O_4  and  C_5
REMARK    4  A    between atoms: C_8  and  O_23
REMARK    5  A    between atoms: C_9  and  O_22
REMARK    6  A    between atoms: C_10  and  O_11
REMARK    7  A    between atoms: C_10  and  C_12
REMARK    8  A    between atoms: C_12  and  O_13
REMARK    9  A    between atoms: O_13  and  C_14
REMARK   10  A    between atoms: C_14  and  C_16
REMARK   11  A    between atoms: O_23  and  C_24
REMARK   12  A    between atoms: C_24  and  C_26
REMARK                            x       y       z     vdW  Elec       q    Type
REMARK                         _______ _______ _______ _____ _____    ______ ____
ROOT
ATOM      1  C   UNL     1      84.305  52.742  43.672  0.00  0.00    +0.156 C 
ATOM      2  C   UNL     1      84.425  52.842  45.173  0.00  0.00    -0.041 C 
ATOM      3  C   UNL     1      85.354  53.597  45.784  0.00  0.00    -0.042 C 
ATOM      4  C   UNL     1      86.493  54.273  45.057  0.00  0.00    +0.150 C 
ATOM      5  C   UNL     1      86.266  54.317  43.521  0.00  0.00    +0.131 C 
ATOM      6  C   UNL     1      85.671  52.987  42.959  0.00  0.00    +0.170 C 
ENDROOT
BRANCH   6   7
ATOM      7  O   UNL     1      85.456  53.120  41.572  0.00  0.00    -0.379 OA
ATOM      8  H   UNL     1      86.192  53.614  41.177  0.00  0.00    +0.000 HD
ENDBRANCH   6   7
BRANCH   5   9
ATOM      9  O   UNL     1      87.423  54.706  42.820  0.00  0.00    -0.385 OA
ATOM     10  H   UNL     1      88.099  55.003  43.450  0.00  0.00    +0.000 HD
ENDBRANCH   5   9
BRANCH   1  11
ATOM     11  O   UNL     1      83.765  51.459  43.341  0.00  0.00    -0.454 OA
BRANCH  11  13
ATOM     12  C   UNL     1      81.687  50.220  42.734  0.00  0.00    +0.033 C 
ATOM     13  C   UNL     1      82.711  51.263  42.443  0.00  0.00    +0.305 C 
ATOM     14  O   UNL     1      82.585  51.993  41.422  0.00  0.00    -0.251 OA
ENDBRANCH  11  13
ENDBRANCH   1  11
BRANCH   6  15
ATOM     15  C   UNL     1      86.616  51.768  43.179  0.00  0.00    +0.128 C 
BRANCH  15  16
ATOM     16  O   UNL     1      87.820  51.881  42.423  0.00  0.00    -0.458 OA
BRANCH  16  17
ATOM     17  C   UNL     1      88.141  51.058  41.335  0.00  0.00    +0.339 C 
ATOM     18  O   UNL     1      87.820  51.401  40.164  0.00  0.00    -0.245 OA
BRANCH  17  19
ATOM     19  C   UNL     1      88.854  49.782  41.566  0.00  0.00    +0.059 A 
ATOM     20  C   UNL     1      88.180  48.557  41.418  0.00  0.00    -0.048 A 
ATOM     21  C   UNL     1      88.851  47.350  41.640  0.00  0.00    -0.061 A 
ATOM     22  C   UNL     1      90.197  47.353  42.011  0.00  0.00    -0.062 A 
ATOM     23  C   UNL     1      90.876  48.565  42.163  0.00  0.00    -0.061 A 
ATOM     24  C   UNL     1      90.210  49.774  41.941  0.00  0.00    -0.048 A 
ENDBRANCH  17  19
ENDBRANCH  16  17
ENDBRANCH  15  16
ENDBRANCH   6  15
BRANCH   4  25
ATOM     25  O   UNL     1      86.619  55.601  45.570  0.00  0.00    -0.455 OA
BRANCH  25  26
ATOM     26  C   UNL     1      85.709  56.631  45.307  0.00  0.00    +0.305 C 
ATOM     27  O   UNL     1      84.584  56.663  45.877  0.00  0.00    -0.251 OA
ATOM     28  C   UNL     1      86.047  57.663  44.287  0.00  0.00    +0.033 C 
ENDBRANCH  25  26
ENDBRANCH   4  25
TORSDOF 10
ENDMDL
MODEL 9
REMARK VINA RESULT:    -7.132      3.464      7.270
REMARK INTER + INTRA:         -12.277
REMARK INTER:                 -10.784
REMARK INTRA:                  -1.492
REMARK UNBOUND:                -1.393
REMARK  Name = 
REMARK  12 active torsions:
REMARK  status: ('A' for Active; 'I' for Inactive)
REMARK    1  A    between atoms: C_1  and  C_2
REMARK    2  A    between atoms: C_2  and  O_4
REMARK    3  A    between atoms: O_4  and  C_5
REMARK    4  A    between atoms: C_8  and  O_23
REMARK    5  A    between atoms: C_9  and  O_22
REMARK    6  A    between atoms: C_10  and  O_11
REMARK    7  A    between atoms: C_10  and  C_12
REMARK    8  A    between atoms: C_12  and  O_13
REMARK    9  A    between atoms: O_13  and  C_14
REMARK   10  A    between atoms: C_14  and  C_16
REMARK   11  A    between atoms: O_23  and  C_24
REMARK   12  A    between atoms: C_24  and  C_26
REMARK                            x       y       z     vdW  Elec       q    Type
REMARK                         _______ _______ _______ _____ _____    ______ ____
ROOT
ATOM      1  C   UNL     1      86.298  51.969  45.802  0.00  0.00    +0.156 C 
ATOM      2  C   UNL     1      87.395  50.981  46.117  0.00  0.00    -0.041 C 
ATOM      3  C   UNL     1      88.050  50.289  45.169  0.00  0.00    -0.042 C 
ATOM      4  C   UNL     1      87.643  50.273  43.713  0.00  0.00    +0.150 C 
ATOM      5  C   UNL     1      86.645  51.412  43.369  0.00  0.00    +0.131 C 
ATOM      6  C   UNL     1      85.560  51.619  44.474  0.00  0.00    +0.170 C 
ENDROOT
BRANCH   6   7
ATOM      7  O   UNL     1      84.721  52.693  44.109  0.00  0.00    -0.379 OA
ATOM      8  H   UNL     1      84.874  52.920  43.178  0.00  0.00    +0.000 HD
ENDBRANCH   6   7
BRANCH   5   9
ATOM      9  O   UNL     1      86.067  51.251  42.096  0.00  0.00    -0.385 OA
ATOM     10  H   UNL     1      86.103  52.094  41.615  0.00  0.00    +0.000 HD
ENDBRANCH   5   9
BRANCH   1  11
ATOM     11  O   UNL     1      85.392  52.013  46.909  0.00  0.00    -0.454 OA
BRANCH  11  13
ATOM     12  C   UNL     1      85.677  53.963  48.437  0.00  0.00    +0.033 C 
ATOM     13  C   UNL     1      85.731  52.497  48.177  0.00  0.00    +0.305 C 
ATOM     14  O   UNL     1      86.025  51.707  49.115  0.00  0.00    -0.251 OA
ENDBRANCH  11  13
ENDBRANCH   1  11
BRANCH   6  15
ATOM     15  C   UNL     1      84.663  50.361  44.675  0.00  0.00    +0.128 C 
BRANCH  15  16
ATOM     16  O   UNL     1      84.017  49.965  43.466  0.00  0.00    -0.458 OA
BRANCH  16  17
ATOM     17  C   UNL     1      82.640  50.086  43.239  0.00  0.00    +0.339 C 
ATOM     18  O   UNL     1      82.152  51.190  42.870  0.00  0.00    -0.245 OA
BRANCH  17  19
ATOM     19  C   UNL     1      81.758  48.915  43.439  0.00  0.00    +0.059 A 
ATOM     20  C   UNL     1      82.269  47.612  43.305  0.00  0.00    -0.048 A 
ATOM     21  C   UNL     1      81.437  46.503  43.489  0.00  0.00    -0.061 A 
ATOM     22  C   UNL     1      80.089  46.683  43.809  0.00  0.00    -0.062 A 
ATOM     23  C   UNL     1      79.570  47.973  43.944  0.00  0.00    -0.061 A 
ATOM     24  C   UNL     1      80.399  49.085  43.760  0.00  0.00    -0.048 A 
ENDBRANCH  17  19
ENDBRANCH  16  17
ENDBRANCH  15  16
ENDBRANCH   6  15
BRANCH   4  25
ATOM     25  O   UNL     1      88.826  50.405  42.922  0.00  0.00    -0.455 OA
BRANCH  25  26
ATOM     26  C   UNL     1      89.100  49.631  41.788  0.00  0.00    +0.305 C 
ATOM     27  O   UNL     1      88.210  49.415  40.921  0.00  0.00    -0.251 OA
ATOM     28  C   UNL     1      90.440  48.998  41.642  0.00  0.00    +0.033 C 
ENDBRANCH  25  26
ENDBRANCH   4  25
TORSDOF 10
ENDMDL
