MODEL 1
REMARK VINA RESULT:    -7.601      0.000      0.000
REMARK INTER + INTRA:         -13.122
REMARK INTER:                 -11.827
REMARK INTRA:                  -1.294
REMARK UNBOUND:                -1.299
REMARK  Name = 
REMARK  13 active torsions:
REMARK  status: ('A' for Active; 'I' for Inactive)
REMARK    1  A    between atoms: C_1  and  O_2
REMARK    2  A    between atoms: O_2  and  C_3
REMARK    3  A    between atoms: C_6  and  O_24
REMARK    4  A    between atoms: C_7  and  O_20
REMARK    5  A    between atoms: C_8  and  O_9
REMARK    6  A    between atoms: C_8  and  C_10
REMARK    7  A    between atoms: C_10  and  O_11
REMARK    8  A    between atoms: O_11  and  C_12
REMARK    9  A    between atoms: C_12  and  C_14
REMARK   10  A    between atoms: O_20  and  C_21
REMARK   11  A    between atoms: C_21  and  C_23
REMARK   12  A    between atoms: O_24  and  C_25
REMARK   13  A    between atoms: C_25  and  C_27
REMARK                            x       y       z     vdW  Elec       q    Type
REMARK                         _______ _______ _______ _____ _____    ______ ____
ROOT
ATOM      1  C   UNL     1      85.734  52.600  43.756  0.00  0.00    +0.112 C 
ATOM      2  C   UNL     1      86.653  51.908  44.733  0.00  0.00    -0.053 C 
ATOM      3  C   UNL     1      87.601  51.079  44.279  0.00  0.00    -0.042 C 
ATOM      4  C   UNL     1      87.663  50.735  42.814  0.00  0.00    +0.161 C 
ATOM      5  C   UNL     1      87.423  51.975  41.891  0.00  0.00    +0.178 C 
ATOM      6  C   UNL     1      86.582  53.131  42.561  0.00  0.00    +0.170 C 
ENDROOT
BRANCH   1   8
ATOM      7  C   UNL     1      83.818  51.400  44.298  0.00  0.00    +0.037 C 
ATOM      8  O   UNL     1      84.763  51.677  43.287  0.00  0.00    -0.373 OA
ENDBRANCH   1   8
BRANCH   6   9
ATOM      9  O   UNL     1      87.433  54.153  43.035  0.00  0.00    -0.379 OA
ATOM     10  H   UNL     1      88.306  53.780  43.234  0.00  0.00    +0.000 HD
ENDBRANCH   6   9
BRANCH   6  11
ATOM     11  C   UNL     1      85.639  53.777  41.512  0.00  0.00    +0.128 C 
BRANCH  11  12
ATOM     12  O   UNL     1      85.388  55.151  41.814  0.00  0.00    -0.458 OA
BRANCH  12  13
ATOM     13  C   UNL     1      84.358  55.595  42.653  0.00  0.00    +0.339 C 
ATOM     14  O   UNL     1      83.153  55.370  42.353  0.00  0.00    -0.245 OA
BRANCH  13  15
ATOM     15  C   UNL     1      84.690  56.329  43.892  0.00  0.00    +0.059 A 
ATOM     16  C   UNL     1      84.635  55.679  45.138  0.00  0.00    -0.048 A 
ATOM     17  C   UNL     1      84.925  56.378  46.314  0.00  0.00    -0.061 A 
ATOM     18  C   UNL     1      85.273  57.728  46.259  0.00  0.00    -0.062 A 
ATOM     19  C   UNL     1      85.336  58.384  45.027  0.00  0.00    -0.061 A 
ATOM     20  C   UNL     1      85.047  57.690  43.848  0.00  0.00    -0.048 A 
ENDBRANCH  13  15
ENDBRANCH  12  13
ENDBRANCH  11  12
ENDBRANCH   6  11
BRANCH   5  21
ATOM     21  O   UNL     1      88.676  52.507  41.439  0.00  0.00    -0.454 OA
BRANCH  21  22
ATOM     22  C   UNL     1      89.132  52.451  40.117  0.00  0.00    +0.304 C 
ATOM     23  O   UNL     1      88.653  51.621  39.298  0.00  0.00    -0.251 OA
ATOM     24  C   UNL     1      90.231  53.361  39.688  0.00  0.00    +0.033 C 
ENDBRANCH  21  22
ENDBRANCH   5  21
BRANCH   4  25
ATOM     25  O   UNL     1      88.919  50.113  42.533  0.00  0.00    -0.453 OA
BRANCH  25  26
ATOM     26  C   UNL     1      89.049  48.964  41.744  0.00  0.00    +0.305 C 
ATOM     27  O   UNL     1      88.066  48.505  41.103  0.00  0.00    -0.251 OA
ATOM     28  C   UNL     1      90.359  48.252  41.698  0.00  0.00    +0.033 C 
ENDBRANCH  25  26
ENDBRANCH   4  25
TORSDOF 10
ENDMDL
MODEL 2
REMARK VINA RESULT:    -7.555      2.374      5.400
REMARK INTER + INTRA:         -13.050
REMARK INTER:                 -11.716
REMARK INTRA:                  -1.334
REMARK UNBOUND:                -1.299
REMARK  Name = 
REMARK  13 active torsions:
REMARK  status: ('A' for Active; 'I' for Inactive)
REMARK    1  A    between atoms: C_1  and  O_2
REMARK    2  A    between atoms: O_2  and  C_3
REMARK    3  A    between atoms: C_6  and  O_24
REMARK    4  A    between atoms: C_7  and  O_20
REMARK    5  A    between atoms: C_8  and  O_9
REMARK    6  A    between atoms: C_8  and  C_10
REMARK    7  A    between atoms: C_10  and  O_11
REMARK    8  A    between atoms: O_11  and  C_12
REMARK    9  A    between atoms: C_12  and  C_14
REMARK   10  A    between atoms: O_20  and  C_21
REMARK   11  A    between atoms: C_21  and  C_23
REMARK   12  A    between atoms: O_24  and  C_25
REMARK   13  A    between atoms: C_25  and  C_27
REMARK                            x       y       z     vdW  Elec       q    Type
REMARK                         _______ _______ _______ _____ _____    ______ ____
ROOT
ATOM      1  C   UNL     1      86.363  51.074  44.101  0.00  0.00    +0.112 C 
ATOM      2  C   UNL     1      87.835  51.227  43.807  0.00  0.00    -0.053 C 
ATOM      3  C   UNL     1      88.228  51.762  42.645  0.00  0.00    -0.042 C 
ATOM      4  C   UNL     1      87.211  52.085  41.582  0.00  0.00    +0.161 C 
ATOM      5  C   UNL     1      85.914  52.738  42.164  0.00  0.00    +0.178 C 
ATOM      6  C   UNL     1      85.628  52.380  43.675  0.00  0.00    +0.170 C 
ENDROOT
BRANCH   1   8
ATOM      7  C   UNL     1      85.819  48.813  44.177  0.00  0.00    +0.037 C 
ATOM      8  O   UNL     1      85.849  49.970  43.369  0.00  0.00    -0.373 OA
ENDBRANCH   1   8
BRANCH   6   9
ATOM      9  O   UNL     1      86.054  53.428  44.522  0.00  0.00    -0.379 OA
ATOM     10  H   UNL     1      86.006  53.136  45.446  0.00  0.00    +0.000 HD
ENDBRANCH   6   9
BRANCH   6  11
ATOM     11  C   UNL     1      84.103  52.207  43.900  0.00  0.00    +0.128 C 
BRANCH  11  12
ATOM     12  O   UNL     1      83.427  51.911  42.676  0.00  0.00    -0.458 OA
BRANCH  12  13
ATOM     13  C   UNL     1      82.042  51.736  42.567  0.00  0.00    +0.339 C 
ATOM     14  O   UNL     1      81.325  52.641  42.058  0.00  0.00    -0.245 OA
BRANCH  13  15
ATOM     15  C   UNL     1      81.424  50.484  43.052  0.00  0.00    +0.059 A 
ATOM     16  C   UNL     1      80.043  50.427  43.310  0.00  0.00    -0.048 A 
ATOM     17  C   UNL     1      79.460  49.252  43.791  0.00  0.00    -0.061 A 
ATOM     18  C   UNL     1      80.247  48.121  44.019  0.00  0.00    -0.062 A 
ATOM     19  C   UNL     1      81.619  48.163  43.762  0.00  0.00    -0.061 A 
ATOM     20  C   UNL     1      82.208  49.337  43.280  0.00  0.00    -0.048 A 
ENDBRANCH  13  15
ENDBRANCH  12  13
ENDBRANCH  11  12
ENDBRANCH   6  11
BRANCH   5  21
ATOM     21  O   UNL     1      85.969  54.164  42.021  0.00  0.00    -0.454 OA
BRANCH  21  22
ATOM     22  C   UNL     1      84.952  54.945  41.461  0.00  0.00    +0.304 C 
ATOM     23  O   UNL     1      84.971  55.263  40.241  0.00  0.00    -0.251 OA
ATOM     24  C   UNL     1      83.852  55.443  42.336  0.00  0.00    +0.033 C 
ENDBRANCH  21  22
ENDBRANCH   5  21
BRANCH   4  25
ATOM     25  O   UNL     1      87.817  52.923  40.595  0.00  0.00    -0.453 OA
BRANCH  25  26
ATOM     26  C   UNL     1      88.959  52.560  39.873  0.00  0.00    +0.305 C 
ATOM     27  O   UNL     1      88.956  51.545  39.126  0.00  0.00    -0.251 OA
ATOM     28  C   UNL     1      90.208  53.360  40.026  0.00  0.00    +0.033 C 
ENDBRANCH  25  26
ENDBRANCH   4  25
TORSDOF 10
ENDMDL
MODEL 3
REMARK VINA RESULT:    -7.504      1.886      6.952
REMARK INTER + INTRA:         -12.970
REMARK INTER:                 -11.281
REMARK INTRA:                  -1.689
REMARK UNBOUND:                -1.299
REMARK  Name = 
REMARK  13 active torsions:
REMARK  status: ('A' for Active; 'I' for Inactive)
REMARK    1  A    between atoms: C_1  and  O_2
REMARK    2  A    between atoms: O_2  and  C_3
REMARK    3  A    between atoms: C_6  and  O_24
REMARK    4  A    between atoms: C_7  and  O_20
REMARK    5  A    between atoms: C_8  and  O_9
REMARK    6  A    between atoms: C_8  and  C_10
REMARK    7  A    between atoms: C_10  and  O_11
REMARK    8  A    between atoms: O_11  and  C_12
REMARK    9  A    between atoms: C_12  and  C_14
REMARK   10  A    between atoms: O_20  and  C_21
REMARK   11  A    between atoms: C_21  and  C_23
REMARK   12  A    between atoms: O_24  and  C_25
REMARK   13  A    between atoms: C_25  and  C_27
REMARK                            x       y       z     vdW  Elec       q    Type
REMARK                         _______ _______ _______ _____ _____    ______ ____
ROOT
ATOM      1  C   UNL     1      86.180  51.020  43.821  0.00  0.00    +0.112 C 
ATOM      2  C   UNL     1      85.160  50.847  44.919  0.00  0.00    -0.053 C 
ATOM      3  C   UNL     1      84.705  51.921  45.577  0.00  0.00    -0.042 C 
ATOM      4  C   UNL     1      85.307  53.277  45.315  0.00  0.00    +0.161 C 
ATOM      5  C   UNL     1      85.568  53.539  43.795  0.00  0.00    +0.178 C 
ATOM      6  C   UNL     1      85.762  52.230  42.933  0.00  0.00    +0.170 C 
ENDROOT
BRANCH   1   8
ATOM      7  C   UNL     1      87.934  50.100  45.041  0.00  0.00    +0.037 C 
ATOM      8  O   UNL     1      87.456  51.261  44.397  0.00  0.00    -0.373 OA
ENDBRANCH   1   8
BRANCH   6   9
ATOM      9  O   UNL     1      84.566  51.897  42.259  0.00  0.00    -0.379 OA
ATOM     10  H   UNL     1      83.868  51.721  42.909  0.00  0.00    +0.000 HD
ENDBRANCH   6   9
BRANCH   6  11
ATOM     11  C   UNL     1      86.844  52.466  41.847  0.00  0.00    +0.128 C 
BRANCH  11  12
ATOM     12  O   UNL     1      87.062  51.289  41.066  0.00  0.00    -0.458 OA
BRANCH  12  13
ATOM     13  C   UNL     1      88.326  50.828  40.678  0.00  0.00    +0.339 C 
ATOM     14  O   UNL     1      88.899  51.320  39.666  0.00  0.00    -0.245 OA
BRANCH  13  15
ATOM     15  C   UNL     1      88.988  49.763  41.460  0.00  0.00    +0.059 A 
ATOM     16  C   UNL     1      88.348  48.526  41.659  0.00  0.00    -0.048 A 
ATOM     17  C   UNL     1      88.960  47.526  42.419  0.00  0.00    -0.061 A 
ATOM     18  C   UNL     1      90.217  47.748  42.987  0.00  0.00    -0.062 A 
ATOM     19  C   UNL     1      90.865  48.970  42.793  0.00  0.00    -0.061 A 
ATOM     20  C   UNL     1      90.256  49.974  42.033  0.00  0.00    -0.048 A 
ENDBRANCH  13  15
ENDBRANCH  12  13
ENDBRANCH  11  12
ENDBRANCH   6  11
BRANCH   5  21
ATOM     21  O   UNL     1      84.499  54.315  43.235  0.00  0.00    -0.454 OA
BRANCH  21  22
ATOM     22  C   UNL     1      84.666  55.549  42.596  0.00  0.00    +0.304 C 
ATOM     23  O   UNL     1      84.931  55.616  41.365  0.00  0.00    -0.251 OA
ATOM     24  C   UNL     1      84.569  56.802  43.398  0.00  0.00    +0.033 C 
ENDBRANCH  21  22
ENDBRANCH   5  21
BRANCH   4  25
ATOM     25  O   UNL     1      84.460  54.281  45.878  0.00  0.00    -0.453 OA
BRANCH  25  26
ATOM     26  C   UNL     1      84.810  55.044  46.997  0.00  0.00    +0.305 C 
ATOM     27  O   UNL     1      84.049  55.106  48.000  0.00  0.00    -0.251 OA
ATOM     28  C   UNL     1      86.079  55.826  46.983  0.00  0.00    +0.033 C 
ENDBRANCH  25  26
ENDBRANCH   4  25
TORSDOF 10
ENDMDL
MODEL 4
REMARK VINA RESULT:    -7.500      1.766      3.796
REMARK INTER + INTRA:         -12.963
REMARK INTER:                 -11.311
REMARK INTRA:                  -1.653
REMARK UNBOUND:                -1.299
REMARK  Name = 
REMARK  13 active torsions:
REMARK  status: ('A' for Active; 'I' for Inactive)
REMARK    1  A    between atoms: C_1  and  O_2
REMARK    2  A    between atoms: O_2  and  C_3
REMARK    3  A    between atoms: C_6  and  O_24
REMARK    4  A    between atoms: C_7  and  O_20
REMARK    5  A    between atoms: C_8  and  O_9
REMARK    6  A    between atoms: C_8  and  C_10
REMARK    7  A    between atoms: C_10  and  O_11
REMARK    8  A    between atoms: O_11  and  C_12
REMARK    9  A    between atoms: C_12  and  C_14
REMARK   10  A    between atoms: O_20  and  C_21
REMARK   11  A    between atoms: C_21  and  C_23
REMARK   12  A    between atoms: O_24  and  C_25
REMARK   13  A    between atoms: C_25  and  C_27
REMARK                            x       y       z     vdW  Elec       q    Type
REMARK                         _______ _______ _______ _____ _____    ______ ____
ROOT
ATOM      1  C   UNL     1      88.534  52.664  40.851  0.00  0.00    +0.112 C 
ATOM      2  C   UNL     1      88.752  51.316  40.207  0.00  0.00    -0.053 C 
ATOM      3  C   UNL     1      89.018  50.251  40.972  0.00  0.00    -0.042 C 
ATOM      4  C   UNL     1      89.232  50.420  42.453  0.00  0.00    +0.161 C 
ATOM      5  C   UNL     1      88.213  51.416  43.101  0.00  0.00    +0.178 C 
ATOM      6  C   UNL     1      87.618  52.481  42.098  0.00  0.00    +0.170 C 
ENDROOT
BRANCH   1   8
ATOM      7  C   UNL     1      90.543  53.572  40.113  0.00  0.00    +0.037 C 
ATOM      8  O   UNL     1      89.786  53.206  41.246  0.00  0.00    -0.373 OA
ENDBRANCH   1   8
BRANCH   6   9
ATOM      9  O   UNL     1      86.336  52.084  41.657  0.00  0.00    -0.379 OA
ATOM     10  H   UNL     1      86.305  52.110  40.688  0.00  0.00    +0.000 HD
ENDBRANCH   6   9
BRANCH   6  11
ATOM     11  C   UNL     1      87.448  53.846  42.814  0.00  0.00    +0.128 C 
BRANCH  11  12
ATOM     12  O   UNL     1      86.203  54.460  42.476  0.00  0.00    -0.458 OA
BRANCH  12  13
ATOM     13  C   UNL     1      85.530  55.374  43.296  0.00  0.00    +0.339 C 
ATOM     14  O   UNL     1      84.976  56.391  42.794  0.00  0.00    -0.245 OA
BRANCH  13  15
ATOM     15  C   UNL     1      85.471  55.141  44.754  0.00  0.00    +0.059 A 
ATOM     16  C   UNL     1      84.661  54.117  45.278  0.00  0.00    -0.048 A 
ATOM     17  C   UNL     1      84.584  53.911  46.658  0.00  0.00    -0.061 A 
ATOM     18  C   UNL     1      85.315  54.721  47.529  0.00  0.00    -0.062 A 
ATOM     19  C   UNL     1      86.127  55.738  47.022  0.00  0.00    -0.061 A 
ATOM     20  C   UNL     1      86.207  55.949  45.642  0.00  0.00    -0.048 A 
ENDBRANCH  13  15
ENDBRANCH  12  13
ENDBRANCH  11  12
ENDBRANCH   6  11
BRANCH   5  21
ATOM     21  O   UNL     1      87.136  50.694  43.714  0.00  0.00    -0.454 OA
BRANCH  21  22
ATOM     22  C   UNL     1      86.711  50.875  45.035  0.00  0.00    +0.304 C 
ATOM     23  O   UNL     1      85.631  50.371  45.447  0.00  0.00    -0.251 OA
ATOM     24  C   UNL     1      87.531  51.714  45.955  0.00  0.00    +0.033 C 
ENDBRANCH  21  22
ENDBRANCH   5  21
BRANCH   4  25
ATOM     25  O   UNL     1      89.178  49.138  43.083  0.00  0.00    -0.453 OA
BRANCH  25  26
ATOM     26  C   UNL     1      90.264  48.258  43.131  0.00  0.00    +0.305 C 
ATOM     27  O   UNL     1      91.306  48.553  43.777  0.00  0.00    -0.251 OA
ATOM     28  C   UNL     1      90.203  46.976  42.372  0.00  0.00    +0.033 C 
ENDBRANCH  25  26
ENDBRANCH   4  25
TORSDOF 10
ENDMDL
MODEL 5
REMARK VINA RESULT:    -7.399      2.177      6.742
REMARK INTER + INTRA:         -12.807
REMARK INTER:                 -11.209
REMARK INTRA:                  -1.598
REMARK UNBOUND:                -1.299
REMARK  Name = 
REMARK  13 active torsions:
REMARK  status: ('A' for Active; 'I' for Inactive)
REMARK    1  A    between atoms: C_1  and  O_2
REMARK    2  A    between atoms: O_2  and  C_3
REMARK    3  A    between atoms: C_6  and  O_24
REMARK    4  A    between atoms: C_7  and  O_20
REMARK    5  A    between atoms: C_8  and  O_9
REMARK    6  A    between atoms: C_8  and  C_10
REMARK    7  A    between atoms: C_10  and  O_11
REMARK    8  A    between atoms: O_11  and  C_12
REMARK    9  A    between atoms: C_12  and  C_14
REMARK   10  A    between atoms: O_20  and  C_21
REMARK   11  A    between atoms: C_21  and  C_23
REMARK   12  A    between atoms: O_24  and  C_25
REMARK   13  A    between atoms: C_25  and  C_27
REMARK                            x       y       z     vdW  Elec       q    Type
REMARK                         _______ _______ _______ _____ _____    ______ ____
ROOT
ATOM      1  C   UNL     1      85.864  54.564  42.871  0.00  0.00    +0.112 C 
ATOM      2  C   UNL     1      86.402  55.400  44.006  0.00  0.00    -0.053 C 
ATOM      3  C   UNL     1      86.506  54.869  45.230  0.00  0.00    -0.042 C 
ATOM      4  C   UNL     1      85.965  53.490  45.502  0.00  0.00    +0.161 C 
ATOM      5  C   UNL     1      86.283  52.478  44.353  0.00  0.00    +0.178 C 
ATOM      6  C   UNL     1      86.512  53.148  42.941  0.00  0.00    +0.170 C 
ENDROOT
BRANCH   1   8
ATOM      7  C   UNL     1      83.842  55.708  42.765  0.00  0.00    +0.037 C 
ATOM      8  O   UNL     1      84.453  54.456  42.992  0.00  0.00    -0.373 OA
ENDBRANCH   1   8
BRANCH   6   9
ATOM      9  O   UNL     1      87.892  53.274  42.669  0.00  0.00    -0.379 OA
ATOM     10  H   UNL     1      88.121  54.213  42.590  0.00  0.00    +0.000 HD
ENDBRANCH   6   9
BRANCH   6  11
ATOM     11  C   UNL     1      85.909  52.253  41.826  0.00  0.00    +0.128 C 
BRANCH  11  12
ATOM     12  O   UNL     1      86.532  50.967  41.797  0.00  0.00    -0.458 OA
BRANCH  12  13
ATOM     13  C   UNL     1      87.735  50.693  41.134  0.00  0.00    +0.339 C 
ATOM     14  O   UNL     1      88.085  51.387  40.141  0.00  0.00    -0.245 OA
BRANCH  13  15
ATOM     15  C   UNL     1      88.592  49.584  41.604  0.00  0.00    +0.059 A 
ATOM     16  C   UNL     1      89.931  49.824  41.961  0.00  0.00    -0.048 A 
ATOM     17  C   UNL     1      90.750  48.772  42.382  0.00  0.00    -0.061 A 
ATOM     18  C   UNL     1      90.243  47.474  42.453  0.00  0.00    -0.062 A 
ATOM     19  C   UNL     1      88.914  47.223  42.105  0.00  0.00    -0.061 A 
ATOM     20  C   UNL     1      88.089  48.271  41.683  0.00  0.00    -0.048 A 
ENDBRANCH  13  15
ENDBRANCH  12  13
ENDBRANCH  11  12
ENDBRANCH   6  11
BRANCH   5  21
ATOM     21  O   UNL     1      87.434  51.690  44.690  0.00  0.00    -0.454 OA
BRANCH  21  22
ATOM     22  C   UNL     1      87.397  50.326  45.001  0.00  0.00    +0.304 C 
ATOM     23  O   UNL     1      88.459  49.656  45.120  0.00  0.00    -0.251 OA
ATOM     24  C   UNL     1      86.077  49.649  45.151  0.00  0.00    +0.033 C 
ENDBRANCH  21  22
ENDBRANCH   5  21
BRANCH   4  25
ATOM     25  O   UNL     1      86.472  53.028  46.757  0.00  0.00    -0.453 OA
BRANCH  25  26
ATOM     26  C   UNL     1      85.653  52.584  47.801  0.00  0.00    +0.305 C 
ATOM     27  O   UNL     1      84.448  52.949  47.877  0.00  0.00    -0.251 OA
ATOM     28  C   UNL     1      86.227  51.705  48.859  0.00  0.00    +0.033 C 
ENDBRANCH  25  26
ENDBRANCH   4  25
TORSDOF 10
ENDMDL
MODEL 6
REMARK VINA RESULT:    -7.294      2.729      6.065
REMARK INTER + INTRA:         -12.643
REMARK INTER:                 -11.283
REMARK INTRA:                  -1.360
REMARK UNBOUND:                -1.299
REMARK  Name = 
REMARK  13 active torsions:
REMARK  status: ('A' for Active; 'I' for Inactive)
REMARK    1  A    between atoms: C_1  and  O_2
REMARK    2  A    between atoms: O_2  and  C_3
REMARK    3  A    between atoms: C_6  and  O_24
REMARK    4  A    between atoms: C_7  and  O_20
REMARK    5  A    between atoms: C_8  and  O_9
REMARK    6  A    between atoms: C_8  and  C_10
REMARK    7  A    between atoms: C_10  and  O_11
REMARK    8  A    between atoms: O_11  and  C_12
REMARK    9  A    between atoms: C_12  and  C_14
REMARK   10  A    between atoms: O_20  and  C_21
REMARK   11  A    between atoms: C_21  and  C_23
REMARK   12  A    between atoms: O_24  and  C_25
REMARK   13  A    between atoms: C_25  and  C_27
REMARK                            x       y       z     vdW  Elec       q    Type
REMARK                         _______ _______ _______ _____ _____    ______ ____
ROOT
ATOM      1  C   UNL     1      87.996  48.265  43.468  0.00  0.00    +0.112 C 
ATOM      2  C   UNL     1      89.213  48.808  42.760  0.00  0.00    -0.053 C 
ATOM      3  C   UNL     1      89.088  49.855  41.936  0.00  0.00    -0.042 C 
ATOM      4  C   UNL     1      87.723  50.404  41.614  0.00  0.00    +0.161 C 
ATOM      5  C   UNL     1      86.791  50.480  42.868  0.00  0.00    +0.178 C 
ATOM      6  C   UNL     1      87.159  49.460  44.015  0.00  0.00    +0.170 C 
ENDROOT
BRANCH   1   8
ATOM      7  C   UNL     1      87.509  46.133  42.678  0.00  0.00    +0.037 C 
ATOM      8  O   UNL     1      87.217  47.508  42.553  0.00  0.00    -0.373 OA
ENDBRANCH   1   8
BRANCH   6   9
ATOM      9  O   UNL     1      87.906  50.101  45.029  0.00  0.00    -0.379 OA
ATOM     10  H   UNL     1      87.303  50.434  45.712  0.00  0.00    +0.000 HD
ENDBRANCH   6   9
BRANCH   6  11
ATOM     11  C   UNL     1      85.866  48.918  44.679  0.00  0.00    +0.128 C 
BRANCH  11  12
ATOM     12  O   UNL     1      84.732  49.090  43.825  0.00  0.00    -0.458 OA
BRANCH  12  13
ATOM     13  C   UNL     1      83.566  48.320  43.906  0.00  0.00    +0.339 C 
ATOM     14  O   UNL     1      83.635  47.088  44.168  0.00  0.00    -0.245 OA
BRANCH  13  15
ATOM     15  C   UNL     1      82.252  48.958  43.681  0.00  0.00    +0.059 A 
ATOM     16  C   UNL     1      81.071  48.318  44.099  0.00  0.00    -0.048 A 
ATOM     17  C   UNL     1      79.825  48.908  43.865  0.00  0.00    -0.061 A 
ATOM     18  C   UNL     1      79.745  50.141  43.216  0.00  0.00    -0.062 A 
ATOM     19  C   UNL     1      80.910  50.789  42.801  0.00  0.00    -0.061 A 
ATOM     20  C   UNL     1      82.159  50.203  43.032  0.00  0.00    -0.048 A 
ENDBRANCH  13  15
ENDBRANCH  12  13
ENDBRANCH  11  12
ENDBRANCH   6  11
BRANCH   5  21
ATOM     21  O   UNL     1      86.790  51.811  43.404  0.00  0.00    -0.454 OA
BRANCH  21  22
ATOM     22  C   UNL     1      85.658  52.629  43.497  0.00  0.00    +0.304 C 
ATOM     23  O   UNL     1      85.394  53.479  42.604  0.00  0.00    -0.251 OA
ATOM     24  C   UNL     1      84.776  52.516  44.693  0.00  0.00    +0.033 C 
ENDBRANCH  21  22
ENDBRANCH   5  21
BRANCH   4  25
ATOM     25  O   UNL     1      87.867  51.683  40.994  0.00  0.00    -0.453 OA
BRANCH  25  26
ATOM     26  C   UNL     1      88.935  52.015  40.153  0.00  0.00    +0.305 C 
ATOM     27  O   UNL     1      89.037  51.504  39.005  0.00  0.00    -0.251 OA
ATOM     28  C   UNL     1      89.988  52.951  40.641  0.00  0.00    +0.033 C 
ENDBRANCH  25  26
ENDBRANCH   4  25
TORSDOF 10
ENDMDL
MODEL 7
REMARK VINA RESULT:    -7.259      3.289      8.061
REMARK INTER + INTRA:         -12.589
REMARK INTER:                 -11.245
REMARK INTRA:                  -1.344
REMARK UNBOUND:                -1.299
REMARK  Name = 
REMARK  13 active torsions:
REMARK  status: ('A' for Active; 'I' for Inactive)
REMARK    1  A    between atoms: C_1  and  O_2
REMARK    2  A    between atoms: O_2  and  C_3
REMARK    3  A    between atoms: C_6  and  O_24
REMARK    4  A    between atoms: C_7  and  O_20
REMARK    5  A    between atoms: C_8  and  O_9
REMARK    6  A    between atoms: C_8  and  C_10
REMARK    7  A    between atoms: C_10  and  O_11
REMARK    8  A    between atoms: O_11  and  C_12
REMARK    9  A    between atoms: C_12  and  C_14
REMARK   10  A    between atoms: O_20  and  C_21
REMARK   11  A    between atoms: C_21  and  C_23
REMARK   12  A    between atoms: O_24  and  C_25
REMARK   13  A    between atoms: C_25  and  C_27
REMARK                            x       y       z     vdW  Elec       q    Type
REMARK                         _______ _______ _______ _____ _____    ______ ____
ROOT
ATOM      1  C   UNL     1      87.573  50.512  44.181  0.00  0.00    +0.112 C 
ATOM      2  C   UNL     1      87.736  51.936  43.707  0.00  0.00    -0.053 C 
ATOM      3  C   UNL     1      86.855  52.452  42.842  0.00  0.00    -0.042 C 
ATOM      4  C   UNL     1      85.786  51.577  42.242  0.00  0.00    +0.161 C 
ATOM      5  C   UNL     1      85.142  50.607  43.287  0.00  0.00    +0.178 C 
ATOM      6  C   UNL     1      86.072  50.263  44.516  0.00  0.00    +0.170 C 
ENDROOT
BRANCH   1   8
ATOM      7  C   UNL     1      89.377  49.368  43.260  0.00  0.00    +0.037 C 
ATOM      8  O   UNL     1      87.993  49.623  43.155  0.00  0.00    -0.373 OA
ENDBRANCH   1   8
BRANCH   6   9
ATOM      9  O   UNL     1      85.727  51.053  45.635  0.00  0.00    -0.379 OA
ATOM     10  H   UNL     1      86.532  51.428  46.026  0.00  0.00    +0.000 HD
ENDBRANCH   6   9
BRANCH   6  11
ATOM     11  C   UNL     1      85.878  48.781  44.930  0.00  0.00    +0.128 C 
BRANCH  11  12
ATOM     12  O   UNL     1      85.275  48.022  43.880  0.00  0.00    -0.458 OA
BRANCH  12  13
ATOM     13  C   UNL     1      84.992  46.653  43.964  0.00  0.00    +0.339 C 
ATOM     14  O   UNL     1      83.830  46.261  44.259  0.00  0.00    -0.245 OA
BRANCH  13  15
ATOM     15  C   UNL     1      86.064  45.669  43.705  0.00  0.00    +0.059 A 
ATOM     16  C   UNL     1      86.096  44.452  44.410  0.00  0.00    -0.048 A 
ATOM     17  C   UNL     1      87.123  43.531  44.184  0.00  0.00    -0.061 A 
ATOM     18  C   UNL     1      88.124  43.811  43.253  0.00  0.00    -0.062 A 
ATOM     19  C   UNL     1      88.101  45.013  42.543  0.00  0.00    -0.061 A 
ATOM     20  C   UNL     1      87.076  45.939  42.765  0.00  0.00    -0.048 A 
ENDBRANCH  13  15
ENDBRANCH  12  13
ENDBRANCH  11  12
ENDBRANCH   6  11
BRANCH   5  21
ATOM     21  O   UNL     1      83.905  51.149  43.771  0.00  0.00    -0.454 OA
BRANCH  21  22
ATOM     22  C   UNL     1      82.675  50.484  43.725  0.00  0.00    +0.304 C 
ATOM     23  O   UNL     1      82.393  49.578  44.555  0.00  0.00    -0.251 OA
ATOM     24  C   UNL     1      81.702  50.828  42.650  0.00  0.00    +0.033 C 
ENDBRANCH  21  22
ENDBRANCH   5  21
BRANCH   4  25
ATOM     25  O   UNL     1      84.798  52.404  41.622  0.00  0.00    -0.453 OA
BRANCH  25  26
ATOM     26  C   UNL     1      85.107  53.566  40.906  0.00  0.00    +0.305 C 
ATOM     27  O   UNL     1      85.909  53.532  39.935  0.00  0.00    -0.251 OA
ATOM     28  C   UNL     1      84.511  54.866  41.328  0.00  0.00    +0.033 C 
ENDBRANCH  25  26
ENDBRANCH   4  25
TORSDOF 10
ENDMDL
MODEL 8
REMARK VINA RESULT:    -7.255      2.518      5.812
REMARK INTER + INTRA:         -12.583
REMARK INTER:                 -10.813
REMARK INTRA:                  -1.770
REMARK UNBOUND:                -1.299
REMARK  Name = 
REMARK  13 active torsions:
REMARK  status: ('A' for Active; 'I' for Inactive)
REMARK    1  A    between atoms: C_1  and  O_2
REMARK    2  A    between atoms: O_2  and  C_3
REMARK    3  A    between atoms: C_6  and  O_24
REMARK    4  A    between atoms: C_7  and  O_20
REMARK    5  A    between atoms: C_8  and  O_9
REMARK    6  A    between atoms: C_8  and  C_10
REMARK    7  A    between atoms: C_10  and  O_11
REMARK    8  A    between atoms: O_11  and  C_12
REMARK    9  A    between atoms: C_12  and  C_14
REMARK   10  A    between atoms: O_20  and  C_21
REMARK   11  A    between atoms: C_21  and  C_23
REMARK   12  A    between atoms: O_24  and  C_25
REMARK   13  A    between atoms: C_25  and  C_27
REMARK                            x       y       z     vdW  Elec       q    Type
REMARK                         _______ _______ _______ _____ _____    ______ ____
ROOT
ATOM      1  C   UNL     1      85.809  55.231  43.186  0.00  0.00    +0.112 C 
ATOM      2  C   UNL     1      86.404  55.901  44.400  0.00  0.00    -0.053 C 
ATOM      3  C   UNL     1      86.533  55.214  45.541  0.00  0.00    -0.042 C 
ATOM      4  C   UNL     1      85.964  53.823  45.653  0.00  0.00    +0.161 C 
ATOM      5  C   UNL     1      86.219  52.962  44.372  0.00  0.00    +0.178 C 
ATOM      6  C   UNL     1      86.420  53.804  43.051  0.00  0.00    +0.170 C 
ENDROOT
BRANCH   1   8
ATOM      7  C   UNL     1      83.817  56.425  43.304  0.00  0.00    +0.037 C 
ATOM      8  O   UNL     1      84.400  55.141  43.341  0.00  0.00    -0.373 OA
ENDBRANCH   1   8
BRANCH   6   9
ATOM      9  O   UNL     1      87.794  53.933  42.750  0.00  0.00    -0.379 OA
ATOM     10  H   UNL     1      88.107  54.804  43.037  0.00  0.00    +0.000 HD
ENDBRANCH   6   9
BRANCH   6  11
ATOM     11  C   UNL     1      85.759  53.075  41.852  0.00  0.00    +0.128 C 
BRANCH  11  12
ATOM     12  O   UNL     1      84.851  52.064  42.294  0.00  0.00    -0.458 OA
BRANCH  12  13
ATOM     13  C   UNL     1      83.470  52.093  42.061  0.00  0.00    +0.339 C 
ATOM     14  O   UNL     1      82.976  52.949  41.277  0.00  0.00    -0.245 OA
BRANCH  13  15
ATOM     15  C   UNL     1      82.594  51.115  42.740  0.00  0.00    +0.059 A 
ATOM     16  C   UNL     1      83.133  50.197  43.660  0.00  0.00    -0.048 A 
ATOM     17  C   UNL     1      82.310  49.255  44.284  0.00  0.00    -0.061 A 
ATOM     18  C   UNL     1      80.944  49.220  44.000  0.00  0.00    -0.062 A 
ATOM     19  C   UNL     1      80.396  50.129  43.092  0.00  0.00    -0.061 A 
ATOM     20  C   UNL     1      81.214  51.074  42.464  0.00  0.00    -0.048 A 
ENDBRANCH  13  15
ENDBRANCH  12  13
ENDBRANCH  11  12
ENDBRANCH   6  11
BRANCH   5  21
ATOM     21  O   UNL     1      87.357  52.111  44.565  0.00  0.00    -0.454 OA
BRANCH  21  22
ATOM     22  C   UNL     1      87.328  50.715  44.478  0.00  0.00    +0.304 C 
ATOM     23  O   UNL     1      87.995  50.102  43.601  0.00  0.00    -0.251 OA
ATOM     24  C   UNL     1      86.459  49.946  45.414  0.00  0.00    +0.033 C 
ENDBRANCH  21  22
ENDBRANCH   5  21
BRANCH   4  25
ATOM     25  O   UNL     1      86.498  53.192  46.819  0.00  0.00    -0.453 OA
BRANCH  25  26
ATOM     26  C   UNL     1      85.704  52.732  47.876  0.00  0.00    +0.305 C 
ATOM     27  O   UNL     1      86.164  51.918  48.722  0.00  0.00    -0.251 OA
ATOM     28  C   UNL     1      84.285  53.179  47.975  0.00  0.00    +0.033 C 
ENDBRANCH  25  26
ENDBRANCH   4  25
TORSDOF 10
ENDMDL
MODEL 9
REMARK VINA RESULT:    -7.148      3.251      5.599
REMARK INTER + INTRA:         -12.416
REMARK INTER:                 -11.117
REMARK INTRA:                  -1.299
REMARK UNBOUND:                -1.299
REMARK  Name = 
REMARK  13 active torsions:
REMARK  status: ('A' for Active; 'I' for Inactive)
REMARK    1  A    between atoms: C_1  and  O_2
REMARK    2  A    between atoms: O_2  and  C_3
REMARK    3  A    between atoms: C_6  and  O_24
REMARK    4  A    between atoms: C_7  and  O_20
REMARK    5  A    between atoms: C_8  and  O_9
REMARK    6  A    between atoms: C_8  and  C_10
REMARK    7  A    between atoms: C_10  and  O_11
REMARK    8  A    between atoms: O_11  and  C_12
REMARK    9  A    between atoms: C_12  and  C_14
REMARK   10  A    between atoms: O_20  and  C_21
REMARK   11  A    between atoms: C_21  and  C_23
REMARK   12  A    between atoms: O_24  and  C_25
REMARK   13  A    between atoms: C_25  and  C_27
REMARK                            x       y       z     vdW  Elec       q    Type
REMARK                         _______ _______ _______ _____ _____    ______ ____
ROOT
ATOM      1  C   UNL     1      89.032  49.418  42.810  0.00  0.00    +0.112 C 
ATOM      2  C   UNL     1      88.867  48.303  41.806  0.00  0.00    -0.053 C 
ATOM      3  C   UNL     1      87.894  47.399  41.973  0.00  0.00    -0.042 C 
ATOM      4  C   UNL     1      87.056  47.414  43.225  0.00  0.00    +0.161 C 
ATOM      5  C   UNL     1      86.647  48.860  43.660  0.00  0.00    +0.178 C 
ATOM      6  C   UNL     1      87.626  49.993  43.157  0.00  0.00    +0.170 C 
ENDROOT
BRANCH   1   8
ATOM      7  C   UNL     1      90.979  48.521  43.714  0.00  0.00    +0.037 C 
ATOM      8  O   UNL     1      89.648  48.907  43.984  0.00  0.00    -0.373 OA
ENDBRANCH   1   8
BRANCH   6   9
ATOM      9  O   UNL     1      87.104  50.624  42.006  0.00  0.00    -0.379 OA
ATOM     10  H   UNL     1      87.798  50.691  41.332  0.00  0.00    +0.000 HD
ENDBRANCH   6   9
BRANCH   6  11
ATOM     11  C   UNL     1      87.774  51.087  44.247  0.00  0.00    +0.128 C 
BRANCH  11  12
ATOM     12  O   UNL     1      86.919  50.831  45.362  0.00  0.00    -0.458 OA
BRANCH  12  13
ATOM     13  C   UNL     1      87.168  51.286  46.663  0.00  0.00    +0.339 C 
ATOM     14  O   UNL     1      87.999  50.685  47.398  0.00  0.00    -0.245 OA
BRANCH  13  15
ATOM     15  C   UNL     1      86.452  52.475  47.171  0.00  0.00    +0.059 A 
ATOM     16  C   UNL     1      86.461  53.676  46.439  0.00  0.00    -0.048 A 
ATOM     17  C   UNL     1      85.805  54.809  46.930  0.00  0.00    -0.061 A 
ATOM     18  C   UNL     1      85.133  54.755  48.152  0.00  0.00    -0.062 A 
ATOM     19  C   UNL     1      85.112  53.567  48.886  0.00  0.00    -0.061 A 
ATOM     20  C   UNL     1      85.767  52.430  48.400  0.00  0.00    -0.048 A 
ENDBRANCH  13  15
ENDBRANCH  12  13
ENDBRANCH  11  12
ENDBRANCH   6  11
BRANCH   5  21
ATOM     21  O   UNL     1      85.317  49.155  43.211  0.00  0.00    -0.454 OA
BRANCH  21  22
ATOM     22  C   UNL     1      84.222  49.364  44.057  0.00  0.00    +0.304 C 
ATOM     23  O   UNL     1      83.578  48.395  44.542  0.00  0.00    -0.251 OA
ATOM     24  C   UNL     1      83.789  50.760  44.354  0.00  0.00    +0.033 C 
ENDBRANCH  21  22
ENDBRANCH   5  21
BRANCH   4  25
ATOM     25  O   UNL     1      85.909  46.585  43.030  0.00  0.00    -0.453 OA
BRANCH  25  26
ATOM     26  C   UNL     1      85.629  45.461  43.814  0.00  0.00    +0.305 C 
ATOM     27  O   UNL     1      85.189  45.586  44.989  0.00  0.00    -0.251 OA
ATOM     28  C   UNL     1      85.897  44.100  43.267  0.00  0.00    +0.033 C 
ENDBRANCH  25  26
ENDBRANCH   4  25
TORSDOF 10
ENDMDL
