MODEL 1
REMARK VINA RESULT:    -7.436      0.000      0.000
REMARK INTER + INTRA:         -11.507
REMARK INTER:                 -10.500
REMARK INTRA:                  -1.006
REMARK UNBOUND:                -1.027
REMARK  Name = 
REMARK  9 active torsions:
REMARK  status: ('A' for Active; 'I' for Inactive)
REMARK    1  A    between atoms: C_1  and  C_2
REMARK    2  A    between atoms: C_2  and  O_4
REMARK    3  A    between atoms: O_4  and  C_5
REMARK    4  A    between atoms: C_9  and  O_12
REMARK    5  A    between atoms: C_9  and  C_13
REMARK    6  A    between atoms: C_10  and  O_11
REMARK    7  A    between atoms: C_13  and  O_14
REMARK    8  A    between atoms: O_14  and  C_15
REMARK    9  A    between atoms: C_15  and  C_17
REMARK                            x       y       z     vdW  Elec       q    Type
REMARK                         _______ _______ _______ _____ _____    ______ ____
ROOT
ATOM      1  C   UNL     1      84.531  54.514  41.920  0.00  0.00    +0.150 C 
ATOM      2  C   UNL     1      84.773  55.692  42.832  0.00  0.00    -0.044 C 
ATOM      3  C   UNL     1      85.729  55.718  43.775  0.00  0.00    -0.064 C 
ATOM      4  C   UNL     1      86.539  54.505  44.165  0.00  0.00    +0.087 C 
ATOM      5  C   UNL     1      86.558  53.409  43.047  0.00  0.00    +0.149 C 
ATOM      6  C   UNL     1      85.124  53.198  42.477  0.00  0.00    +0.129 C 
ATOM      7 CL   UNL     1      85.905  53.922  45.737  0.00  0.00    -0.114 Cl
ENDROOT
BRANCH   6   8
ATOM      8  O   UNL     1      84.258  52.709  43.475  0.00  0.00    -0.385 OA
ATOM      9  H   UNL     1      84.728  52.059  44.020  0.00  0.00    +0.000 HD
ENDBRANCH   6   8
BRANCH   5  10
ATOM     10  O   UNL     1      87.413  53.798  41.991  0.00  0.00    -0.381 OA
ATOM     11  H   UNL     1      87.481  54.765  41.968  0.00  0.00    +0.000 HD
ENDBRANCH   5  10
BRANCH   1  12
ATOM     12  O   UNL     1      85.081  54.818  40.637  0.00  0.00    -0.455 OA
BRANCH  12  14
ATOM     13  C   UNL     1      82.951  55.400  39.476  0.00  0.00    +0.033 C 
ATOM     14  C   UNL     1      84.417  55.580  39.669  0.00  0.00    +0.305 C 
ATOM     15  O   UNL     1      85.052  56.380  38.929  0.00  0.00    -0.251 OA
ENDBRANCH  12  14
ENDBRANCH   1  12
BRANCH   5  16
ATOM     16  C   UNL     1      87.113  52.065  43.584  0.00  0.00    +0.126 C 
BRANCH  16  17
ATOM     17  O   UNL     1      86.790  50.984  42.708  0.00  0.00    -0.458 OA
BRANCH  17  18
ATOM     18  C   UNL     1      87.623  50.539  41.673  0.00  0.00    +0.339 C 
ATOM     19  O   UNL     1      87.609  51.118  40.552  0.00  0.00    -0.245 OA
BRANCH  18  20
ATOM     20  C   UNL     1      88.511  49.378  41.898  0.00  0.00    +0.059 A 
ATOM     21  C   UNL     1      88.025  48.063  41.767  0.00  0.00    -0.048 A 
ATOM     22  C   UNL     1      88.873  46.971  41.977  0.00  0.00    -0.061 A 
ATOM     23  C   UNL     1      90.212  47.179  42.320  0.00  0.00    -0.062 A 
ATOM     24  C   UNL     1      90.705  48.479  42.451  0.00  0.00    -0.061 A 
ATOM     25  C   UNL     1      89.861  49.575  42.242  0.00  0.00    -0.048 A 
ENDBRANCH  18  20
ENDBRANCH  17  18
ENDBRANCH  16  17
ENDBRANCH   5  16
TORSDOF 8
ENDMDL
MODEL 2
REMARK VINA RESULT:    -7.358      1.519      2.077
REMARK INTER + INTRA:         -11.396
REMARK INTER:                 -10.044
REMARK INTRA:                  -1.352
REMARK UNBOUND:                -1.027
REMARK  Name = 
REMARK  9 active torsions:
REMARK  status: ('A' for Active; 'I' for Inactive)
REMARK    1  A    between atoms: C_1  and  C_2
REMARK    2  A    between atoms: C_2  and  O_4
REMARK    3  A    between atoms: O_4  and  C_5
REMARK    4  A    between atoms: C_9  and  O_12
REMARK    5  A    between atoms: C_9  and  C_13
REMARK    6  A    between atoms: C_10  and  O_11
REMARK    7  A    between atoms: C_13  and  O_14
REMARK    8  A    between atoms: O_14  and  C_15
REMARK    9  A    between atoms: C_15  and  C_17
REMARK                            x       y       z     vdW  Elec       q    Type
REMARK                         _______ _______ _______ _____ _____    ______ ____
ROOT
ATOM      1  C   UNL     1      84.296  53.208  42.905  0.00  0.00    +0.150 C 
ATOM      2  C   UNL     1      84.299  53.062  44.408  0.00  0.00    -0.044 C 
ATOM      3  C   UNL     1      85.420  52.963  45.143  0.00  0.00    -0.064 C 
ATOM      4  C   UNL     1      86.792  52.788  44.539  0.00  0.00    +0.087 C 
ATOM      5  C   UNL     1      86.861  53.268  43.049  0.00  0.00    +0.149 C 
ATOM      6  C   UNL     1      85.624  52.746  42.260  0.00  0.00    +0.129 C 
ATOM      7 CL   UNL     1      87.259  51.072  44.766  0.00  0.00    -0.114 Cl
ENDROOT
BRANCH   6   8
ATOM      8  O   UNL     1      85.624  51.339  42.206  0.00  0.00    -0.385 OA
ATOM      9  H   UNL     1      85.656  51.050  41.281  0.00  0.00    +0.000 HD
ENDBRANCH   6   8
BRANCH   5  10
ATOM     10  O   UNL     1      86.876  54.680  42.988  0.00  0.00    -0.381 OA
ATOM     11  H   UNL     1      87.691  54.977  42.555  0.00  0.00    +0.000 HD
ENDBRANCH   5  10
BRANCH   1  12
ATOM     12  O   UNL     1      84.023  54.573  42.586  0.00  0.00    -0.455 OA
BRANCH  12  14
ATOM     13  C   UNL     1      82.673  54.751  40.495  0.00  0.00    +0.033 C 
ATOM     14  C   UNL     1      83.904  55.055  41.277  0.00  0.00    +0.305 C 
ATOM     15  O   UNL     1      84.845  55.700  40.738  0.00  0.00    -0.251 OA
ENDBRANCH  12  14
ENDBRANCH   1  12
BRANCH   5  16
ATOM     16  C   UNL     1      88.165  52.788  42.362  0.00  0.00    +0.126 C 
BRANCH  16  17
ATOM     17  O   UNL     1      87.893  52.211  41.084  0.00  0.00    -0.458 OA
BRANCH  17  18
ATOM     18  C   UNL     1      88.675  51.209  40.495  0.00  0.00    +0.339 C 
ATOM     19  O   UNL     1      89.063  51.326  39.299  0.00  0.00    -0.245 OA
BRANCH  18  20
ATOM     20  C   UNL     1      89.034  50.007  41.277  0.00  0.00    +0.059 A 
ATOM     21  C   UNL     1      90.320  49.868  41.835  0.00  0.00    -0.048 A 
ATOM     22  C   UNL     1      90.649  48.729  42.577  0.00  0.00    -0.061 A 
ATOM     23  C   UNL     1      89.702  47.720  42.770  0.00  0.00    -0.062 A 
ATOM     24  C   UNL     1      88.424  47.848  42.223  0.00  0.00    -0.061 A 
ATOM     25  C   UNL     1      88.089  48.985  41.480  0.00  0.00    -0.048 A 
ENDBRANCH  18  20
ENDBRANCH  17  18
ENDBRANCH  16  17
ENDBRANCH   5  16
TORSDOF 8
ENDMDL
MODEL 3
REMARK VINA RESULT:    -7.339      4.408      6.536
REMARK INTER + INTRA:         -11.369
REMARK INTER:                 -10.245
REMARK INTRA:                  -1.124
REMARK UNBOUND:                -1.027
REMARK  Name = 
REMARK  9 active torsions:
REMARK  status: ('A' for Active; 'I' for Inactive)
REMARK    1  A    between atoms: C_1  and  C_2
REMARK    2  A    between atoms: C_2  and  O_4
REMARK    3  A    between atoms: O_4  and  C_5
REMARK    4  A    between atoms: C_9  and  O_12
REMARK    5  A    between atoms: C_9  and  C_13
REMARK    6  A    between atoms: C_10  and  O_11
REMARK    7  A    between atoms: C_13  and  O_14
REMARK    8  A    between atoms: O_14  and  C_15
REMARK    9  A    between atoms: C_15  and  C_17
REMARK                            x       y       z     vdW  Elec       q    Type
REMARK                         _______ _______ _______ _____ _____    ______ ____
ROOT
ATOM      1  C   UNL     1      86.624  54.874  46.089  0.00  0.00    +0.150 C 
ATOM      2  C   UNL     1      86.139  55.790  47.186  0.00  0.00    -0.044 C 
ATOM      3  C   UNL     1      85.191  56.725  47.009  0.00  0.00    -0.064 C 
ATOM      4  C   UNL     1      84.644  57.101  45.654  0.00  0.00    +0.087 C 
ATOM      5  C   UNL     1      84.859  55.978  44.584  0.00  0.00    +0.149 C 
ATOM      6  C   UNL     1      86.310  55.420  44.676  0.00  0.00    +0.129 C 
ATOM      7 CL   UNL     1      85.373  58.676  45.203  0.00  0.00    -0.114 Cl
ENDROOT
BRANCH   6   8
ATOM      8  O   UNL     1      87.250  56.422  44.368  0.00  0.00    -0.385 OA
ATOM      9  H   UNL     1      86.932  57.276  44.699  0.00  0.00    +0.000 HD
ENDBRANCH   6   8
BRANCH   5  10
ATOM     10  O   UNL     1      83.950  54.916  44.796  0.00  0.00    -0.381 OA
ATOM     11  H   UNL     1      83.041  55.249  44.726  0.00  0.00    +0.000 HD
ENDBRANCH   5  10
BRANCH   1  12
ATOM     12  O   UNL     1      86.033  53.588  46.281  0.00  0.00    -0.455 OA
BRANCH  12  14
ATOM     13  C   UNL     1      85.881  52.619  48.576  0.00  0.00    +0.033 C 
ATOM     14  C   UNL     1      85.244  53.255  47.388  0.00  0.00    +0.305 C 
ATOM     15  O   UNL     1      83.997  53.444  47.374  0.00  0.00    -0.251 OA
ENDBRANCH  12  14
ENDBRANCH   1  12
BRANCH   5  16
ATOM     16  C   UNL     1      84.587  56.505  43.151  0.00  0.00    +0.126 C 
BRANCH  16  17
ATOM     17  O   UNL     1      85.256  55.707  42.172  0.00  0.00    -0.458 OA
BRANCH  17  18
ATOM     18  C   UNL     1      84.600  55.005  41.153  0.00  0.00    +0.339 C 
ATOM     19  O   UNL     1      84.885  55.228  39.943  0.00  0.00    -0.245 OA
BRANCH  18  20
ATOM     20  C   UNL     1      83.563  54.010  41.500  0.00  0.00    +0.059 A 
ATOM     21  C   UNL     1      83.920  52.721  41.940  0.00  0.00    -0.048 A 
ATOM     22  C   UNL     1      82.932  51.788  42.270  0.00  0.00    -0.061 A 
ATOM     23  C   UNL     1      81.581  52.130  42.166  0.00  0.00    -0.062 A 
ATOM     24  C   UNL     1      81.216  53.406  41.732  0.00  0.00    -0.061 A 
ATOM     25  C   UNL     1      82.199  54.344  41.401  0.00  0.00    -0.048 A 
ENDBRANCH  18  20
ENDBRANCH  17  18
ENDBRANCH  16  17
ENDBRANCH   5  16
TORSDOF 8
ENDMDL
MODEL 4
REMARK VINA RESULT:    -7.277      3.024      6.631
REMARK INTER + INTRA:         -11.282
REMARK INTER:                 -10.393
REMARK INTRA:                  -0.889
REMARK UNBOUND:                -1.027
REMARK  Name = 
REMARK  9 active torsions:
REMARK  status: ('A' for Active; 'I' for Inactive)
REMARK    1  A    between atoms: C_1  and  C_2
REMARK    2  A    between atoms: C_2  and  O_4
REMARK    3  A    between atoms: O_4  and  C_5
REMARK    4  A    between atoms: C_9  and  O_12
REMARK    5  A    between atoms: C_9  and  C_13
REMARK    6  A    between atoms: C_10  and  O_11
REMARK    7  A    between atoms: C_13  and  O_14
REMARK    8  A    between atoms: O_14  and  C_15
REMARK    9  A    between atoms: C_15  and  C_17
REMARK                            x       y       z     vdW  Elec       q    Type
REMARK                         _______ _______ _______ _____ _____    ______ ____
ROOT
ATOM      1  C   UNL     1      87.397  52.663  42.253  0.00  0.00    +0.150 C 
ATOM      2  C   UNL     1      86.423  51.513  42.167  0.00  0.00    -0.044 C 
ATOM      3  C   UNL     1      85.101  51.641  42.370  0.00  0.00    -0.064 C 
ATOM      4  C   UNL     1      84.464  52.904  42.899  0.00  0.00    +0.087 C 
ATOM      5  C   UNL     1      85.359  54.170  42.674  0.00  0.00    +0.149 C 
ATOM      6  C   UNL     1      86.836  53.859  43.058  0.00  0.00    +0.129 C 
ATOM      7 CL   UNL     1      84.048  52.611  44.618  0.00  0.00    -0.114 Cl
ENDROOT
BRANCH   6   8
ATOM      8  O   UNL     1      86.941  53.559  44.430  0.00  0.00    -0.385 OA
ATOM      9  H   UNL     1      87.280  54.333  44.905  0.00  0.00    +0.000 HD
ENDBRANCH   6   8
BRANCH   5  10
ATOM     10  O   UNL     1      85.317  54.566  41.317  0.00  0.00    -0.381 OA
ATOM     11  H   UNL     1      86.206  54.508  40.935  0.00  0.00    +0.000 HD
ENDBRANCH   5  10
BRANCH   1  12
ATOM     12  O   UNL     1      87.743  53.060  40.926  0.00  0.00    -0.455 OA
BRANCH  12  14
ATOM     13  C   UNL     1      90.208  53.094  40.534  0.00  0.00    +0.033 C 
ATOM     14  C   UNL     1      88.850  52.560  40.231  0.00  0.00    +0.305 C 
ATOM     15  O   UNL     1      88.706  51.698  39.320  0.00  0.00    -0.251 OA
ENDBRANCH  12  14
ENDBRANCH   1  12
BRANCH   5  16
ATOM     16  C   UNL     1      84.843  55.378  43.497  0.00  0.00    +0.126 C 
BRANCH  16  17
ATOM     17  O   UNL     1      85.847  55.858  44.393  0.00  0.00    -0.458 OA
BRANCH  17  18
ATOM     18  C   UNL     1      85.570  56.529  45.592  0.00  0.00    +0.339 C 
ATOM     19  O   UNL     1      85.692  57.784  45.660  0.00  0.00    -0.245 OA
BRANCH  18  20
ATOM     20  C   UNL     1      85.146  55.758  46.780  0.00  0.00    +0.059 A 
ATOM     21  C   UNL     1      83.882  55.972  47.364  0.00  0.00    -0.048 A 
ATOM     22  C   UNL     1      83.488  55.235  48.485  0.00  0.00    -0.061 A 
ATOM     23  C   UNL     1      84.347  54.280  49.034  0.00  0.00    -0.062 A 
ATOM     24  C   UNL     1      85.602  54.058  48.462  0.00  0.00    -0.061 A 
ATOM     25  C   UNL     1      86.002  54.792  47.341  0.00  0.00    -0.048 A 
ENDBRANCH  18  20
ENDBRANCH  17  18
ENDBRANCH  16  17
ENDBRANCH   5  16
TORSDOF 8
ENDMDL
MODEL 5
REMARK VINA RESULT:    -7.003      1.799      2.241
REMARK INTER + INTRA:         -10.897
REMARK INTER:                  -9.880
REMARK INTRA:                  -1.017
REMARK UNBOUND:                -1.027
REMARK  Name = 
REMARK  9 active torsions:
REMARK  status: ('A' for Active; 'I' for Inactive)
REMARK    1  A    between atoms: C_1  and  C_2
REMARK    2  A    between atoms: C_2  and  O_4
REMARK    3  A    between atoms: O_4  and  C_5
REMARK    4  A    between atoms: C_9  and  O_12
REMARK    5  A    between atoms: C_9  and  C_13
REMARK    6  A    between atoms: C_10  and  O_11
REMARK    7  A    between atoms: C_13  and  O_14
REMARK    8  A    between atoms: O_14  and  C_15
REMARK    9  A    between atoms: C_15  and  C_17
REMARK                            x       y       z     vdW  Elec       q    Type
REMARK                         _______ _______ _______ _____ _____    ______ ____
ROOT
ATOM      1  C   UNL     1      84.491  55.988  42.931  0.00  0.00    +0.150 C 
ATOM      2  C   UNL     1      85.037  57.240  43.574  0.00  0.00    -0.044 C 
ATOM      3  C   UNL     1      86.103  57.252  44.391  0.00  0.00    -0.064 C 
ATOM      4  C   UNL     1      86.755  55.997  44.918  0.00  0.00    +0.087 C 
ATOM      5  C   UNL     1      86.449  54.742  44.032  0.00  0.00    +0.149 C 
ATOM      6  C   UNL     1      84.937  54.700  43.664  0.00  0.00    +0.129 C 
ATOM      7 CL   UNL     1      86.253  55.813  46.629  0.00  0.00    -0.114 Cl
ENDROOT
BRANCH   6   8
ATOM      8  O   UNL     1      84.147  54.551  44.820  0.00  0.00    -0.385 OA
ATOM      9  H   UNL     1      83.297  54.150  44.582  0.00  0.00    +0.000 HD
ENDBRANCH   6   8
BRANCH   5  10
ATOM     10  O   UNL     1      87.206  54.786  42.839  0.00  0.00    -0.381 OA
ATOM     11  H   UNL     1      86.908  55.531  42.294  0.00  0.00    +0.000 HD
ENDBRANCH   5  10
BRANCH   1  12
ATOM     12  O   UNL     1      84.905  55.965  41.565  0.00  0.00    -0.455 OA
BRANCH  12  14
ATOM     13  C   UNL     1      83.102  54.911  40.198  0.00  0.00    +0.033 C 
ATOM     14  C   UNL     1      84.520  54.975  40.654  0.00  0.00    +0.305 C 
ATOM     15  O   UNL     1      85.345  54.109  40.253  0.00  0.00    -0.251 OA
ENDBRANCH  12  14
ENDBRANCH   1  12
BRANCH   5  16
ATOM     16  C   UNL     1      86.852  53.430  44.755  0.00  0.00    +0.126 C 
BRANCH  16  17
ATOM     17  O   UNL     1      86.310  52.288  44.091  0.00  0.00    -0.458 OA
BRANCH  17  18
ATOM     18  C   UNL     1      86.776  50.979  44.278  0.00  0.00    +0.339 C 
ATOM     19  O   UNL     1      86.180  50.201  45.073  0.00  0.00    -0.245 OA
BRANCH  18  20
ATOM     20  C   UNL     1      87.976  50.519  43.547  0.00  0.00    +0.059 A 
ATOM     21  C   UNL     1      88.707  49.401  43.994  0.00  0.00    -0.048 A 
ATOM     22  C   UNL     1      89.839  48.971  43.294  0.00  0.00    -0.061 A 
ATOM     23  C   UNL     1      90.252  49.648  42.144  0.00  0.00    -0.062 A 
ATOM     24  C   UNL     1      89.534  50.757  41.691  0.00  0.00    -0.061 A 
ATOM     25  C   UNL     1      88.401  51.192  42.387  0.00  0.00    -0.048 A 
ENDBRANCH  18  20
ENDBRANCH  17  18
ENDBRANCH  16  17
ENDBRANCH   5  16
TORSDOF 8
ENDMDL
MODEL 6
REMARK VINA RESULT:    -6.995      3.188      6.568
REMARK INTER + INTRA:         -10.884
REMARK INTER:                  -9.735
REMARK INTRA:                  -1.149
REMARK UNBOUND:                -1.027
REMARK  Name = 
REMARK  9 active torsions:
REMARK  status: ('A' for Active; 'I' for Inactive)
REMARK    1  A    between atoms: C_1  and  C_2
REMARK    2  A    between atoms: C_2  and  O_4
REMARK    3  A    between atoms: O_4  and  C_5
REMARK    4  A    between atoms: C_9  and  O_12
REMARK    5  A    between atoms: C_9  and  C_13
REMARK    6  A    between atoms: C_10  and  O_11
REMARK    7  A    between atoms: C_13  and  O_14
REMARK    8  A    between atoms: O_14  and  C_15
REMARK    9  A    between atoms: C_15  and  C_17
REMARK                            x       y       z     vdW  Elec       q    Type
REMARK                         _______ _______ _______ _____ _____    ______ ____
ROOT
ATOM      1  C   UNL     1      86.569  51.313  41.819  0.00  0.00    +0.150 C 
ATOM      2  C   UNL     1      86.404  52.804  41.651  0.00  0.00    -0.044 C 
ATOM      3  C   UNL     1      86.255  53.656  42.678  0.00  0.00    -0.064 C 
ATOM      4  C   UNL     1      86.037  53.205  44.102  0.00  0.00    +0.087 C 
ATOM      5  C   UNL     1      86.533  51.740  44.353  0.00  0.00    +0.149 C 
ATOM      6  C   UNL     1      86.066  50.810  43.194  0.00  0.00    +0.129 C 
ATOM      7 CL   UNL     1      84.303  53.454  44.482  0.00  0.00    -0.114 Cl
ENDROOT
BRANCH   6   8
ATOM      8  O   UNL     1      84.661  50.734  43.151  0.00  0.00    -0.385 OA
ATOM      9  H   UNL     1      84.309  50.740  44.055  0.00  0.00    +0.000 HD
ENDBRANCH   6   8
BRANCH   5  10
ATOM     10  O   UNL     1      87.944  51.704  44.423  0.00  0.00    -0.381 OA
ATOM     11  H   UNL     1      88.220  51.581  45.345  0.00  0.00    +0.000 HD
ENDBRANCH   5  10
BRANCH   1  12
ATOM     12  O   UNL     1      87.947  50.988  41.631  0.00  0.00    -0.455 OA
BRANCH  12  14
ATOM     13  C   UNL     1      89.856  52.498  41.082  0.00  0.00    +0.033 C 
ATOM     14  C   UNL     1      88.758  51.584  40.659  0.00  0.00    +0.305 C 
ATOM     15  O   UNL     1      88.541  51.395  39.431  0.00  0.00    -0.251 OA
ENDBRANCH  12  14
ENDBRANCH   1  12
BRANCH   5  16
ATOM     16  C   UNL     1      86.015  51.193  45.708  0.00  0.00    +0.126 C 
BRANCH  16  17
ATOM     17  O   UNL     1      86.725  51.772  46.804  0.00  0.00    -0.458 OA
BRANCH  17  18
ATOM     18  C   UNL     1      86.110  52.271  47.959  0.00  0.00    +0.339 C 
ATOM     19  O   UNL     1      86.138  51.605  49.032  0.00  0.00    -0.245 OA
BRANCH  18  20
ATOM     20  C   UNL     1      85.417  53.576  47.914  0.00  0.00    +0.059 A 
ATOM     21  C   UNL     1      86.056  54.713  47.383  0.00  0.00    -0.048 A 
ATOM     22  C   UNL     1      85.391  55.943  47.340  0.00  0.00    -0.061 A 
ATOM     23  C   UNL     1      84.086  56.051  47.826  0.00  0.00    -0.062 A 
ATOM     24  C   UNL     1      83.442  54.930  48.353  0.00  0.00    -0.061 A 
ATOM     25  C   UNL     1      84.101  53.698  48.399  0.00  0.00    -0.048 A 
ENDBRANCH  18  20
ENDBRANCH  17  18
ENDBRANCH  16  17
ENDBRANCH   5  16
TORSDOF 8
ENDMDL
MODEL 7
REMARK VINA RESULT:    -6.958      3.141      5.137
REMARK INTER + INTRA:         -10.833
REMARK INTER:                  -9.866
REMARK INTRA:                  -0.967
REMARK UNBOUND:                -1.027
REMARK  Name = 
REMARK  9 active torsions:
REMARK  status: ('A' for Active; 'I' for Inactive)
REMARK    1  A    between atoms: C_1  and  C_2
REMARK    2  A    between atoms: C_2  and  O_4
REMARK    3  A    between atoms: O_4  and  C_5
REMARK    4  A    between atoms: C_9  and  O_12
REMARK    5  A    between atoms: C_9  and  C_13
REMARK    6  A    between atoms: C_10  and  O_11
REMARK    7  A    between atoms: C_13  and  O_14
REMARK    8  A    between atoms: O_14  and  C_15
REMARK    9  A    between atoms: C_15  and  C_17
REMARK                            x       y       z     vdW  Elec       q    Type
REMARK                         _______ _______ _______ _____ _____    ______ ____
ROOT
ATOM      1  C   UNL     1      85.342  55.953  43.968  0.00  0.00    +0.150 C 
ATOM      2  C   UNL     1      84.356  56.247  42.863  0.00  0.00    -0.044 C 
ATOM      3  C   UNL     1      83.857  55.307  42.043  0.00  0.00    -0.064 C 
ATOM      4  C   UNL     1      84.371  53.888  42.002  0.00  0.00    +0.087 C 
ATOM      5  C   UNL     1      85.115  53.478  43.318  0.00  0.00    +0.149 C 
ATOM      6  C   UNL     1      86.086  54.612  43.761  0.00  0.00    +0.129 C 
ATOM      7 CL   UNL     1      85.375  53.728  40.525  0.00  0.00    -0.114 Cl
ENDROOT
BRANCH   6   8
ATOM      8  O   UNL     1      87.095  54.809  42.799  0.00  0.00    -0.385 OA
ATOM      9  H   UNL     1      87.874  54.281  43.035  0.00  0.00    +0.000 HD
ENDBRANCH   6   8
BRANCH   5  10
ATOM     10  O   UNL     1      84.185  53.245  44.356  0.00  0.00    -0.381 OA
ATOM     11  H   UNL     1      83.935  54.089  44.763  0.00  0.00    +0.000 HD
ENDBRANCH   5  10
BRANCH   1  12
ATOM     12  O   UNL     1      84.640  55.960  45.212  0.00  0.00    -0.455 OA
BRANCH  12  14
ATOM     13  C   UNL     1      84.644  58.297  46.087  0.00  0.00    +0.033 C 
ATOM     14  C   UNL     1      84.926  56.843  46.258  0.00  0.00    +0.305 C 
ATOM     15  O   UNL     1      85.461  56.432  47.324  0.00  0.00    -0.251 OA
ENDBRANCH  12  14
ENDBRANCH   1  12
BRANCH   5  16
ATOM     16  C   UNL     1      85.902  52.155  43.131  0.00  0.00    +0.126 C 
BRANCH  16  17
ATOM     17  O   UNL     1      87.147  52.191  43.830  0.00  0.00    -0.458 OA
BRANCH  17  18
ATOM     18  C   UNL     1      87.566  51.207  44.736  0.00  0.00    +0.339 C 
ATOM     19  O   UNL     1      88.258  50.230  44.336  0.00  0.00    -0.245 OA
BRANCH  18  20
ATOM     20  C   UNL     1      87.184  51.314  46.160  0.00  0.00    +0.059 A 
ATOM     21  C   UNL     1      87.553  50.314  47.081  0.00  0.00    -0.048 A 
ATOM     22  C   UNL     1      87.190  50.426  48.427  0.00  0.00    -0.061 A 
ATOM     23  C   UNL     1      86.458  51.531  48.867  0.00  0.00    -0.062 A 
ATOM     24  C   UNL     1      86.088  52.529  47.963  0.00  0.00    -0.061 A 
ATOM     25  C   UNL     1      86.448  52.423  46.615  0.00  0.00    -0.048 A 
ENDBRANCH  18  20
ENDBRANCH  17  18
ENDBRANCH  16  17
ENDBRANCH   5  16
TORSDOF 8
ENDMDL
MODEL 8
REMARK VINA RESULT:    -6.908      3.698      6.068
REMARK INTER + INTRA:         -10.762
REMARK INTER:                  -9.734
REMARK INTRA:                  -1.027
REMARK UNBOUND:                -1.027
REMARK  Name = 
REMARK  9 active torsions:
REMARK  status: ('A' for Active; 'I' for Inactive)
REMARK    1  A    between atoms: C_1  and  C_2
REMARK    2  A    between atoms: C_2  and  O_4
REMARK    3  A    between atoms: O_4  and  C_5
REMARK    4  A    between atoms: C_9  and  O_12
REMARK    5  A    between atoms: C_9  and  C_13
REMARK    6  A    between atoms: C_10  and  O_11
REMARK    7  A    between atoms: C_13  and  O_14
REMARK    8  A    between atoms: O_14  and  C_15
REMARK    9  A    between atoms: C_15  and  C_17
REMARK                            x       y       z     vdW  Elec       q    Type
REMARK                         _______ _______ _______ _____ _____    ______ ____
ROOT
ATOM      1  C   UNL     1      89.448  50.063  41.575  0.00  0.00    +0.150 C 
ATOM      2  C   UNL     1      89.482  51.570  41.491  0.00  0.00    -0.044 C 
ATOM      3  C   UNL     1      88.612  52.370  42.131  0.00  0.00    -0.064 C 
ATOM      4  C   UNL     1      87.386  51.855  42.845  0.00  0.00    +0.087 C 
ATOM      5  C   UNL     1      87.506  50.343  43.234  0.00  0.00    +0.149 C 
ATOM      6  C   UNL     1      88.073  49.524  42.037  0.00  0.00    +0.129 C 
ATOM      7 CL   UNL     1      85.971  52.224  41.808  0.00  0.00    -0.114 Cl
ENDROOT
BRANCH   6   8
ATOM      8  O   UNL     1      87.189  49.566  40.942  0.00  0.00    -0.385 OA
ATOM      9  H   UNL     1      86.304  49.295  41.230  0.00  0.00    +0.000 HD
ENDBRANCH   6   8
BRANCH   5  10
ATOM     10  O   UNL     1      88.371  50.187  44.341  0.00  0.00    -0.381 OA
ATOM     11  H   UNL     1      88.497  49.242  44.524  0.00  0.00    +0.000 HD
ENDBRANCH   5  10
BRANCH   1  12
ATOM     12  O   UNL     1      90.485  49.638  42.460  0.00  0.00    -0.455 OA
BRANCH  12  14
ATOM     13  C   UNL     1      90.505  47.256  41.717  0.00  0.00    +0.033 C 
ATOM     14  C   UNL     1      90.750  48.296  42.755  0.00  0.00    +0.305 C 
ATOM     15  O   UNL     1      91.147  47.953  43.902  0.00  0.00    -0.251 OA
ENDBRANCH  12  14
ENDBRANCH   1  12
BRANCH   5  16
ATOM     16  C   UNL     1      86.135  49.762  43.668  0.00  0.00    +0.126 C 
BRANCH  16  17
ATOM     17  O   UNL     1      85.924  48.464  43.109  0.00  0.00    -0.458 OA
BRANCH  17  18
ATOM     18  C   UNL     1      85.528  47.346  43.853  0.00  0.00    +0.339 C 
ATOM     19  O   UNL     1      84.598  47.444  44.701  0.00  0.00    -0.245 OA
BRANCH  18  20
ATOM     20  C   UNL     1      86.213  46.051  43.649  0.00  0.00    +0.059 A 
ATOM     21  C   UNL     1      87.216  45.914  42.671  0.00  0.00    -0.048 A 
ATOM     22  C   UNL     1      87.862  44.686  42.488  0.00  0.00    -0.061 A 
ATOM     23  C   UNL     1      87.514  43.587  43.277  0.00  0.00    -0.062 A 
ATOM     24  C   UNL     1      86.523  43.713  44.251  0.00  0.00    -0.061 A 
ATOM     25  C   UNL     1      85.873  44.938  44.439  0.00  0.00    -0.048 A 
ENDBRANCH  18  20
ENDBRANCH  17  18
ENDBRANCH  16  17
ENDBRANCH   5  16
TORSDOF 8
ENDMDL
MODEL 9
REMARK VINA RESULT:    -6.753      1.972      3.812
REMARK INTER + INTRA:         -10.544
REMARK INTER:                  -9.367
REMARK INTRA:                  -1.177
REMARK UNBOUND:                -1.027
REMARK  Name = 
REMARK  9 active torsions:
REMARK  status: ('A' for Active; 'I' for Inactive)
REMARK    1  A    between atoms: C_1  and  C_2
REMARK    2  A    between atoms: C_2  and  O_4
REMARK    3  A    between atoms: O_4  and  C_5
REMARK    4  A    between atoms: C_9  and  O_12
REMARK    5  A    between atoms: C_9  and  C_13
REMARK    6  A    between atoms: C_10  and  O_11
REMARK    7  A    between atoms: C_13  and  O_14
REMARK    8  A    between atoms: O_14  and  C_15
REMARK    9  A    between atoms: C_15  and  C_17
REMARK                            x       y       z     vdW  Elec       q    Type
REMARK                         _______ _______ _______ _____ _____    ______ ____
ROOT
ATOM      1  C   UNL     1      85.189  55.369  44.019  0.00  0.00    +0.150 C 
ATOM      2  C   UNL     1      84.161  55.964  43.087  0.00  0.00    -0.044 C 
ATOM      3  C   UNL     1      83.598  55.288  42.072  0.00  0.00    -0.064 C 
ATOM      4  C   UNL     1      84.069  53.925  41.624  0.00  0.00    +0.087 C 
ATOM      5  C   UNL     1      84.861  53.164  42.741  0.00  0.00    +0.149 C 
ATOM      6  C   UNL     1      85.883  54.122  43.422  0.00  0.00    +0.129 C 
ATOM      7 CL   UNL     1      84.998  54.153  40.109  0.00  0.00    -0.114 Cl
ENDROOT
BRANCH   6   8
ATOM      8  O   UNL     1      86.852  54.555  42.496  0.00  0.00    -0.385 OA
ATOM      9  H   UNL     1      87.668  54.045  42.619  0.00  0.00    +0.000 HD
ENDBRANCH   6   8
BRANCH   5  10
ATOM     10  O   UNL     1      83.973  52.674  43.726  0.00  0.00    -0.381 OA
ATOM     11  H   UNL     1      83.876  53.332  44.432  0.00  0.00    +0.000 HD
ENDBRANCH   5  10
BRANCH   1  12
ATOM     12  O   UNL     1      84.545  55.050  45.254  0.00  0.00    -0.455 OA
BRANCH  12  14
ATOM     13  C   UNL     1      86.050  55.400  47.213  0.00  0.00    +0.033 C 
ATOM     14  C   UNL     1      85.213  54.511  46.360  0.00  0.00    +0.305 C 
ATOM     15  O   UNL     1      85.152  53.277  46.613  0.00  0.00    -0.251 OA
ENDBRANCH  12  14
ENDBRANCH   1  12
BRANCH   5  16
ATOM     16  C   UNL     1      85.599  51.928  42.166  0.00  0.00    +0.126 C 
BRANCH  16  17
ATOM     17  O   UNL     1      86.885  51.768  42.768  0.00  0.00    -0.458 OA
BRANCH  17  18
ATOM     18  C   UNL     1      88.066  51.552  42.047  0.00  0.00    +0.339 C 
ATOM     19  O   UNL     1      88.622  52.507  41.438  0.00  0.00    -0.245 OA
BRANCH  18  20
ATOM     20  C   UNL     1      88.652  50.195  41.993  0.00  0.00    +0.059 A 
ATOM     21  C   UNL     1      90.042  50.005  42.119  0.00  0.00    -0.048 A 
ATOM     22  C   UNL     1      90.586  48.718  42.071  0.00  0.00    -0.061 A 
ATOM     23  C   UNL     1      89.753  47.610  41.898  0.00  0.00    -0.062 A 
ATOM     24  C   UNL     1      88.374  47.786  41.773  0.00  0.00    -0.061 A 
ATOM     25  C   UNL     1      87.823  49.071  41.821  0.00  0.00    -0.048 A 
ENDBRANCH  18  20
ENDBRANCH  17  18
ENDBRANCH  16  17
ENDBRANCH   5  16
TORSDOF 8
ENDMDL
