MODEL 1
REMARK VINA RESULT:    -7.711      0.000      0.000
REMARK INTER + INTRA:         -14.479
REMARK INTER:                 -12.844
REMARK INTRA:                  -1.635
REMARK UNBOUND:                -1.809
REMARK  Name = 
REMARK  14 active torsions:
REMARK  status: ('A' for Active; 'I' for Inactive)
REMARK    1  A    between atoms: C_1  and  O_2
REMARK    2  A    between atoms: O_2  and  C_3
REMARK    3  A    between atoms: C_8  and  C_9
REMARK    4  A    between atoms: C_9  and  C_10
REMARK    5  A    between atoms: C_9  and  O_25
REMARK    6  A    between atoms: C_10  and  O_11
REMARK    7  A    between atoms: C_10  and  C_15
REMARK    8  A    between atoms: O_11  and  C_12
REMARK    9  A    between atoms: C_12  and  C_14
REMARK   10  A    between atoms: C_15  and  O_16
REMARK   11  A    between atoms: O_16  and  C_17
REMARK   12  A    between atoms: C_17  and  C_19
REMARK   13  A    between atoms: O_25  and  C_26
REMARK   14  A    between atoms: C_26  and  C_28
REMARK                            x       y       z     vdW  Elec       q    Type
REMARK                         _______ _______ _______ _____ _____    ______ ____
ROOT
ATOM      1  C   UNL     1      84.743  54.525  41.584  0.00  0.00    +0.177 C 
ENDROOT
BRANCH   1   2
ATOM      2  C   UNL     1      84.878  53.062  42.105  0.00  0.00    +0.182 C 
BRANCH   2   8
ATOM      3  C   UNL     1      86.929  51.466  42.711  0.00  0.00    +0.109 C 
ATOM      4  C   UNL     1      88.400  51.928  42.654  0.00  0.00    +0.075 C 
ATOM      5  C   UNL     1      88.380  52.997  41.638  0.00  0.00    +0.310 C 
ATOM      6  O   UNL     1      89.394  53.657  41.291  0.00  0.00    -0.251 OA
ATOM      7  O   UNL     1      87.130  53.221  41.110  0.00  0.00    -0.455 OA
ATOM      8  C   UNL     1      86.172  52.323  41.644  0.00  0.00    +0.170 C 
BRANCH   3  10
ATOM      9  C   UNL     1      87.393  51.424  44.988  0.00  0.00    +0.037 C 
ATOM     10  O   UNL     1      86.399  51.650  44.013  0.00  0.00    -0.375 OA
ENDBRANCH   3  10
ENDBRANCH   2   8
BRANCH   2  11
ATOM     11  O   UNL     1      83.762  52.299  41.631  0.00  0.00    -0.454 OA
BRANCH  11  12
ATOM     12  C   UNL     1      82.888  51.584  42.460  0.00  0.00    +0.304 C 
ATOM     13  O   UNL     1      83.232  51.241  43.625  0.00  0.00    -0.251 OA
ATOM     14  C   UNL     1      81.511  51.278  41.981  0.00  0.00    +0.033 C 
ENDBRANCH  11  12
ENDBRANCH   2  11
ENDBRANCH   1   2
BRANCH   1  15
ATOM     15  O   UNL     1      83.894  54.550  40.435  0.00  0.00    -0.454 OA
BRANCH  15  16
ATOM     16  C   UNL     1      84.324  54.894  39.147  0.00  0.00    +0.304 C 
ATOM     17  O   UNL     1      85.444  54.510  38.713  0.00  0.00    -0.251 OA
ATOM     18  C   UNL     1      83.461  55.763  38.298  0.00  0.00    +0.033 C 
ENDBRANCH  15  16
ENDBRANCH   1  15
BRANCH   1  19
ATOM     19  C   UNL     1      84.153  55.480  42.634  0.00  0.00    +0.133 C 
BRANCH  19  20
ATOM     20  O   UNL     1      84.797  56.753  42.568  0.00  0.00    -0.457 OA
BRANCH  20  21
ATOM     21  C   UNL     1      85.467  57.343  43.647  0.00  0.00    +0.339 C 
ATOM     22  O   UNL     1      85.932  58.512  43.543  0.00  0.00    -0.245 OA
BRANCH  21  23
ATOM     23  C   UNL     1      85.628  56.592  44.912  0.00  0.00    +0.059 A 
ATOM     24  C   UNL     1      84.797  56.858  46.016  0.00  0.00    -0.048 A 
ATOM     25  C   UNL     1      84.958  56.148  47.209  0.00  0.00    -0.061 A 
ATOM     26  C   UNL     1      85.949  55.169  47.314  0.00  0.00    -0.062 A 
ATOM     27  C   UNL     1      86.781  54.898  46.225  0.00  0.00    -0.061 A 
ATOM     28  C   UNL     1      86.624  55.605  45.029  0.00  0.00    -0.048 A 
ENDBRANCH  21  23
ENDBRANCH  20  21
ENDBRANCH  19  20
ENDBRANCH   1  19
TORSDOF 11
ENDMDL
MODEL 2
REMARK VINA RESULT:    -7.667      2.048      2.865
REMARK INTER + INTRA:         -14.407
REMARK INTER:                 -12.164
REMARK INTRA:                  -2.243
REMARK UNBOUND:                -1.809
REMARK  Name = 
REMARK  14 active torsions:
REMARK  status: ('A' for Active; 'I' for Inactive)
REMARK    1  A    between atoms: C_1  and  O_2
REMARK    2  A    between atoms: O_2  and  C_3
REMARK    3  A    between atoms: C_8  and  C_9
REMARK    4  A    between atoms: C_9  and  C_10
REMARK    5  A    between atoms: C_9  and  O_25
REMARK    6  A    between atoms: C_10  and  O_11
REMARK    7  A    between atoms: C_10  and  C_15
REMARK    8  A    between atoms: O_11  and  C_12
REMARK    9  A    between atoms: C_12  and  C_14
REMARK   10  A    between atoms: C_15  and  O_16
REMARK   11  A    between atoms: O_16  and  C_17
REMARK   12  A    between atoms: C_17  and  C_19
REMARK   13  A    between atoms: O_25  and  C_26
REMARK   14  A    between atoms: C_26  and  C_28
REMARK                            x       y       z     vdW  Elec       q    Type
REMARK                         _______ _______ _______ _____ _____    ______ ____
ROOT
ATOM      1  C   UNL     1      85.912  53.964  42.007  0.00  0.00    +0.177 C 
ENDROOT
BRANCH   1   2
ATOM      2  C   UNL     1      86.507  52.542  42.237  0.00  0.00    +0.182 C 
BRANCH   2   8
ATOM      3  C   UNL     1      88.702  51.132  41.674  0.00  0.00    +0.109 C 
ATOM      4  C   UNL     1      90.035  51.783  41.250  0.00  0.00    +0.075 C 
ATOM      5  C   UNL     1      89.609  53.048  40.621  0.00  0.00    +0.310 C 
ATOM      6  O   UNL     1      90.403  53.898  40.141  0.00  0.00    -0.251 OA
ATOM      7  O   UNL     1      88.244  53.223  40.623  0.00  0.00    -0.455 OA
ATOM      8  C   UNL     1      87.579  52.108  41.190  0.00  0.00    +0.170 C 
BRANCH   3  10
ATOM      9  C   UNL     1      88.989  49.602  43.400  0.00  0.00    +0.037 C 
ATOM     10  O   UNL     1      88.667  50.937  43.078  0.00  0.00    -0.375 OA
ENDBRANCH   3  10
ENDBRANCH   2   8
BRANCH   2  11
ATOM     11  O   UNL     1      85.446  51.582  42.182  0.00  0.00    -0.454 OA
BRANCH  11  12
ATOM     12  C   UNL     1      84.998  50.839  43.281  0.00  0.00    +0.304 C 
ATOM     13  O   UNL     1      85.470  49.695  43.528  0.00  0.00    -0.251 OA
ATOM     14  C   UNL     1      83.995  51.435  44.208  0.00  0.00    +0.033 C 
ENDBRANCH  11  12
ENDBRANCH   2  11
ENDBRANCH   1   2
BRANCH   1  15
ATOM     15  O   UNL     1      84.690  53.860  41.272  0.00  0.00    -0.454 OA
BRANCH  15  16
ATOM     16  C   UNL     1      84.513  54.341  39.969  0.00  0.00    +0.304 C 
ATOM     17  O   UNL     1      85.407  54.186  39.093  0.00  0.00    -0.251 OA
ATOM     18  C   UNL     1      83.267  55.085  39.630  0.00  0.00    +0.033 C 
ENDBRANCH  15  16
ENDBRANCH   1  15
BRANCH   1  19
ATOM     19  C   UNL     1      85.617  54.707  43.319  0.00  0.00    +0.133 C 
BRANCH  19  20
ATOM     20  O   UNL     1      86.482  54.247  44.358  0.00  0.00    -0.457 OA
BRANCH  20  21
ATOM     21  C   UNL     1      86.131  54.231  45.715  0.00  0.00    +0.339 C 
ATOM     22  O   UNL     1      85.583  55.238  46.241  0.00  0.00    -0.245 OA
BRANCH  21  23
ATOM     23  C   UNL     1      86.404  53.025  46.528  0.00  0.00    +0.059 A 
ATOM     24  C   UNL     1      85.825  52.873  47.802  0.00  0.00    -0.048 A 
ATOM     25  C   UNL     1      86.092  51.734  48.568  0.00  0.00    -0.061 A 
ATOM     26  C   UNL     1      86.937  50.739  48.073  0.00  0.00    -0.062 A 
ATOM     27  C   UNL     1      87.518  50.880  46.811  0.00  0.00    -0.061 A 
ATOM     28  C   UNL     1      87.254  52.017  46.039  0.00  0.00    -0.048 A 
ENDBRANCH  21  23
ENDBRANCH  20  21
ENDBRANCH  19  20
ENDBRANCH   1  19
TORSDOF 11
ENDMDL
MODEL 3
REMARK VINA RESULT:    -7.655      2.507      6.003
REMARK INTER + INTRA:         -14.386
REMARK INTER:                 -12.517
REMARK INTRA:                  -1.869
REMARK UNBOUND:                -1.809
REMARK  Name = 
REMARK  14 active torsions:
REMARK  status: ('A' for Active; 'I' for Inactive)
REMARK    1  A    between atoms: C_1  and  O_2
REMARK    2  A    between atoms: O_2  and  C_3
REMARK    3  A    between atoms: C_8  and  C_9
REMARK    4  A    between atoms: C_9  and  C_10
REMARK    5  A    between atoms: C_9  and  O_25
REMARK    6  A    between atoms: C_10  and  O_11
REMARK    7  A    between atoms: C_10  and  C_15
REMARK    8  A    between atoms: O_11  and  C_12
REMARK    9  A    between atoms: C_12  and  C_14
REMARK   10  A    between atoms: C_15  and  O_16
REMARK   11  A    between atoms: O_16  and  C_17
REMARK   12  A    between atoms: C_17  and  C_19
REMARK   13  A    between atoms: O_25  and  C_26
REMARK   14  A    between atoms: C_26  and  C_28
REMARK                            x       y       z     vdW  Elec       q    Type
REMARK                         _______ _______ _______ _____ _____    ______ ____
ROOT
ATOM      1  C   UNL     1      87.790  50.141  42.258  0.00  0.00    +0.177 C 
ENDROOT
BRANCH   1   2
ATOM      2  C   UNL     1      87.467  51.523  41.613  0.00  0.00    +0.182 C 
BRANCH   2   8
ATOM      3  C   UNL     1      85.574  53.391  41.827  0.00  0.00    +0.109 C 
ATOM      4  C   UNL     1      84.505  53.382  42.941  0.00  0.00    +0.075 C 
ATOM      5  C   UNL     1      84.380  51.951  43.279  0.00  0.00    +0.310 C 
ATOM      6  O   UNL     1      83.607  51.502  44.164  0.00  0.00    -0.251 OA
ATOM      7  O   UNL     1      85.212  51.143  42.538  0.00  0.00    -0.455 OA
ATOM      8  C   UNL     1      85.952  51.892  41.589  0.00  0.00    +0.170 C 
BRANCH   3  10
ATOM      9  C   UNL     1      86.341  55.060  43.251  0.00  0.00    +0.037 C 
ATOM     10  O   UNL     1      86.695  54.165  42.220  0.00  0.00    -0.375 OA
ENDBRANCH   3  10
ENDBRANCH   2   8
BRANCH   2  11
ATOM     11  O   UNL     1      87.924  51.517  40.255  0.00  0.00    -0.454 OA
BRANCH  11  12
ATOM     12  C   UNL     1      88.786  52.477  39.711  0.00  0.00    +0.304 C 
ATOM     13  O   UNL     1      88.443  53.164  38.710  0.00  0.00    -0.251 OA
ATOM     14  C   UNL     1      90.103  52.731  40.361  0.00  0.00    +0.033 C 
ENDBRANCH  11  12
ENDBRANCH   2  11
ENDBRANCH   1   2
BRANCH   1  15
ATOM     15  O   UNL     1      88.583  49.364  41.359  0.00  0.00    -0.454 OA
BRANCH  15  16
ATOM     16  C   UNL     1      88.771  47.980  41.471  0.00  0.00    +0.304 C 
ATOM     17  O   UNL     1      87.798  47.184  41.375  0.00  0.00    -0.251 OA
ATOM     18  C   UNL     1      90.135  47.451  41.752  0.00  0.00    +0.033 C 
ENDBRANCH  15  16
ENDBRANCH   1  15
BRANCH   1  19
ATOM     19  C   UNL     1      88.559  50.268  43.583  0.00  0.00    +0.133 C 
BRANCH  19  20
ATOM     20  O   UNL     1      87.861  51.128  44.485  0.00  0.00    -0.457 OA
BRANCH  20  21
ATOM     21  C   UNL     1      87.111  50.669  45.577  0.00  0.00    +0.339 C 
ATOM     22  O   UNL     1      86.854  49.440  45.699  0.00  0.00    -0.245 OA
BRANCH  21  23
ATOM     23  C   UNL     1      86.624  51.633  46.588  0.00  0.00    +0.059 A 
ATOM     24  C   UNL     1      86.366  51.219  47.909  0.00  0.00    -0.048 A 
ATOM     25  C   UNL     1      85.900  52.134  48.858  0.00  0.00    -0.061 A 
ATOM     26  C   UNL     1      85.686  53.467  48.500  0.00  0.00    -0.062 A 
ATOM     27  C   UNL     1      85.936  53.888  47.193  0.00  0.00    -0.061 A 
ATOM     28  C   UNL     1      86.403  52.978  46.239  0.00  0.00    -0.048 A 
ENDBRANCH  21  23
ENDBRANCH  20  21
ENDBRANCH  19  20
ENDBRANCH   1  19
TORSDOF 11
ENDMDL
MODEL 4
REMARK VINA RESULT:    -7.573      1.950      4.197
REMARK INTER + INTRA:         -14.252
REMARK INTER:                 -12.532
REMARK INTRA:                  -1.720
REMARK UNBOUND:                -1.809
REMARK  Name = 
REMARK  14 active torsions:
REMARK  status: ('A' for Active; 'I' for Inactive)
REMARK    1  A    between atoms: C_1  and  O_2
REMARK    2  A    between atoms: O_2  and  C_3
REMARK    3  A    between atoms: C_8  and  C_9
REMARK    4  A    between atoms: C_9  and  C_10
REMARK    5  A    between atoms: C_9  and  O_25
REMARK    6  A    between atoms: C_10  and  O_11
REMARK    7  A    between atoms: C_10  and  C_15
REMARK    8  A    between atoms: O_11  and  C_12
REMARK    9  A    between atoms: C_12  and  C_14
REMARK   10  A    between atoms: C_15  and  O_16
REMARK   11  A    between atoms: O_16  and  C_17
REMARK   12  A    between atoms: C_17  and  C_19
REMARK   13  A    between atoms: O_25  and  C_26
REMARK   14  A    between atoms: C_26  and  C_28
REMARK                            x       y       z     vdW  Elec       q    Type
REMARK                         _______ _______ _______ _____ _____    ______ ____
ROOT
ATOM      1  C   UNL     1      86.092  53.127  41.517  0.00  0.00    +0.177 C 
ENDROOT
BRANCH   1   2
ATOM      2  C   UNL     1      87.321  52.312  41.011  0.00  0.00    +0.182 C 
BRANCH   2   8
ATOM      3  C   UNL     1      88.735  50.348  42.136  0.00  0.00    +0.109 C 
ATOM      4  C   UNL     1      88.478  49.841  43.570  0.00  0.00    +0.075 C 
ATOM      5  C   UNL     1      87.903  51.018  44.248  0.00  0.00    +0.310 C 
ATOM      6  O   UNL     1      87.536  51.028  45.451  0.00  0.00    -0.251 OA
ATOM      7  O   UNL     1      87.787  52.116  43.426  0.00  0.00    -0.455 OA
ATOM      8  C   UNL     1      88.303  51.852  42.132  0.00  0.00    +0.170 C 
BRANCH   3  10
ATOM      9  C   UNL     1      87.907  48.239  41.619  0.00  0.00    +0.037 C 
ATOM     10  O   UNL     1      87.999  49.582  41.197  0.00  0.00    -0.375 OA
ENDBRANCH   3  10
ENDBRANCH   2   8
BRANCH   2  11
ATOM     11  O   UNL     1      88.069  53.124  40.099  0.00  0.00    -0.454 OA
BRANCH  11  12
ATOM     12  C   UNL     1      89.251  52.714  39.468  0.00  0.00    +0.304 C 
ATOM     13  O   UNL     1      89.280  51.672  38.757  0.00  0.00    -0.251 OA
ATOM     14  C   UNL     1      90.475  53.556  39.590  0.00  0.00    +0.033 C 
ENDBRANCH  11  12
ENDBRANCH   2  11
ENDBRANCH   1   2
BRANCH   1  15
ATOM     15  O   UNL     1      85.588  53.943  40.458  0.00  0.00    -0.454 OA
BRANCH  15  16
ATOM     16  C   UNL     1      84.685  54.999  40.640  0.00  0.00    +0.304 C 
ATOM     17  O   UNL     1      84.856  55.846  41.558  0.00  0.00    -0.251 OA
ATOM     18  C   UNL     1      83.485  55.091  39.762  0.00  0.00    +0.033 C 
ENDBRANCH  15  16
ENDBRANCH   1  15
BRANCH   1  19
ATOM     19  C   UNL     1      84.947  52.231  42.015  0.00  0.00    +0.133 C 
BRANCH  19  20
ATOM     20  O   UNL     1      84.275  52.846  43.115  0.00  0.00    -0.457 OA
BRANCH  20  21
ATOM     21  C   UNL     1      84.437  52.448  44.449  0.00  0.00    +0.339 C 
ATOM     22  O   UNL     1      84.135  51.274  44.802  0.00  0.00    -0.245 OA
BRANCH  21  23
ATOM     23  C   UNL     1      84.966  53.408  45.442  0.00  0.00    +0.059 A 
ATOM     24  C   UNL     1      84.721  53.228  46.816  0.00  0.00    -0.048 A 
ATOM     25  C   UNL     1      85.219  54.143  47.749  0.00  0.00    -0.061 A 
ATOM     26  C   UNL     1      85.964  55.245  47.321  0.00  0.00    -0.062 A 
ATOM     27  C   UNL     1      86.212  55.434  45.960  0.00  0.00    -0.061 A 
ATOM     28  C   UNL     1      85.716  54.522  45.022  0.00  0.00    -0.048 A 
ENDBRANCH  21  23
ENDBRANCH  20  21
ENDBRANCH  19  20
ENDBRANCH   1  19
TORSDOF 11
ENDMDL
MODEL 5
REMARK VINA RESULT:    -7.557      2.570      4.519
REMARK INTER + INTRA:         -14.225
REMARK INTER:                 -12.386
REMARK INTRA:                  -1.839
REMARK UNBOUND:                -1.809
REMARK  Name = 
REMARK  14 active torsions:
REMARK  status: ('A' for Active; 'I' for Inactive)
REMARK    1  A    between atoms: C_1  and  O_2
REMARK    2  A    between atoms: O_2  and  C_3
REMARK    3  A    between atoms: C_8  and  C_9
REMARK    4  A    between atoms: C_9  and  C_10
REMARK    5  A    between atoms: C_9  and  O_25
REMARK    6  A    between atoms: C_10  and  O_11
REMARK    7  A    between atoms: C_10  and  C_15
REMARK    8  A    between atoms: O_11  and  C_12
REMARK    9  A    between atoms: C_12  and  C_14
REMARK   10  A    between atoms: C_15  and  O_16
REMARK   11  A    between atoms: O_16  and  C_17
REMARK   12  A    between atoms: C_17  and  C_19
REMARK   13  A    between atoms: O_25  and  C_26
REMARK   14  A    between atoms: C_26  and  C_28
REMARK                            x       y       z     vdW  Elec       q    Type
REMARK                         _______ _______ _______ _____ _____    ______ ____
ROOT
ATOM      1  C   UNL     1      87.799  51.473  41.466  0.00  0.00    +0.177 C 
ENDROOT
BRANCH   1   2
ATOM      2  C   UNL     1      87.466  49.994  41.827  0.00  0.00    +0.182 C 
BRANCH   2   8
ATOM      3  C   UNL     1      86.464  49.091  44.130  0.00  0.00    +0.109 C 
ATOM      4  C   UNL     1      86.402  49.945  45.413  0.00  0.00    +0.075 C 
ATOM      5  C   UNL     1      87.522  50.891  45.245  0.00  0.00    +0.310 C 
ATOM      6  O   UNL     1      87.820  51.785  46.079  0.00  0.00    -0.251 OA
ATOM      7  O   UNL     1      88.210  50.714  44.066  0.00  0.00    -0.455 OA
ATOM      8  C   UNL     1      87.696  49.622  43.324  0.00  0.00    +0.170 C 
BRANCH   3  10
ATOM      9  C   UNL     1      84.285  49.898  44.148  0.00  0.00    +0.037 C 
ATOM     10  O   UNL     1      85.258  49.209  43.394  0.00  0.00    -0.375 OA
ENDBRANCH   3  10
ENDBRANCH   2   8
BRANCH   2  11
ATOM     11  O   UNL     1      88.295  49.129  41.042  0.00  0.00    -0.454 OA
BRANCH  11  12
ATOM     12  C   UNL     1      88.675  47.838  41.430  0.00  0.00    +0.304 C 
ATOM     13  O   UNL     1      87.834  46.898  41.472  0.00  0.00    -0.251 OA
ATOM     14  C   UNL     1      90.106  47.558  41.739  0.00  0.00    +0.033 C 
ENDBRANCH  11  12
ENDBRANCH   2  11
ENDBRANCH   1   2
BRANCH   1  15
ATOM     15  O   UNL     1      88.276  51.544  40.121  0.00  0.00    -0.454 OA
BRANCH  15  16
ATOM     16  C   UNL     1      89.005  52.622  39.601  0.00  0.00    +0.304 C 
ATOM     17  O   UNL     1      88.617  53.227  38.565  0.00  0.00    -0.251 OA
ATOM     18  C   UNL     1      90.279  53.025  40.259  0.00  0.00    +0.033 C 
ENDBRANCH  15  16
ENDBRANCH   1  15
BRANCH   1  19
ATOM     19  C   UNL     1      86.583  52.405  41.591  0.00  0.00    +0.133 C 
BRANCH  19  20
ATOM     20  O   UNL     1      86.964  53.645  42.190  0.00  0.00    -0.457 OA
BRANCH  20  21
ATOM     21  C   UNL     1      86.064  54.515  42.820  0.00  0.00    +0.339 C 
ATOM     22  O   UNL     1      85.463  55.399  42.149  0.00  0.00    -0.245 OA
BRANCH  21  23
ATOM     23  C   UNL     1      85.821  54.393  44.274  0.00  0.00    +0.059 A 
ATOM     24  C   UNL     1      84.826  53.527  44.765  0.00  0.00    -0.048 A 
ATOM     25  C   UNL     1      84.597  53.421  46.140  0.00  0.00    -0.061 A 
ATOM     26  C   UNL     1      85.356  54.177  47.037  0.00  0.00    -0.062 A 
ATOM     27  C   UNL     1      86.344  55.041  46.561  0.00  0.00    -0.061 A 
ATOM     28  C   UNL     1      86.578  55.151  45.186  0.00  0.00    -0.048 A 
ENDBRANCH  21  23
ENDBRANCH  20  21
ENDBRANCH  19  20
ENDBRANCH   1  19
TORSDOF 11
ENDMDL
MODEL 6
REMARK VINA RESULT:    -7.389      2.529      5.876
REMARK INTER + INTRA:         -13.948
REMARK INTER:                 -12.722
REMARK INTRA:                  -1.227
REMARK UNBOUND:                -1.809
REMARK  Name = 
REMARK  14 active torsions:
REMARK  status: ('A' for Active; 'I' for Inactive)
REMARK    1  A    between atoms: C_1  and  O_2
REMARK    2  A    between atoms: O_2  and  C_3
REMARK    3  A    between atoms: C_8  and  C_9
REMARK    4  A    between atoms: C_9  and  C_10
REMARK    5  A    between atoms: C_9  and  O_25
REMARK    6  A    between atoms: C_10  and  O_11
REMARK    7  A    between atoms: C_10  and  C_15
REMARK    8  A    between atoms: O_11  and  C_12
REMARK    9  A    between atoms: C_12  and  C_14
REMARK   10  A    between atoms: C_15  and  O_16
REMARK   11  A    between atoms: O_16  and  C_17
REMARK   12  A    between atoms: C_17  and  C_19
REMARK   13  A    between atoms: O_25  and  C_26
REMARK   14  A    between atoms: C_26  and  C_28
REMARK                            x       y       z     vdW  Elec       q    Type
REMARK                         _______ _______ _______ _____ _____    ______ ____
ROOT
ATOM      1  C   UNL     1      85.932  52.902  42.039  0.00  0.00    +0.177 C 
ENDROOT
BRANCH   1   2
ATOM      2  C   UNL     1      87.178  52.186  41.437  0.00  0.00    +0.182 C 
BRANCH   2   8
ATOM      3  C   UNL     1      88.843  50.265  42.250  0.00  0.00    +0.109 C 
ATOM      4  C   UNL     1      88.650  49.487  43.569  0.00  0.00    +0.075 C 
ATOM      5  C   UNL     1      87.914  50.441  44.420  0.00  0.00    +0.310 C 
ATOM      6  O   UNL     1      87.542  50.192  45.596  0.00  0.00    -0.251 OA
ATOM      7  O   UNL     1      87.654  51.638  43.795  0.00  0.00    -0.455 OA
ATOM      8  C   UNL     1      88.208  51.674  42.491  0.00  0.00    +0.170 C 
BRANCH   3  10
ATOM      9  C   UNL     1      88.080  48.211  41.475  0.00  0.00    +0.037 C 
ATOM     10  O   UNL     1      88.225  49.581  41.173  0.00  0.00    -0.375 OA
ENDBRANCH   3  10
ENDBRANCH   2   8
BRANCH   2  11
ATOM     11  O   UNL     1      87.869  53.102  40.579  0.00  0.00    -0.454 OA
BRANCH  11  12
ATOM     12  C   UNL     1      88.876  52.732  39.679  0.00  0.00    +0.304 C 
ATOM     13  O   UNL     1      88.654  51.890  38.766  0.00  0.00    -0.251 OA
ATOM     14  C   UNL     1      90.212  53.388  39.765  0.00  0.00    +0.033 C 
ENDBRANCH  11  12
ENDBRANCH   2  11
ENDBRANCH   1   2
BRANCH   1  15
ATOM     15  O   UNL     1      86.027  54.309  41.806  0.00  0.00    -0.454 OA
BRANCH  15  16
ATOM     16  C   UNL     1      84.930  55.137  41.537  0.00  0.00    +0.304 C 
ATOM     17  O   UNL     1      84.733  55.597  40.379  0.00  0.00    -0.251 OA
ATOM     18  C   UNL     1      84.010  55.512  42.647  0.00  0.00    +0.033 C 
ENDBRANCH  15  16
ENDBRANCH   1  15
BRANCH   1  19
ATOM     19  C   UNL     1      84.609  52.407  41.434  0.00  0.00    +0.133 C 
BRANCH  19  20
ATOM     20  O   UNL     1      83.770  51.857  42.450  0.00  0.00    -0.457 OA
BRANCH  20  21
ATOM     21  C   UNL     1      82.393  51.651  42.297  0.00  0.00    +0.339 C 
ATOM     22  O   UNL     1      81.682  52.519  41.718  0.00  0.00    -0.245 OA
BRANCH  21  23
ATOM     23  C   UNL     1      81.774  50.411  42.814  0.00  0.00    +0.059 A 
ATOM     24  C   UNL     1      82.573  49.333  43.241  0.00  0.00    -0.048 A 
ATOM     25  C   UNL     1      81.981  48.162  43.723  0.00  0.00    -0.061 A 
ATOM     26  C   UNL     1      80.589  48.054  43.784  0.00  0.00    -0.062 A 
ATOM     27  C   UNL     1      79.787  49.116  43.363  0.00  0.00    -0.061 A 
ATOM     28  C   UNL     1      80.373  50.290  42.879  0.00  0.00    -0.048 A 
ENDBRANCH  21  23
ENDBRANCH  20  21
ENDBRANCH  19  20
ENDBRANCH   1  19
TORSDOF 11
ENDMDL
MODEL 7
REMARK VINA RESULT:    -7.358      1.801      2.356
REMARK INTER + INTRA:         -13.898
REMARK INTER:                 -12.059
REMARK INTRA:                  -1.839
REMARK UNBOUND:                -1.809
REMARK  Name = 
REMARK  14 active torsions:
REMARK  status: ('A' for Active; 'I' for Inactive)
REMARK    1  A    between atoms: C_1  and  O_2
REMARK    2  A    between atoms: O_2  and  C_3
REMARK    3  A    between atoms: C_8  and  C_9
REMARK    4  A    between atoms: C_9  and  C_10
REMARK    5  A    between atoms: C_9  and  O_25
REMARK    6  A    between atoms: C_10  and  O_11
REMARK    7  A    between atoms: C_10  and  C_15
REMARK    8  A    between atoms: O_11  and  C_12
REMARK    9  A    between atoms: C_12  and  C_14
REMARK   10  A    between atoms: C_15  and  O_16
REMARK   11  A    between atoms: O_16  and  C_17
REMARK   12  A    between atoms: C_17  and  C_19
REMARK   13  A    between atoms: O_25  and  C_26
REMARK   14  A    between atoms: C_26  and  C_28
REMARK                            x       y       z     vdW  Elec       q    Type
REMARK                         _______ _______ _______ _____ _____    ______ ____
ROOT
ATOM      1  C   UNL     1      86.016  54.151  42.300  0.00  0.00    +0.177 C 
ENDROOT
BRANCH   1   2
ATOM      2  C   UNL     1      86.162  52.606  42.445  0.00  0.00    +0.182 C 
BRANCH   2   8
ATOM      3  C   UNL     1      88.028  51.007  41.405  0.00  0.00    +0.109 C 
ATOM      4  C   UNL     1      89.047  51.479  40.346  0.00  0.00    +0.075 C 
ATOM      5  C   UNL     1      88.337  52.575  39.660  0.00  0.00    +0.310 C 
ATOM      6  O   UNL     1      88.828  53.250  38.719  0.00  0.00    -0.251 OA
ATOM      7  O   UNL     1      87.077  52.806  40.162  0.00  0.00    -0.455 OA
ATOM      8  C   UNL     1      86.753  51.888  41.193  0.00  0.00    +0.170 C 
BRANCH   3  10
ATOM      9  C   UNL     1      88.859  49.891  43.267  0.00  0.00    +0.037 C 
ATOM     10  O   UNL     1      88.563  51.152  42.710  0.00  0.00    -0.375 OA
ENDBRANCH   3  10
ENDBRANCH   2   8
BRANCH   2  11
ATOM     11  O   UNL     1      84.868  52.041  42.686  0.00  0.00    -0.454 OA
BRANCH  11  12
ATOM     12  C   UNL     1      84.488  51.431  43.889  0.00  0.00    +0.304 C 
ATOM     13  O   UNL     1      84.116  50.226  43.916  0.00  0.00    -0.251 OA
ATOM     14  C   UNL     1      84.583  52.200  45.162  0.00  0.00    +0.033 C 
ENDBRANCH  11  12
ENDBRANCH   2  11
ENDBRANCH   1   2
BRANCH   1  15
ATOM     15  O   UNL     1      84.645  54.486  42.077  0.00  0.00    -0.454 OA
BRANCH  15  16
ATOM     16  C   UNL     1      84.139  54.963  40.861  0.00  0.00    +0.304 C 
ATOM     17  O   UNL     1      84.847  55.677  40.100  0.00  0.00    -0.251 OA
ATOM     18  C   UNL     1      82.729  54.656  40.487  0.00  0.00    +0.033 C 
ENDBRANCH  15  16
ENDBRANCH   1  15
BRANCH   1  19
ATOM     19  C   UNL     1      86.497  54.915  43.544  0.00  0.00    +0.133 C 
BRANCH  19  20
ATOM     20  O   UNL     1      85.427  55.673  44.109  0.00  0.00    -0.457 OA
BRANCH  20  21
ATOM     21  C   UNL     1      85.500  56.320  45.350  0.00  0.00    +0.339 C 
ATOM     22  O   UNL     1      85.880  57.521  45.418  0.00  0.00    -0.245 OA
BRANCH  21  23
ATOM     23  C   UNL     1      85.129  55.589  46.582  0.00  0.00    +0.059 A 
ATOM     24  C   UNL     1      86.101  54.896  47.327  0.00  0.00    -0.048 A 
ATOM     25  C   UNL     1      85.742  54.202  48.487  0.00  0.00    -0.061 A 
ATOM     26  C   UNL     1      84.412  54.193  48.913  0.00  0.00    -0.062 A 
ATOM     27  C   UNL     1      83.439  54.876  48.182  0.00  0.00    -0.061 A 
ATOM     28  C   UNL     1      83.792  55.572  47.021  0.00  0.00    -0.048 A 
ENDBRANCH  21  23
ENDBRANCH  20  21
ENDBRANCH  19  20
ENDBRANCH   1  19
TORSDOF 11
ENDMDL
MODEL 8
REMARK VINA RESULT:    -7.272      3.580      5.886
REMARK INTER + INTRA:         -13.758
REMARK INTER:                 -11.949
REMARK INTRA:                  -1.809
REMARK UNBOUND:                -1.809
REMARK  Name = 
REMARK  14 active torsions:
REMARK  status: ('A' for Active; 'I' for Inactive)
REMARK    1  A    between atoms: C_1  and  O_2
REMARK    2  A    between atoms: O_2  and  C_3
REMARK    3  A    between atoms: C_8  and  C_9
REMARK    4  A    between atoms: C_9  and  C_10
REMARK    5  A    between atoms: C_9  and  O_25
REMARK    6  A    between atoms: C_10  and  O_11
REMARK    7  A    between atoms: C_10  and  C_15
REMARK    8  A    between atoms: O_11  and  C_12
REMARK    9  A    between atoms: C_12  and  C_14
REMARK   10  A    between atoms: C_15  and  O_16
REMARK   11  A    between atoms: O_16  and  C_17
REMARK   12  A    between atoms: C_17  and  C_19
REMARK   13  A    between atoms: O_25  and  C_26
REMARK   14  A    between atoms: C_26  and  C_28
REMARK                            x       y       z     vdW  Elec       q    Type
REMARK                         _______ _______ _______ _____ _____    ______ ____
ROOT
ATOM      1  C   UNL     1      87.607  51.667  41.351  0.00  0.00    +0.177 C 
ENDROOT
BRANCH   1   2
ATOM      2  C   UNL     1      87.609  50.195  41.863  0.00  0.00    +0.182 C 
BRANCH   2   8
ATOM      3  C   UNL     1      87.095  49.048  44.217  0.00  0.00    +0.109 C 
ATOM      4  C   UNL     1      86.652  49.844  45.463  0.00  0.00    +0.075 C 
ATOM      5  C   UNL     1      87.239  51.179  45.237  0.00  0.00    +0.310 C 
ATOM      6  O   UNL     1      87.105  52.149  46.027  0.00  0.00    -0.251 OA
ATOM      7  O   UNL     1      87.942  51.271  44.058  0.00  0.00    -0.455 OA
ATOM      8  C   UNL     1      87.969  50.032  43.372  0.00  0.00    +0.170 C 
BRANCH   3  10
ATOM      9  C   UNL     1      85.619  47.281  43.900  0.00  0.00    +0.037 C 
ATOM     10  O   UNL     1      85.966  48.586  43.494  0.00  0.00    -0.375 OA
ENDBRANCH   3  10
ENDBRANCH   2   8
BRANCH   2  11
ATOM     11  O   UNL     1      88.572  49.446  41.113  0.00  0.00    -0.454 OA
BRANCH  11  12
ATOM     12  C   UNL     1      88.896  48.106  41.363  0.00  0.00    +0.304 C 
ATOM     13  O   UNL     1      88.035  47.194  41.226  0.00  0.00    -0.251 OA
ATOM     14  C   UNL     1      90.293  47.749  41.739  0.00  0.00    +0.033 C 
ENDBRANCH  11  12
ENDBRANCH   2  11
ENDBRANCH   1   2
BRANCH   1  15
ATOM     15  O   UNL     1      88.123  51.713  40.019  0.00  0.00    -0.454 OA
BRANCH  15  16
ATOM     16  C   UNL     1      89.004  52.696  39.550  0.00  0.00    +0.304 C 
ATOM     17  O   UNL     1      88.753  53.342  38.496  0.00  0.00    -0.251 OA
ATOM     18  C   UNL     1      90.275  52.946  40.286  0.00  0.00    +0.033 C 
ENDBRANCH  15  16
ENDBRANCH   1  15
BRANCH   1  19
ATOM     19  C   UNL     1      86.204  52.294  41.341  0.00  0.00    +0.133 C 
BRANCH  19  20
ATOM     20  O   UNL     1      85.259  51.409  41.944  0.00  0.00    -0.457 OA
BRANCH  20  21
ATOM     21  C   UNL     1      84.281  51.821  42.860  0.00  0.00    +0.339 C 
ATOM     22  O   UNL     1      84.466  52.850  43.567  0.00  0.00    -0.245 OA
BRANCH  21  23
ATOM     23  C   UNL     1      83.028  51.045  42.993  0.00  0.00    +0.059 A 
ATOM     24  C   UNL     1      82.965  49.922  43.839  0.00  0.00    -0.048 A 
ATOM     25  C   UNL     1      81.779  49.191  43.955  0.00  0.00    -0.061 A 
ATOM     26  C   UNL     1      80.647  49.571  43.231  0.00  0.00    -0.062 A 
ATOM     27  C   UNL     1      80.698  50.682  42.387  0.00  0.00    -0.061 A 
ATOM     28  C   UNL     1      81.882  51.419  42.267  0.00  0.00    -0.048 A 
ENDBRANCH  21  23
ENDBRANCH  20  21
ENDBRANCH  19  20
ENDBRANCH   1  19
TORSDOF 11
ENDMDL
MODEL 9
REMARK VINA RESULT:    -7.176      2.697      6.888
REMARK INTER + INTRA:         -13.599
REMARK INTER:                 -11.884
REMARK INTRA:                  -1.715
REMARK UNBOUND:                -1.809
REMARK  Name = 
REMARK  14 active torsions:
REMARK  status: ('A' for Active; 'I' for Inactive)
REMARK    1  A    between atoms: C_1  and  O_2
REMARK    2  A    between atoms: O_2  and  C_3
REMARK    3  A    between atoms: C_8  and  C_9
REMARK    4  A    between atoms: C_9  and  C_10
REMARK    5  A    between atoms: C_9  and  O_25
REMARK    6  A    between atoms: C_10  and  O_11
REMARK    7  A    between atoms: C_10  and  C_15
REMARK    8  A    between atoms: O_11  and  C_12
REMARK    9  A    between atoms: C_12  and  C_14
REMARK   10  A    between atoms: C_15  and  O_16
REMARK   11  A    between atoms: O_16  and  C_17
REMARK   12  A    between atoms: C_17  and  C_19
REMARK   13  A    between atoms: O_25  and  C_26
REMARK   14  A    between atoms: C_26  and  C_28
REMARK                            x       y       z     vdW  Elec       q    Type
REMARK                         _______ _______ _______ _____ _____    ______ ____
ROOT
ATOM      1  C   UNL     1      86.360  52.055  44.156  0.00  0.00    +0.177 C 
ENDROOT
BRANCH   1   2
ATOM      2  C   UNL     1      85.662  53.413  44.469  0.00  0.00    +0.182 C 
BRANCH   2   8
ATOM      3  C   UNL     1      85.040  54.746  46.696  0.00  0.00    +0.109 C 
ATOM      4  C   UNL     1      85.441  54.264  48.106  0.00  0.00    +0.075 C 
ATOM      5  C   UNL     1      85.538  52.800  47.948  0.00  0.00    +0.310 C 
ATOM      6  O   UNL     1      85.857  52.012  48.875  0.00  0.00    -0.251 OA
ATOM      7  O   UNL     1      85.260  52.372  46.670  0.00  0.00    -0.455 OA
ATOM      8  C   UNL     1      84.897  53.453  45.828  0.00  0.00    +0.170 C 
BRANCH   3  10
ATOM      9  C   UNL     1      85.543  56.958  46.187  0.00  0.00    +0.037 C 
ATOM     10  O   UNL     1      86.019  55.630  46.175  0.00  0.00    -0.375 OA
ENDBRANCH   3  10
ENDBRANCH   2   8
BRANCH   2  11
ATOM     11  O   UNL     1      84.709  53.692  43.437  0.00  0.00    -0.454 OA
BRANCH  11  12
ATOM     12  C   UNL     1      84.847  54.719  42.495  0.00  0.00    +0.304 C 
ATOM     13  O   UNL     1      85.393  54.507  41.378  0.00  0.00    -0.251 OA
ATOM     14  C   UNL     1      84.285  56.067  42.794  0.00  0.00    +0.033 C 
ENDBRANCH  11  12
ENDBRANCH   2  11
ENDBRANCH   1   2
BRANCH   1  15
ATOM     15  O   UNL     1      85.398  51.125  43.655  0.00  0.00    -0.454 OA
BRANCH  15  16
ATOM     16  C   UNL     1      85.189  49.846  44.188  0.00  0.00    +0.304 C 
ATOM     17  O   UNL     1      84.058  49.293  44.124  0.00  0.00    -0.251 OA
ATOM     18  C   UNL     1      86.313  49.152  44.879  0.00  0.00    +0.033 C 
ENDBRANCH  15  16
ENDBRANCH   1  15
BRANCH   1  19
ATOM     19  C   UNL     1      87.482  52.188  43.113  0.00  0.00    +0.133 C 
BRANCH  19  20
ATOM     20  O   UNL     1      87.091  51.583  41.880  0.00  0.00    -0.457 OA
BRANCH  20  21
ATOM     21  C   UNL     1      87.991  51.000  40.979  0.00  0.00    +0.339 C 
ATOM     22  O   UNL     1      88.180  51.520  39.844  0.00  0.00    -0.245 OA
BRANCH  21  23
ATOM     23  C   UNL     1      88.721  49.772  41.362  0.00  0.00    +0.059 A 
ATOM     24  C   UNL     1      88.066  48.527  41.395  0.00  0.00    -0.048 A 
ATOM     25  C   UNL     1      88.761  47.371  41.764  0.00  0.00    -0.061 A 
ATOM     26  C   UNL     1      90.114  47.446  42.105  0.00  0.00    -0.062 A 
ATOM     27  C   UNL     1      90.774  48.676  42.078  0.00  0.00    -0.061 A 
ATOM     28  C   UNL     1      90.084  49.836  41.709  0.00  0.00    -0.048 A 
ENDBRANCH  21  23
ENDBRANCH  20  21
ENDBRANCH  19  20
ENDBRANCH   1  19
TORSDOF 11
ENDMDL
