MODEL 1
REMARK VINA RESULT:    -7.724      0.000      0.000
REMARK INTER + INTRA:         -11.762
REMARK INTER:                 -10.652
REMARK INTRA:                  -1.110
REMARK UNBOUND:                -0.877
REMARK  Name = 
REMARK  9 active torsions:
REMARK  status: ('A' for Active; 'I' for Inactive)
REMARK    1  A    between atoms: C_1  and  C_2
REMARK    2  A    between atoms: C_2  and  O_4
REMARK    3  A    between atoms: O_4  and  C_5
REMARK    4  A    between atoms: C_9  and  O_12
REMARK    5  A    between atoms: C_9  and  C_13
REMARK    6  A    between atoms: C_10  and  O_11
REMARK    7  A    between atoms: C_13  and  O_14
REMARK    8  A    between atoms: O_14  and  C_15
REMARK    9  A    between atoms: C_15  and  C_17
REMARK                            x       y       z     vdW  Elec       q    Type
REMARK                         _______ _______ _______ _____ _____    ______ ____
ROOT
ATOM      1  C   UNL     1      88.877  46.940  41.924  0.00  0.00    +0.150 C 
ATOM      2  C   UNL     1      90.247  47.450  41.567  0.00  0.00    -0.044 C 
ATOM      3  C   UNL     1      90.579  48.748  41.607  0.00  0.00    -0.064 C 
ATOM      4  C   UNL     1      89.680  49.807  42.198  0.00  0.00    +0.087 C 
ATOM      5  C   UNL     1      88.178  49.380  42.235  0.00  0.00    +0.149 C 
ATOM      6  C   UNL     1      88.096  47.938  42.809  0.00  0.00    +0.129 C 
ATOM      7 CL   UNL     1      89.960  51.332  41.302  0.00  0.00    -0.114 Cl
ENDROOT
BRANCH   6   8
ATOM      8  O   UNL     1      86.751  47.533  42.888  0.00  0.00    -0.385 OA
ATOM      9  H   UNL     1      86.321  47.672  42.030  0.00  0.00    +0.000 HD
ENDBRANCH   6   8
BRANCH   5  10
ATOM     10  O   UNL     1      87.628  49.362  40.935  0.00  0.00    -0.381 OA
ATOM     11  H   UNL     1      87.492  48.444  40.654  0.00  0.00    +0.000 HD
ENDBRANCH   5  10
BRANCH   1  12
ATOM     12  O   UNL     1      89.027  45.693  42.604  0.00  0.00    -0.455 OA
BRANCH  12  14
ATOM     13  C   UNL     1      88.383  43.367  43.241  0.00  0.00    +0.033 C 
ATOM     14  C   UNL     1      88.102  44.645  42.527  0.00  0.00    +0.305 C 
ATOM     15  O   UNL     1      87.063  44.749  41.820  0.00  0.00    -0.251 OA
ENDBRANCH  12  14
ENDBRANCH   1  12
BRANCH   5  16
ATOM     16  C   UNL     1      87.356  50.326  43.159  0.00  0.00    +0.126 C 
BRANCH  16  17
ATOM     17  O   UNL     1      87.609  50.059  44.536  0.00  0.00    -0.458 OA
BRANCH  17  18
ATOM     18  C   UNL     1      86.589  49.854  45.469  0.00  0.00    +0.339 C 
ATOM     19  O   UNL     1      85.920  48.783  45.448  0.00  0.00    -0.245 OA
BRANCH  18  20
ATOM     20  C   UNL     1      86.295  50.893  46.480  0.00  0.00    +0.059 A 
ATOM     21  C   UNL     1      85.767  52.141  46.096  0.00  0.00    -0.048 A 
ATOM     22  C   UNL     1      85.491  53.117  47.059  0.00  0.00    -0.061 A 
ATOM     23  C   UNL     1      85.738  52.861  48.409  0.00  0.00    -0.062 A 
ATOM     24  C   UNL     1      86.264  51.628  48.801  0.00  0.00    -0.061 A 
ATOM     25  C   UNL     1      86.542  50.648  47.843  0.00  0.00    -0.048 A 
ENDBRANCH  18  20
ENDBRANCH  17  18
ENDBRANCH  16  17
ENDBRANCH   5  16
TORSDOF 8
ENDMDL
MODEL 2
REMARK VINA RESULT:    -7.646      6.291      8.483
REMARK INTER + INTRA:         -11.653
REMARK INTER:                 -10.779
REMARK INTRA:                  -0.874
REMARK UNBOUND:                -0.877
REMARK  Name = 
REMARK  9 active torsions:
REMARK  status: ('A' for Active; 'I' for Inactive)
REMARK    1  A    between atoms: C_1  and  C_2
REMARK    2  A    between atoms: C_2  and  O_4
REMARK    3  A    between atoms: O_4  and  C_5
REMARK    4  A    between atoms: C_9  and  O_12
REMARK    5  A    between atoms: C_9  and  C_13
REMARK    6  A    between atoms: C_10  and  O_11
REMARK    7  A    between atoms: C_13  and  O_14
REMARK    8  A    between atoms: O_14  and  C_15
REMARK    9  A    between atoms: C_15  and  C_17
REMARK                            x       y       z     vdW  Elec       q    Type
REMARK                         _______ _______ _______ _____ _____    ______ ____
ROOT
ATOM      1  C   UNL     1      86.656  54.568  45.912  0.00  0.00    +0.150 C 
ATOM      2  C   UNL     1      86.334  55.516  47.035  0.00  0.00    -0.044 C 
ATOM      3  C   UNL     1      85.636  56.647  46.860  0.00  0.00    -0.064 C 
ATOM      4  C   UNL     1      84.937  56.989  45.567  0.00  0.00    +0.087 C 
ATOM      5  C   UNL     1      85.534  56.238  44.334  0.00  0.00    +0.149 C 
ATOM      6  C   UNL     1      85.699  54.739  44.710  0.00  0.00    +0.129 C 
ATOM      7 CL   UNL     1      84.951  58.770  45.384  0.00  0.00    -0.114 Cl
ENDROOT
BRANCH   6   8
ATOM      8  O   UNL     1      86.205  54.025  43.610  0.00  0.00    -0.385 OA
ATOM      9  H   UNL     1      86.458  54.646  42.910  0.00  0.00    +0.000 HD
ENDBRANCH   6   8
BRANCH   5  10
ATOM     10  O   UNL     1      86.810  56.746  44.005  0.00  0.00    -0.381 OA
ATOM     11  H   UNL     1      87.283  56.102  43.456  0.00  0.00    +0.000 HD
ENDBRANCH   5  10
BRANCH   1  12
ATOM     12  O   UNL     1      86.577  53.234  46.417  0.00  0.00    -0.455 OA
BRANCH  12  14
ATOM     13  C   UNL     1      85.943  52.175  48.587  0.00  0.00    +0.033 C 
ATOM     14  C   UNL     1      85.570  52.783  47.278  0.00  0.00    +0.305 C 
ATOM     15  O   UNL     1      84.357  52.835  46.939  0.00  0.00    -0.251 OA
ENDBRANCH  12  14
ENDBRANCH   1  12
BRANCH   5  16
ATOM     16  C   UNL     1      84.579  56.336  43.109  0.00  0.00    +0.126 C 
BRANCH  16  17
ATOM     17  O   UNL     1      85.207  55.870  41.918  0.00  0.00    -0.458 OA
BRANCH  17  18
ATOM     18  C   UNL     1      84.498  55.288  40.864  0.00  0.00    +0.339 C 
ATOM     19  O   UNL     1      84.697  55.674  39.679  0.00  0.00    -0.245 OA
BRANCH  18  20
ATOM     20  C   UNL     1      83.515  54.217  41.141  0.00  0.00    +0.059 A 
ATOM     21  C   UNL     1      83.942  52.923  41.495  0.00  0.00    -0.048 A 
ATOM     22  C   UNL     1      83.006  51.917  41.756  0.00  0.00    -0.061 A 
ATOM     23  C   UNL     1      81.639  52.189  41.667  0.00  0.00    -0.062 A 
ATOM     24  C   UNL     1      81.204  53.469  41.313  0.00  0.00    -0.061 A 
ATOM     25  C   UNL     1      82.136  54.479  41.051  0.00  0.00    -0.048 A 
ENDBRANCH  18  20
ENDBRANCH  17  18
ENDBRANCH  16  17
ENDBRANCH   5  16
TORSDOF 8
ENDMDL
MODEL 3
REMARK VINA RESULT:    -7.512      3.841      8.382
REMARK INTER + INTRA:         -11.464
REMARK INTER:                 -10.733
REMARK INTRA:                  -0.731
REMARK UNBOUND:                -0.877
REMARK  Name = 
REMARK  9 active torsions:
REMARK  status: ('A' for Active; 'I' for Inactive)
REMARK    1  A    between atoms: C_1  and  C_2
REMARK    2  A    between atoms: C_2  and  O_4
REMARK    3  A    between atoms: O_4  and  C_5
REMARK    4  A    between atoms: C_9  and  O_12
REMARK    5  A    between atoms: C_9  and  C_13
REMARK    6  A    between atoms: C_10  and  O_11
REMARK    7  A    between atoms: C_13  and  O_14
REMARK    8  A    between atoms: O_14  and  C_15
REMARK    9  A    between atoms: C_15  and  C_17
REMARK                            x       y       z     vdW  Elec       q    Type
REMARK                         _______ _______ _______ _____ _____    ______ ____
ROOT
ATOM      1  C   UNL     1      85.964  55.354  44.465  0.00  0.00    +0.150 C 
ATOM      2  C   UNL     1      86.430  54.704  45.739  0.00  0.00    -0.044 C 
ATOM      3  C   UNL     1      86.666  53.389  45.846  0.00  0.00    -0.064 C 
ATOM      4  C   UNL     1      86.680  52.458  44.658  0.00  0.00    +0.087 C 
ATOM      5  C   UNL     1      85.875  53.014  43.439  0.00  0.00    +0.149 C 
ATOM      6  C   UNL     1      86.286  54.497  43.220  0.00  0.00    +0.129 C 
ATOM      7 CL   UNL     1      86.111  50.852  45.208  0.00  0.00    -0.114 Cl
ENDROOT
BRANCH   6   8
ATOM      8  O   UNL     1      85.603  55.020  42.108  0.00  0.00    -0.385 OA
ATOM      9  H   UNL     1      85.207  55.873  42.343  0.00  0.00    +0.000 HD
ENDBRANCH   6   8
BRANCH   5  10
ATOM     10  O   UNL     1      84.487  52.981  43.697  0.00  0.00    -0.381 OA
ATOM     11  H   UNL     1      84.013  52.755  42.881  0.00  0.00    +0.000 HD
ENDBRANCH   5  10
BRANCH   1  12
ATOM     12  O   UNL     1      86.594  56.632  44.358  0.00  0.00    -0.455 OA
BRANCH  12  14
ATOM     13  C   UNL     1      85.277  58.384  45.553  0.00  0.00    +0.033 C 
ATOM     14  C   UNL     1      85.898  57.845  44.309  0.00  0.00    +0.305 C 
ATOM     15  O   UNL     1      85.743  58.460  43.220  0.00  0.00    -0.251 OA
ENDBRANCH  12  14
ENDBRANCH   1  12
BRANCH   5  16
ATOM     16  C   UNL     1      86.207  52.214  42.146  0.00  0.00    +0.126 C 
BRANCH  16  17
ATOM     17  O   UNL     1      87.614  52.102  41.948  0.00  0.00    -0.458 OA
BRANCH  17  18
ATOM     18  C   UNL     1      88.178  51.285  40.964  0.00  0.00    +0.339 C 
ATOM     19  O   UNL     1      88.163  51.651  39.755  0.00  0.00    -0.245 OA
BRANCH  18  20
ATOM     20  C   UNL     1      88.792  49.994  41.341  0.00  0.00    +0.059 A 
ATOM     21  C   UNL     1      88.030  48.810  41.349  0.00  0.00    -0.048 A 
ATOM     22  C   UNL     1      88.620  47.593  41.706  0.00  0.00    -0.061 A 
ATOM     23  C   UNL     1      89.970  47.544  42.058  0.00  0.00    -0.062 A 
ATOM     24  C   UNL     1      90.735  48.712  42.056  0.00  0.00    -0.061 A 
ATOM     25  C   UNL     1      90.151  49.932  41.700  0.00  0.00    -0.048 A 
ENDBRANCH  18  20
ENDBRANCH  17  18
ENDBRANCH  16  17
ENDBRANCH   5  16
TORSDOF 8
ENDMDL
MODEL 4
REMARK VINA RESULT:    -7.471      2.797      3.477
REMARK INTER + INTRA:         -11.406
REMARK INTER:                 -10.411
REMARK INTRA:                  -0.996
REMARK UNBOUND:                -0.877
REMARK  Name = 
REMARK  9 active torsions:
REMARK  status: ('A' for Active; 'I' for Inactive)
REMARK    1  A    between atoms: C_1  and  C_2
REMARK    2  A    between atoms: C_2  and  O_4
REMARK    3  A    between atoms: O_4  and  C_5
REMARK    4  A    between atoms: C_9  and  O_12
REMARK    5  A    between atoms: C_9  and  C_13
REMARK    6  A    between atoms: C_10  and  O_11
REMARK    7  A    between atoms: C_13  and  O_14
REMARK    8  A    between atoms: O_14  and  C_15
REMARK    9  A    between atoms: C_15  and  C_17
REMARK                            x       y       z     vdW  Elec       q    Type
REMARK                         _______ _______ _______ _____ _____    ______ ____
ROOT
ATOM      1  C   UNL     1      88.848  46.817  41.906  0.00  0.00    +0.150 C 
ATOM      2  C   UNL     1      90.166  47.420  41.503  0.00  0.00    -0.044 C 
ATOM      3  C   UNL     1      90.410  48.738  41.541  0.00  0.00    -0.064 C 
ATOM      4  C   UNL     1      89.464  49.730  42.173  0.00  0.00    +0.087 C 
ATOM      5  C   UNL     1      87.996  49.201  42.261  0.00  0.00    +0.149 C 
ATOM      6  C   UNL     1      88.033  47.754  42.826  0.00  0.00    +0.129 C 
ATOM      7 CL   UNL     1      89.606  51.275  41.279  0.00  0.00    -0.114 Cl
ENDROOT
BRANCH   6   8
ATOM      8  O   UNL     1      86.723  47.258  42.950  0.00  0.00    -0.385 OA
ATOM      9  H   UNL     1      86.641  46.432  42.449  0.00  0.00    +0.000 HD
ENDBRANCH   6   8
BRANCH   5  10
ATOM     10  O   UNL     1      87.401  49.153  40.981  0.00  0.00    -0.381 OA
ATOM     11  H   UNL     1      88.019  49.512  40.325  0.00  0.00    +0.000 HD
ENDBRANCH   5  10
BRANCH   1  12
ATOM     12  O   UNL     1      89.107  45.579  42.570  0.00  0.00    -0.455 OA
BRANCH  12  14
ATOM     13  C   UNL     1      88.562  43.274  43.359  0.00  0.00    +0.033 C 
ATOM     14  C   UNL     1      88.228  44.490  42.564  0.00  0.00    +0.305 C 
ATOM     15  O   UNL     1      87.187  44.502  41.853  0.00  0.00    -0.251 OA
ENDBRANCH  12  14
ENDBRANCH   1  12
BRANCH   5  16
ATOM     16  C   UNL     1      87.146  50.084  43.222  0.00  0.00    +0.126 C 
BRANCH  16  17
ATOM     17  O   UNL     1      85.767  50.065  42.864  0.00  0.00    -0.458 OA
BRANCH  17  18
ATOM     18  C   UNL     1      84.765  49.628  43.735  0.00  0.00    +0.339 C 
ATOM     19  O   UNL     1      85.073  49.044  44.812  0.00  0.00    -0.245 OA
BRANCH  18  20
ATOM     20  C   UNL     1      83.343  49.852  43.393  0.00  0.00    +0.059 A 
ATOM     21  C   UNL     1      82.348  48.957  43.832  0.00  0.00    -0.048 A 
ATOM     22  C   UNL     1      81.006  49.177  43.505  0.00  0.00    -0.061 A 
ATOM     23  C   UNL     1      80.643  50.287  42.739  0.00  0.00    -0.062 A 
ATOM     24  C   UNL     1      81.622  51.179  42.295  0.00  0.00    -0.061 A 
ATOM     25  C   UNL     1      82.966  50.964  42.619  0.00  0.00    -0.048 A 
ENDBRANCH  18  20
ENDBRANCH  17  18
ENDBRANCH  16  17
ENDBRANCH   5  16
TORSDOF 8
ENDMDL
MODEL 5
REMARK VINA RESULT:    -7.393      3.847      8.248
REMARK INTER + INTRA:         -11.296
REMARK INTER:                 -10.365
REMARK INTRA:                  -0.930
REMARK UNBOUND:                -0.877
REMARK  Name = 
REMARK  9 active torsions:
REMARK  status: ('A' for Active; 'I' for Inactive)
REMARK    1  A    between atoms: C_1  and  C_2
REMARK    2  A    between atoms: C_2  and  O_4
REMARK    3  A    between atoms: O_4  and  C_5
REMARK    4  A    between atoms: C_9  and  O_12
REMARK    5  A    between atoms: C_9  and  C_13
REMARK    6  A    between atoms: C_10  and  O_11
REMARK    7  A    between atoms: C_13  and  O_14
REMARK    8  A    between atoms: O_14  and  C_15
REMARK    9  A    between atoms: C_15  and  C_17
REMARK                            x       y       z     vdW  Elec       q    Type
REMARK                         _______ _______ _______ _____ _____    ______ ____
ROOT
ATOM      1  C   UNL     1      85.273  55.320  43.910  0.00  0.00    +0.150 C 
ATOM      2  C   UNL     1      84.473  56.055  42.868  0.00  0.00    -0.044 C 
ATOM      3  C   UNL     1      84.196  55.541  41.662  0.00  0.00    -0.064 C 
ATOM      4  C   UNL     1      84.484  54.106  41.295  0.00  0.00    +0.087 C 
ATOM      5  C   UNL     1      85.593  53.460  42.186  0.00  0.00    +0.149 C 
ATOM      6  C   UNL     1      85.280  53.793  43.671  0.00  0.00    +0.129 C 
ATOM      7 CL   UNL     1      84.860  54.048  39.545  0.00  0.00    -0.114 Cl
ENDROOT
BRANCH   6   8
ATOM      8  O   UNL     1      86.242  53.198  44.505  0.00  0.00    -0.385 OA
ATOM      9  H   UNL     1      85.798  52.683  45.197  0.00  0.00    +0.000 HD
ENDBRANCH   6   8
BRANCH   5  10
ATOM     10  O   UNL     1      86.862  53.998  41.878  0.00  0.00    -0.381 OA
ATOM     11  H   UNL     1      86.771  54.942  41.673  0.00  0.00    +0.000 HD
ENDBRANCH   5  10
BRANCH   1  12
ATOM     12  O   UNL     1      84.714  55.614  45.192  0.00  0.00    -0.455 OA
BRANCH  12  14
ATOM     13  C   UNL     1      85.989  55.468  47.334  0.00  0.00    +0.033 C 
ATOM     14  C   UNL     1      85.410  56.267  46.216  0.00  0.00    +0.305 C 
ATOM     15  O   UNL     1      85.506  57.524  46.234  0.00  0.00    -0.251 OA
ENDBRANCH  12  14
ENDBRANCH   1  12
BRANCH   5  16
ATOM     16  C   UNL     1      85.605  51.912  42.019  0.00  0.00    +0.126 C 
BRANCH  16  17
ATOM     17  O   UNL     1      86.901  51.372  42.262  0.00  0.00    -0.458 OA
BRANCH  17  18
ATOM     18  C   UNL     1      87.742  50.928  41.237  0.00  0.00    +0.339 C 
ATOM     19  O   UNL     1      87.786  51.555  40.141  0.00  0.00    -0.245 OA
BRANCH  18  20
ATOM     20  C   UNL     1      88.579  49.726  41.439  0.00  0.00    +0.059 A 
ATOM     21  C   UNL     1      88.006  48.439  41.421  0.00  0.00    -0.048 A 
ATOM     22  C   UNL     1      88.805  47.307  41.612  0.00  0.00    -0.061 A 
ATOM     23  C   UNL     1      90.179  47.446  41.822  0.00  0.00    -0.062 A 
ATOM     24  C   UNL     1      90.757  48.717  41.845  0.00  0.00    -0.061 A 
ATOM     25  C   UNL     1      89.963  49.852  41.655  0.00  0.00    -0.048 A 
ENDBRANCH  18  20
ENDBRANCH  17  18
ENDBRANCH  16  17
ENDBRANCH   5  16
TORSDOF 8
ENDMDL
MODEL 6
REMARK VINA RESULT:    -7.387      3.850      8.450
REMARK INTER + INTRA:         -11.288
REMARK INTER:                 -10.290
REMARK INTRA:                  -0.998
REMARK UNBOUND:                -0.877
REMARK  Name = 
REMARK  9 active torsions:
REMARK  status: ('A' for Active; 'I' for Inactive)
REMARK    1  A    between atoms: C_1  and  C_2
REMARK    2  A    between atoms: C_2  and  O_4
REMARK    3  A    between atoms: O_4  and  C_5
REMARK    4  A    between atoms: C_9  and  O_12
REMARK    5  A    between atoms: C_9  and  C_13
REMARK    6  A    between atoms: C_10  and  O_11
REMARK    7  A    between atoms: C_13  and  O_14
REMARK    8  A    between atoms: O_14  and  C_15
REMARK    9  A    between atoms: C_15  and  C_17
REMARK                            x       y       z     vdW  Elec       q    Type
REMARK                         _______ _______ _______ _____ _____    ______ ____
ROOT
ATOM      1  C   UNL     1      85.375  55.542  45.703  0.00  0.00    +0.150 C 
ATOM      2  C   UNL     1      84.965  55.727  47.140  0.00  0.00    -0.044 C 
ATOM      3  C   UNL     1      85.153  54.790  48.080  0.00  0.00    -0.064 C 
ATOM      4  C   UNL     1      85.965  53.540  47.843  0.00  0.00    +0.087 C 
ATOM      5  C   UNL     1      86.083  53.167  46.331  0.00  0.00    +0.149 C 
ATOM      6  C   UNL     1      86.457  54.451  45.540  0.00  0.00    +0.129 C 
ATOM      7 CL   UNL     1      85.266  52.229  48.843  0.00  0.00    -0.114 Cl
ENDROOT
BRANCH   6   8
ATOM      8  O   UNL     1      86.603  54.145  44.175  0.00  0.00    -0.385 OA
ATOM      9  H   UNL     1      86.106  53.338  43.970  0.00  0.00    +0.000 HD
ENDBRANCH   6   8
BRANCH   5  10
ATOM     10  O   UNL     1      84.848  52.694  45.832  0.00  0.00    -0.381 OA
ATOM     11  H   UNL     1      84.762  52.939  44.898  0.00  0.00    +0.000 HD
ENDBRANCH   5  10
BRANCH   1  12
ATOM     12  O   UNL     1      85.859  56.793  45.212  0.00  0.00    -0.455 OA
BRANCH  12  14
ATOM     13  C   UNL     1      84.433  56.672  43.167  0.00  0.00    +0.033 C 
ATOM     14  C   UNL     1      85.449  57.371  44.005  0.00  0.00    +0.305 C 
ATOM     15  O   UNL     1      85.965  58.444  43.593  0.00  0.00    -0.251 OA
ENDBRANCH  12  14
ENDBRANCH   1  12
BRANCH   5  16
ATOM     16  C   UNL     1      87.200  52.107  46.107  0.00  0.00    +0.126 C 
BRANCH  16  17
ATOM     17  O   UNL     1      86.743  51.032  45.290  0.00  0.00    -0.458 OA
BRANCH  17  18
ATOM     18  C   UNL     1      86.852  51.040  43.896  0.00  0.00    +0.339 C 
ATOM     19  O   UNL     1      85.887  51.448  43.190  0.00  0.00    -0.245 OA
BRANCH  18  20
ATOM     20  C   UNL     1      88.098  50.573  43.251  0.00  0.00    +0.059 A 
ATOM     21  C   UNL     1      88.799  49.462  43.760  0.00  0.00    -0.048 A 
ATOM     22  C   UNL     1      89.975  49.026  43.144  0.00  0.00    -0.061 A 
ATOM     23  C   UNL     1      90.465  49.690  42.017  0.00  0.00    -0.062 A 
ATOM     24  C   UNL     1      89.780  50.795  41.505  0.00  0.00    -0.061 A 
ATOM     25  C   UNL     1      88.603  51.236  42.118  0.00  0.00    -0.048 A 
ENDBRANCH  18  20
ENDBRANCH  17  18
ENDBRANCH  16  17
ENDBRANCH   5  16
TORSDOF 8
ENDMDL
MODEL 7
REMARK VINA RESULT:    -7.351      1.614      2.074
REMARK INTER + INTRA:         -11.237
REMARK INTER:                 -10.510
REMARK INTRA:                  -0.728
REMARK UNBOUND:                -0.877
REMARK  Name = 
REMARK  9 active torsions:
REMARK  status: ('A' for Active; 'I' for Inactive)
REMARK    1  A    between atoms: C_1  and  C_2
REMARK    2  A    between atoms: C_2  and  O_4
REMARK    3  A    between atoms: O_4  and  C_5
REMARK    4  A    between atoms: C_9  and  O_12
REMARK    5  A    between atoms: C_9  and  C_13
REMARK    6  A    between atoms: C_10  and  O_11
REMARK    7  A    between atoms: C_13  and  O_14
REMARK    8  A    between atoms: O_14  and  C_15
REMARK    9  A    between atoms: C_15  and  C_17
REMARK                            x       y       z     vdW  Elec       q    Type
REMARK                         _______ _______ _______ _____ _____    ______ ____
ROOT
ATOM      1  C   UNL     1      86.848  47.075  42.516  0.00  0.00    +0.150 C 
ATOM      2  C   UNL     1      88.104  46.284  42.272  0.00  0.00    -0.044 C 
ATOM      3  C   UNL     1      89.310  46.852  42.130  0.00  0.00    -0.064 C 
ATOM      4  C   UNL     1      89.564  48.316  42.394  0.00  0.00    +0.087 C 
ATOM      5  C   UNL     1      88.271  49.187  42.294  0.00  0.00    +0.149 C 
ATOM      6  C   UNL     1      87.143  48.478  43.094  0.00  0.00    +0.129 C 
ATOM      7 CL   UNL     1      90.869  48.858  41.293  0.00  0.00    -0.114 Cl
ENDROOT
BRANCH   6   8
ATOM      8  O   UNL     1      85.971  49.253  43.053  0.00  0.00    -0.385 OA
ATOM      9  H   UNL     1      86.202  50.182  42.899  0.00  0.00    +0.000 HD
ENDBRANCH   6   8
BRANCH   5  10
ATOM     10  O   UNL     1      87.846  49.303  40.952  0.00  0.00    -0.381 OA
ATOM     11  H   UNL     1      86.954  49.683  40.928  0.00  0.00    +0.000 HD
ENDBRANCH   5  10
BRANCH   1  12
ATOM     12  O   UNL     1      86.023  46.336  43.419  0.00  0.00    -0.455 OA
BRANCH  12  14
ATOM     13  C   UNL     1      85.102  44.252  42.398  0.00  0.00    +0.033 C 
ATOM     14  C   UNL     1      85.932  44.939  43.428  0.00  0.00    +0.305 C 
ATOM     15  O   UNL     1      86.498  44.259  44.327  0.00  0.00    -0.251 OA
ENDBRANCH  12  14
ENDBRANCH   1  12
BRANCH   5  16
ATOM     16  C   UNL     1      88.503  50.597  42.913  0.00  0.00    +0.126 C 
BRANCH  16  17
ATOM     17  O   UNL     1      87.942  50.692  44.219  0.00  0.00    -0.458 OA
BRANCH  17  18
ATOM     18  C   UNL     1      87.306  51.844  44.689  0.00  0.00    +0.339 C 
ATOM     19  O   UNL     1      87.118  52.823  43.912  0.00  0.00    -0.245 OA
BRANCH  18  20
ATOM     20  C   UNL     1      86.852  51.914  46.095  0.00  0.00    +0.059 A 
ATOM     21  C   UNL     1      86.119  53.023  46.560  0.00  0.00    -0.048 A 
ATOM     22  C   UNL     1      85.692  53.081  47.890  0.00  0.00    -0.061 A 
ATOM     23  C   UNL     1      85.992  52.037  48.769  0.00  0.00    -0.062 A 
ATOM     24  C   UNL     1      86.721  50.934  48.320  0.00  0.00    -0.061 A 
ATOM     25  C   UNL     1      87.150  50.871  46.990  0.00  0.00    -0.048 A 
ENDBRANCH  18  20
ENDBRANCH  17  18
ENDBRANCH  16  17
ENDBRANCH   5  16
TORSDOF 8
ENDMDL
MODEL 8
REMARK VINA RESULT:    -7.285      3.742      6.625
REMARK INTER + INTRA:         -11.144
REMARK INTER:                 -10.138
REMARK INTRA:                  -1.006
REMARK UNBOUND:                -0.877
REMARK  Name = 
REMARK  9 active torsions:
REMARK  status: ('A' for Active; 'I' for Inactive)
REMARK    1  A    between atoms: C_1  and  C_2
REMARK    2  A    between atoms: C_2  and  O_4
REMARK    3  A    between atoms: O_4  and  C_5
REMARK    4  A    between atoms: C_9  and  O_12
REMARK    5  A    between atoms: C_9  and  C_13
REMARK    6  A    between atoms: C_10  and  O_11
REMARK    7  A    between atoms: C_13  and  O_14
REMARK    8  A    between atoms: O_14  and  C_15
REMARK    9  A    between atoms: C_15  and  C_17
REMARK                            x       y       z     vdW  Elec       q    Type
REMARK                         _______ _______ _______ _____ _____    ______ ____
ROOT
ATOM      1  C   UNL     1      82.291  49.867  43.248  0.00  0.00    +0.150 C 
ATOM      2  C   UNL     1      81.780  50.915  42.297  0.00  0.00    -0.044 C 
ATOM      3  C   UNL     1      82.539  51.920  41.839  0.00  0.00    -0.064 C 
ATOM      4  C   UNL     1      84.029  51.996  42.071  0.00  0.00    +0.087 C 
ATOM      5  C   UNL     1      84.496  51.159  43.305  0.00  0.00    +0.149 C 
ATOM      6  C   UNL     1      83.833  49.757  43.223  0.00  0.00    +0.129 C 
ATOM      7 CL   UNL     1      84.485  53.724  42.174  0.00  0.00    -0.114 Cl
ENDROOT
BRANCH   6   8
ATOM      8  O   UNL     1      84.259  48.964  44.304  0.00  0.00    -0.385 OA
ATOM      9  H   UNL     1      85.200  48.756  44.201  0.00  0.00    +0.000 HD
ENDBRANCH   6   8
BRANCH   5  10
ATOM     10  O   UNL     1      84.080  51.767  44.510  0.00  0.00    -0.381 OA
ATOM     11  H   UNL     1      84.354  51.216  45.261  0.00  0.00    +0.000 HD
ENDBRANCH   5  10
BRANCH   1  12
ATOM     12  O   UNL     1      81.703  48.615  42.892  0.00  0.00    -0.455 OA
BRANCH  12  14
ATOM     13  C   UNL     1      79.806  47.626  44.179  0.00  0.00    +0.033 C 
ATOM     14  C   UNL     1      81.253  47.670  43.823  0.00  0.00    +0.305 C 
ATOM     15  O   UNL     1      82.061  46.895  44.402  0.00  0.00    -0.251 OA
ENDBRANCH  12  14
ENDBRANCH   1  12
BRANCH   5  16
ATOM     16  C   UNL     1      86.042  50.975  43.296  0.00  0.00    +0.126 C 
BRANCH  16  17
ATOM     17  O   UNL     1      86.423  49.798  42.589  0.00  0.00    -0.458 OA
BRANCH  17  18
ATOM     18  C   UNL     1      87.575  49.726  41.801  0.00  0.00    +0.339 C 
ATOM     19  O   UNL     1      87.665  50.418  40.749  0.00  0.00    -0.245 OA
BRANCH  18  20
ATOM     20  C   UNL     1      88.688  48.839  42.204  0.00  0.00    +0.059 A 
ATOM     21  C   UNL     1      88.688  47.476  41.847  0.00  0.00    -0.048 A 
ATOM     22  C   UNL     1      89.745  46.645  42.231  0.00  0.00    -0.061 A 
ATOM     23  C   UNL     1      90.810  47.161  42.972  0.00  0.00    -0.062 A 
ATOM     24  C   UNL     1      90.820  48.510  43.334  0.00  0.00    -0.061 A 
ATOM     25  C   UNL     1      89.765  49.346  42.953  0.00  0.00    -0.048 A 
ENDBRANCH  18  20
ENDBRANCH  17  18
ENDBRANCH  16  17
ENDBRANCH   5  16
TORSDOF 8
ENDMDL
MODEL 9
REMARK VINA RESULT:    -7.261      4.668      8.535
REMARK INTER + INTRA:         -11.110
REMARK INTER:                 -10.233
REMARK INTRA:                  -0.877
REMARK UNBOUND:                -0.877
REMARK  Name = 
REMARK  9 active torsions:
REMARK  status: ('A' for Active; 'I' for Inactive)
REMARK    1  A    between atoms: C_1  and  C_2
REMARK    2  A    between atoms: C_2  and  O_4
REMARK    3  A    between atoms: O_4  and  C_5
REMARK    4  A    between atoms: C_9  and  O_12
REMARK    5  A    between atoms: C_9  and  C_13
REMARK    6  A    between atoms: C_10  and  O_11
REMARK    7  A    between atoms: C_13  and  O_14
REMARK    8  A    between atoms: O_14  and  C_15
REMARK    9  A    between atoms: C_15  and  C_17
REMARK                            x       y       z     vdW  Elec       q    Type
REMARK                         _______ _______ _______ _____ _____    ______ ____
ROOT
ATOM      1  C   UNL     1      85.507  55.653  45.739  0.00  0.00    +0.150 C 
ATOM      2  C   UNL     1      85.699  55.774  47.226  0.00  0.00    -0.044 C 
ATOM      3  C   UNL     1      85.880  54.716  48.029  0.00  0.00    -0.064 C 
ATOM      4  C   UNL     1      86.105  53.318  47.506  0.00  0.00    +0.087 C 
ATOM      5  C   UNL     1      85.568  53.117  46.053  0.00  0.00    +0.149 C 
ATOM      6  C   UNL     1      86.047  54.315  45.187  0.00  0.00    +0.129 C 
ATOM      7 CL   UNL     1      85.404  52.167  48.685  0.00  0.00    -0.114 Cl
ENDROOT
BRANCH   6   8
ATOM      8  O   UNL     1      85.608  54.149  43.861  0.00  0.00    -0.385 OA
ATOM      9  H   UNL     1      84.735  53.726  43.860  0.00  0.00    +0.000 HD
ENDBRANCH   6   8
BRANCH   5  10
ATOM     10  O   UNL     1      84.156  53.106  46.036  0.00  0.00    -0.381 OA
ATOM     11  H   UNL     1      83.834  53.812  45.454  0.00  0.00    +0.000 HD
ENDBRANCH   5  10
BRANCH   1  12
ATOM     12  O   UNL     1      86.175  56.749  45.111  0.00  0.00    -0.455 OA
BRANCH  12  14
ATOM     13  C   UNL     1      84.760  58.773  45.483  0.00  0.00    +0.033 C 
ATOM     14  C   UNL     1      85.516  57.862  44.576  0.00  0.00    +0.305 C 
ATOM     15  O   UNL     1      85.509  58.074  43.333  0.00  0.00    -0.251 OA
ENDBRANCH  12  14
ENDBRANCH   1  12
BRANCH   5  16
ATOM     16  C   UNL     1      86.129  51.804  45.432  0.00  0.00    +0.126 C 
BRANCH  16  17
ATOM     17  O   UNL     1      85.462  51.476  44.216  0.00  0.00    -0.458 OA
BRANCH  17  18
ATOM     18  C   UNL     1      84.802  50.261  44.017  0.00  0.00    +0.339 C 
ATOM     19  O   UNL     1      85.403  49.172  44.235  0.00  0.00    -0.245 OA
BRANCH  18  20
ATOM     20  C   UNL     1      83.397  50.253  43.553  0.00  0.00    +0.059 A 
ATOM     21  C   UNL     1      82.523  49.213  43.922  0.00  0.00    -0.048 A 
ATOM     22  C   UNL     1      81.196  49.214  43.480  0.00  0.00    -0.061 A 
ATOM     23  C   UNL     1      80.729  50.249  42.667  0.00  0.00    -0.062 A 
ATOM     24  C   UNL     1      81.587  51.284  42.292  0.00  0.00    -0.061 A 
ATOM     25  C   UNL     1      82.915  51.288  42.731  0.00  0.00    -0.048 A 
ENDBRANCH  18  20
ENDBRANCH  17  18
ENDBRANCH  16  17
ENDBRANCH   5  16
TORSDOF 8
ENDMDL
