MODEL 1
REMARK VINA RESULT:    -9.685      0.000      0.000
REMARK INTER + INTRA:         -16.447
REMARK INTER:                 -14.026
REMARK INTRA:                  -2.421
REMARK UNBOUND:                -1.383
REMARK  Name = 
REMARK  12 active torsions:
REMARK  status: ('A' for Active; 'I' for Inactive)
REMARK    1  A    between atoms: C_2  and  C_3
REMARK    2  A    between atoms: C_9  and  C_20
REMARK    3  A    between atoms: C_13  and  O_19
REMARK    4  A    between atoms: C_14  and  O_15
REMARK    5  A    between atoms: O_15  and  C_16
REMARK    6  A    between atoms: C_16  and  C_18
REMARK    7  A    between atoms: C_20  and  O_21
REMARK    8  A    between atoms: C_20  and  O_30
REMARK    9  A    between atoms: O_21  and  C_22
REMARK   10  A    between atoms: C_22  and  C_24
REMARK   11  A    between atoms: O_30  and  C_31
REMARK   12  A    between atoms: C_31  and  C_33
REMARK                            x       y       z     vdW  Elec       q    Type
REMARK                         _______ _______ _______ _____ _____    ______ ____
ROOT
ATOM      1  C   UNL     1      84.825  53.812  47.904  0.00  0.00    +0.014 A 
ATOM      2  C   UNL     1      85.322  52.899  48.853  0.00  0.00    -0.051 A 
ATOM      3  C   UNL     1      85.992  51.740  48.446  0.00  0.00    -0.057 A 
ATOM      4  C   UNL     1      86.172  51.497  47.083  0.00  0.00    -0.034 A 
ATOM      5  C   UNL     1      85.679  52.399  46.118  0.00  0.00    -0.022 A 
ATOM      6  C   UNL     1      85.002  53.557  46.530  0.00  0.00    -0.047 A 
ATOM      7  C   UNL     1      85.957  51.952  44.670  0.00  0.00    +0.127 C 
ATOM      8  C   UNL     1      87.464  51.669  44.617  0.00  0.00    -0.066 C 
ATOM      9  C   UNL     1      87.925  50.818  45.561  0.00  0.00    -0.077 C 
ATOM     10  C   UNL     1      86.865  50.274  46.510  0.00  0.00    +0.032 C 
ATOM     11  C   UNL     1      85.792  49.561  45.628  0.00  0.00    +0.104 C 
ATOM     12  C   UNL     1      85.268  50.548  44.504  0.00  0.00    +0.149 C 
ENDROOT
BRANCH   1  14
ATOM     13  O   UNL     1      84.122  56.079  47.675  0.00  0.00    -0.296 OA
ATOM     14  C   UNL     1      84.124  55.024  48.367  0.00  0.00    +0.150 C 
ENDBRANCH   1  14
BRANCH  11  15
ATOM     15  O   UNL     1      86.293  48.366  45.078  0.00  0.00    -0.387 OA
ATOM     16  H   UNL     1      86.674  48.547  44.206  0.00  0.00    +0.000 HD
ENDBRANCH  11  15
BRANCH  12  17
ATOM     17  O   UNL     1      83.849  50.691  44.599  0.00  0.00    -0.457 OA
BRANCH  17  18
ATOM     18  C   UNL     1      82.945  49.912  43.871  0.00  0.00    +0.304 C 
ATOM     19  O   UNL     1      82.821  48.679  44.102  0.00  0.00    -0.251 OA
ATOM     20  C   UNL     1      82.166  50.540  42.766  0.00  0.00    +0.033 C 
ENDBRANCH  17  18
ENDBRANCH  12  17
BRANCH   7  21
ATOM     21  C   UNL     1      85.551  52.953  43.561  0.00  0.00    +0.266 C 
BRANCH  21  22
ATOM     22  O   UNL     1      85.490  52.268  42.308  0.00  0.00    -0.420 OA
BRANCH  22  23
ATOM     23  C   UNL     1      86.432  52.400  41.282  0.00  0.00    +0.342 C 
ATOM     24  O   UNL     1      86.224  53.193  40.322  0.00  0.00    -0.245 OA
BRANCH  23  25
ATOM     25  C   UNL     1      87.667  51.587  41.319  0.00  0.00    +0.059 A 
ATOM     26  C   UNL     1      88.927  52.212  41.299  0.00  0.00    -0.048 A 
ATOM     27  C   UNL     1      90.097  51.446  41.333  0.00  0.00    -0.061 A 
ATOM     28  C   UNL     1      90.021  50.052  41.386  0.00  0.00    -0.062 A 
ATOM     29  C   UNL     1      88.775  49.421  41.405  0.00  0.00    -0.061 A 
ATOM     30  C   UNL     1      87.602  50.181  41.373  0.00  0.00    -0.048 A 
ENDBRANCH  23  25
ENDBRANCH  22  23
ENDBRANCH  21  22
BRANCH  21  31
ATOM     31  O   UNL     1      86.508  54.009  43.484  0.00  0.00    -0.423 OA
BRANCH  31  32
ATOM     32  C   UNL     1      86.177  55.364  43.412  0.00  0.00    +0.307 C 
ATOM     33  O   UNL     1      85.503  55.817  42.449  0.00  0.00    -0.251 OA
ATOM     34  C   UNL     1      86.568  56.269  44.530  0.00  0.00    +0.033 C 
ENDBRANCH  31  32
ENDBRANCH  21  31
ENDBRANCH   7  21
TORSDOF 10
ENDMDL
MODEL 2
REMARK VINA RESULT:    -9.213      1.851      5.588
REMARK INTER + INTRA:         -15.713
REMARK INTER:                 -13.975
REMARK INTRA:                  -1.738
REMARK UNBOUND:                -1.383
REMARK  Name = 
REMARK  12 active torsions:
REMARK  status: ('A' for Active; 'I' for Inactive)
REMARK    1  A    between atoms: C_2  and  C_3
REMARK    2  A    between atoms: C_9  and  C_20
REMARK    3  A    between atoms: C_13  and  O_19
REMARK    4  A    between atoms: C_14  and  O_15
REMARK    5  A    between atoms: O_15  and  C_16
REMARK    6  A    between atoms: C_16  and  C_18
REMARK    7  A    between atoms: C_20  and  O_21
REMARK    8  A    between atoms: C_20  and  O_30
REMARK    9  A    between atoms: O_21  and  C_22
REMARK   10  A    between atoms: C_22  and  C_24
REMARK   11  A    between atoms: O_30  and  C_31
REMARK   12  A    between atoms: C_31  and  C_33
REMARK                            x       y       z     vdW  Elec       q    Type
REMARK                         _______ _______ _______ _____ _____    ______ ____
ROOT
ATOM      1  C   UNL     1      85.170  55.004  45.224  0.00  0.00    +0.014 A 
ATOM      2  C   UNL     1      84.913  56.238  44.597  0.00  0.00    -0.051 A 
ATOM      3  C   UNL     1      84.426  56.285  43.286  0.00  0.00    -0.057 A 
ATOM      4  C   UNL     1      84.191  55.092  42.600  0.00  0.00    -0.034 A 
ATOM      5  C   UNL     1      84.446  53.846  43.211  0.00  0.00    -0.022 A 
ATOM      6  C   UNL     1      84.939  53.804  44.524  0.00  0.00    -0.047 A 
ATOM      7  C   UNL     1      84.143  52.646  42.294  0.00  0.00    +0.127 C 
ATOM      8  C   UNL     1      82.709  52.869  41.797  0.00  0.00    -0.066 C 
ATOM      9  C   UNL     1      82.475  54.075  41.231  0.00  0.00    -0.077 C 
ATOM     10  C   UNL     1      83.681  55.003  41.173  0.00  0.00    +0.032 C 
ATOM     11  C   UNL     1      84.794  54.249  40.378  0.00  0.00    +0.104 C 
ATOM     12  C   UNL     1      85.052  52.824  41.023  0.00  0.00    +0.149 C 
ENDROOT
BRANCH   1  14
ATOM     13  O   UNL     1      86.052  56.053  47.175  0.00  0.00    -0.296 OA
ATOM     14  C   UNL     1      85.681  54.990  46.607  0.00  0.00    +0.150 C 
ENDBRANCH   1  14
BRANCH  11  15
ATOM     15  O   UNL     1      84.470  54.151  39.013  0.00  0.00    -0.387 OA
ATOM     16  H   UNL     1      85.276  53.983  38.500  0.00  0.00    +0.000 HD
ENDBRANCH  11  15
BRANCH  12  17
ATOM     17  O   UNL     1      86.428  52.694  41.390  0.00  0.00    -0.457 OA
BRANCH  17  18
ATOM     18  C   UNL     1      87.455  52.477  40.466  0.00  0.00    +0.304 C 
ATOM     19  O   UNL     1      87.474  53.091  39.365  0.00  0.00    -0.251 OA
ATOM     20  C   UNL     1      88.503  51.461  40.765  0.00  0.00    +0.033 C 
ENDBRANCH  17  18
ENDBRANCH  12  17
BRANCH   7  21
ATOM     21  C   UNL     1      84.285  51.246  42.939  0.00  0.00    +0.266 C 
BRANCH  21  22
ATOM     22  O   UNL     1      85.493  50.636  42.480  0.00  0.00    -0.420 OA
BRANCH  22  23
ATOM     23  C   UNL     1      86.310  49.806  43.256  0.00  0.00    +0.342 C 
ATOM     24  O   UNL     1      86.713  48.700  42.800  0.00  0.00    -0.245 OA
BRANCH  23  25
ATOM     25  C   UNL     1      86.682  50.225  44.624  0.00  0.00    +0.059 A 
ATOM     26  C   UNL     1      87.416  51.409  44.827  0.00  0.00    -0.048 A 
ATOM     27  C   UNL     1      87.772  51.808  46.120  0.00  0.00    -0.061 A 
ATOM     28  C   UNL     1      87.400  51.031  47.219  0.00  0.00    -0.062 A 
ATOM     29  C   UNL     1      86.673  49.854  47.030  0.00  0.00    -0.061 A 
ATOM     30  C   UNL     1      86.314  49.450  45.740  0.00  0.00    -0.048 A 
ENDBRANCH  23  25
ENDBRANCH  22  23
ENDBRANCH  21  22
BRANCH  21  31
ATOM     31  O   UNL     1      83.169  50.430  42.581  0.00  0.00    -0.423 OA
BRANCH  31  32
ATOM     32  C   UNL     1      82.582  49.489  43.430  0.00  0.00    +0.307 C 
ATOM     33  O   UNL     1      83.287  48.677  44.086  0.00  0.00    -0.251 OA
ATOM     34  C   UNL     1      81.103  49.498  43.614  0.00  0.00    +0.033 C 
ENDBRANCH  31  32
ENDBRANCH  21  31
ENDBRANCH   7  21
TORSDOF 10
ENDMDL
MODEL 3
REMARK VINA RESULT:    -9.142      2.061      5.408
REMARK INTER + INTRA:         -15.602
REMARK INTER:                 -13.751
REMARK INTRA:                  -1.852
REMARK UNBOUND:                -1.383
REMARK  Name = 
REMARK  12 active torsions:
REMARK  status: ('A' for Active; 'I' for Inactive)
REMARK    1  A    between atoms: C_2  and  C_3
REMARK    2  A    between atoms: C_9  and  C_20
REMARK    3  A    between atoms: C_13  and  O_19
REMARK    4  A    between atoms: C_14  and  O_15
REMARK    5  A    between atoms: O_15  and  C_16
REMARK    6  A    between atoms: C_16  and  C_18
REMARK    7  A    between atoms: C_20  and  O_21
REMARK    8  A    between atoms: C_20  and  O_30
REMARK    9  A    between atoms: O_21  and  C_22
REMARK   10  A    between atoms: C_22  and  C_24
REMARK   11  A    between atoms: O_30  and  C_31
REMARK   12  A    between atoms: C_31  and  C_33
REMARK                            x       y       z     vdW  Elec       q    Type
REMARK                         _______ _______ _______ _____ _____    ______ ____
ROOT
ATOM      1  C   UNL     1      83.638  50.179  43.053  0.00  0.00    +0.014 A 
ATOM      2  C   UNL     1      82.394  50.834  42.977  0.00  0.00    -0.051 A 
ATOM      3  C   UNL     1      82.305  52.143  42.492  0.00  0.00    -0.057 A 
ATOM      4  C   UNL     1      83.465  52.798  42.075  0.00  0.00    -0.034 A 
ATOM      5  C   UNL     1      84.721  52.159  42.145  0.00  0.00    -0.022 A 
ATOM      6  C   UNL     1      84.806  50.848  42.638  0.00  0.00    -0.047 A 
ATOM      7  C   UNL     1      85.882  53.046  41.658  0.00  0.00    +0.127 C 
ATOM      8  C   UNL     1      85.458  53.541  40.270  0.00  0.00    -0.066 C 
ATOM      9  C   UNL     1      84.244  54.133  40.214  0.00  0.00    -0.077 C 
ATOM     10  C   UNL     1      83.508  54.221  41.545  0.00  0.00    +0.032 C 
ATOM     11  C   UNL     1      84.438  55.002  42.525  0.00  0.00    +0.104 C 
ATOM     12  C   UNL     1      85.871  54.325  42.573  0.00  0.00    +0.149 C 
ENDROOT
BRANCH   1  14
ATOM     13  O   UNL     1      84.683  48.398  44.244  0.00  0.00    -0.296 OA
ATOM     14  C   UNL     1      83.697  48.798  43.568  0.00  0.00    +0.150 C 
ENDBRANCH   1  14
BRANCH  11  15
ATOM     15  O   UNL     1      84.518  56.364  42.178  0.00  0.00    -0.387 OA
ATOM     16  H   UNL     1      84.615  56.897  42.981  0.00  0.00    +0.000 HD
ENDBRANCH  11  15
BRANCH  12  17
ATOM     17  O   UNL     1      86.197  53.963  43.916  0.00  0.00    -0.457 OA
BRANCH  17  18
ATOM     18  C   UNL     1      85.390  54.271  45.016  0.00  0.00    +0.304 C 
ATOM     19  O   UNL     1      85.381  55.434  45.506  0.00  0.00    -0.251 OA
ATOM     20  C   UNL     1      84.580  53.194  45.652  0.00  0.00    +0.033 C 
ENDBRANCH  17  18
ENDBRANCH  12  17
BRANCH   7  21
ATOM     21  C   UNL     1      87.273  52.368  41.595  0.00  0.00    +0.266 C 
BRANCH  21  22
ATOM     22  O   UNL     1      87.821  52.294  42.912  0.00  0.00    -0.420 OA
BRANCH  22  23
ATOM     23  C   UNL     1      88.100  51.102  43.592  0.00  0.00    +0.342 C 
ATOM     24  O   UNL     1      87.918  51.021  44.838  0.00  0.00    -0.245 OA
BRANCH  23  25
ATOM     25  C   UNL     1      88.630  49.944  42.841  0.00  0.00    +0.059 A 
ATOM     26  C   UNL     1      87.814  48.822  42.602  0.00  0.00    -0.048 A 
ATOM     27  C   UNL     1      88.312  47.724  41.893  0.00  0.00    -0.061 A 
ATOM     28  C   UNL     1      89.625  47.733  41.418  0.00  0.00    -0.062 A 
ATOM     29  C   UNL     1      90.445  48.840  41.651  0.00  0.00    -0.061 A 
ATOM     30  C   UNL     1      89.952  49.942  42.358  0.00  0.00    -0.048 A 
ENDBRANCH  23  25
ENDBRANCH  22  23
ENDBRANCH  21  22
BRANCH  21  31
ATOM     31  O   UNL     1      88.144  53.125  40.755  0.00  0.00    -0.423 OA
BRANCH  31  32
ATOM     32  C   UNL     1      89.106  52.561  39.912  0.00  0.00    +0.307 C 
ATOM     33  O   UNL     1      88.783  51.722  39.029  0.00  0.00    -0.251 OA
ATOM     34  C   UNL     1      90.521  53.016  40.016  0.00  0.00    +0.033 C 
ENDBRANCH  31  32
ENDBRANCH  21  31
ENDBRANCH   7  21
TORSDOF 10
ENDMDL
MODEL 4
REMARK VINA RESULT:    -9.132      2.033      5.397
REMARK INTER + INTRA:         -15.586
REMARK INTER:                 -14.176
REMARK INTRA:                  -1.411
REMARK UNBOUND:                -1.383
REMARK  Name = 
REMARK  12 active torsions:
REMARK  status: ('A' for Active; 'I' for Inactive)
REMARK    1  A    between atoms: C_2  and  C_3
REMARK    2  A    between atoms: C_9  and  C_20
REMARK    3  A    between atoms: C_13  and  O_19
REMARK    4  A    between atoms: C_14  and  O_15
REMARK    5  A    between atoms: O_15  and  C_16
REMARK    6  A    between atoms: C_16  and  C_18
REMARK    7  A    between atoms: C_20  and  O_21
REMARK    8  A    between atoms: C_20  and  O_30
REMARK    9  A    between atoms: O_21  and  C_22
REMARK   10  A    between atoms: C_22  and  C_24
REMARK   11  A    between atoms: O_30  and  C_31
REMARK   12  A    between atoms: C_31  and  C_33
REMARK                            x       y       z     vdW  Elec       q    Type
REMARK                         _______ _______ _______ _____ _____    ______ ____
ROOT
ATOM      1  C   UNL     1      82.436  50.401  42.867  0.00  0.00    +0.014 A 
ATOM      2  C   UNL     1      81.395  51.211  42.374  0.00  0.00    -0.051 A 
ATOM      3  C   UNL     1      81.668  52.470  41.827  0.00  0.00    -0.057 A 
ATOM      4  C   UNL     1      82.989  52.918  41.768  0.00  0.00    -0.034 A 
ATOM      5  C   UNL     1      84.045  52.122  42.259  0.00  0.00    -0.022 A 
ATOM      6  C   UNL     1      83.766  50.862  42.813  0.00  0.00    -0.047 A 
ATOM      7  C   UNL     1      85.425  52.791  42.124  0.00  0.00    +0.127 C 
ATOM      8  C   UNL     1      85.528  53.209  40.651  0.00  0.00    -0.066 C 
ATOM      9  C   UNL     1      84.500  53.955  40.189  0.00  0.00    -0.077 C 
ATOM     10  C   UNL     1      83.418  54.266  41.215  0.00  0.00    +0.032 C 
ATOM     11  C   UNL     1      84.118  54.999  42.403  0.00  0.00    +0.104 C 
ATOM     12  C   UNL     1      85.340  54.139  42.930  0.00  0.00    +0.149 C 
ENDROOT
BRANCH   1  14
ATOM     13  O   UNL     1      83.004  48.371  43.980  0.00  0.00    -0.296 OA
ATOM     14  C   UNL     1      82.114  49.079  43.436  0.00  0.00    +0.150 C 
ENDBRANCH   1  14
BRANCH  11  15
ATOM     15  O   UNL     1      84.516  56.299  42.037  0.00  0.00    -0.387 OA
ATOM     16  H   UNL     1      85.365  56.258  41.573  0.00  0.00    +0.000 HD
ENDBRANCH  11  15
BRANCH  12  17
ATOM     17  O   UNL     1      85.179  53.861  44.322  0.00  0.00    -0.457 OA
BRANCH  17  18
ATOM     18  C   UNL     1      85.339  54.823  45.324  0.00  0.00    +0.304 C 
ATOM     19  O   UNL     1      84.439  55.013  46.187  0.00  0.00    -0.251 OA
ATOM     20  C   UNL     1      86.562  55.675  45.331  0.00  0.00    +0.033 C 
ENDBRANCH  17  18
ENDBRANCH  12  17
BRANCH   7  21
ATOM     21  C   UNL     1      86.642  51.926  42.532  0.00  0.00    +0.266 C 
BRANCH  21  22
ATOM     22  O   UNL     1      86.875  50.937  41.526  0.00  0.00    -0.420 OA
BRANCH  22  23
ATOM     23  C   UNL     1      88.123  50.656  40.959  0.00  0.00    +0.342 C 
ATOM     24  O   UNL     1      88.541  51.324  39.974  0.00  0.00    -0.245 OA
BRANCH  23  25
ATOM     25  C   UNL     1      88.942  49.557  41.512  0.00  0.00    +0.059 A 
ATOM     26  C   UNL     1      90.237  49.815  42.002  0.00  0.00    -0.048 A 
ATOM     27  C   UNL     1      91.015  48.776  42.524  0.00  0.00    -0.061 A 
ATOM     28  C   UNL     1      90.512  47.474  42.562  0.00  0.00    -0.062 A 
ATOM     29  C   UNL     1      89.229  47.206  42.078  0.00  0.00    -0.061 A 
ATOM     30  C   UNL     1      88.446  48.240  41.556  0.00  0.00    -0.048 A 
ENDBRANCH  23  25
ENDBRANCH  22  23
ENDBRANCH  21  22
BRANCH  21  31
ATOM     31  O   UNL     1      86.388  51.287  43.782  0.00  0.00    -0.423 OA
BRANCH  31  32
ATOM     32  C   UNL     1      87.335  51.149  44.800  0.00  0.00    +0.307 C 
ATOM     33  O   UNL     1      87.597  52.106  45.577  0.00  0.00    -0.251 OA
ATOM     34  C   UNL     1      87.991  49.828  45.009  0.00  0.00    +0.033 C 
ENDBRANCH  31  32
ENDBRANCH  21  31
ENDBRANCH   7  21
TORSDOF 10
ENDMDL
MODEL 5
REMARK VINA RESULT:    -9.006      1.711      2.616
REMARK INTER + INTRA:         -15.391
REMARK INTER:                 -14.300
REMARK INTRA:                  -1.091
REMARK UNBOUND:                -1.383
REMARK  Name = 
REMARK  12 active torsions:
REMARK  status: ('A' for Active; 'I' for Inactive)
REMARK    1  A    between atoms: C_2  and  C_3
REMARK    2  A    between atoms: C_9  and  C_20
REMARK    3  A    between atoms: C_13  and  O_19
REMARK    4  A    between atoms: C_14  and  O_15
REMARK    5  A    between atoms: O_15  and  C_16
REMARK    6  A    between atoms: C_16  and  C_18
REMARK    7  A    between atoms: C_20  and  O_21
REMARK    8  A    between atoms: C_20  and  O_30
REMARK    9  A    between atoms: O_21  and  C_22
REMARK   10  A    between atoms: C_22  and  C_24
REMARK   11  A    between atoms: O_30  and  C_31
REMARK   12  A    between atoms: C_31  and  C_33
REMARK                            x       y       z     vdW  Elec       q    Type
REMARK                         _______ _______ _______ _____ _____    ______ ____
ROOT
ATOM      1  C   UNL     1      85.796  56.023  44.865  0.00  0.00    +0.014 A 
ATOM      2  C   UNL     1      85.893  55.715  46.235  0.00  0.00    -0.051 A 
ATOM      3  C   UNL     1      86.149  54.406  46.656  0.00  0.00    -0.057 A 
ATOM      4  C   UNL     1      86.315  53.400  45.701  0.00  0.00    -0.034 A 
ATOM      5  C   UNL     1      86.219  53.689  44.324  0.00  0.00    -0.022 A 
ATOM      6  C   UNL     1      85.956  55.003  43.906  0.00  0.00    -0.047 A 
ATOM      7  C   UNL     1      86.412  52.451  43.428  0.00  0.00    +0.127 C 
ATOM      8  C   UNL     1      87.731  51.820  43.891  0.00  0.00    -0.066 C 
ATOM      9  C   UNL     1      87.816  51.566  45.217  0.00  0.00    -0.077 C 
ATOM     10  C   UNL     1      86.580  51.941  46.024  0.00  0.00    +0.032 C 
ATOM     11  C   UNL     1      85.381  51.153  45.407  0.00  0.00    +0.104 C 
ATOM     12  C   UNL     1      85.294  51.427  43.848  0.00  0.00    +0.149 C 
ENDROOT
BRANCH   1  14
ATOM     13  O   UNL     1      85.255  57.698  43.256  0.00  0.00    -0.296 OA
ATOM     14  C   UNL     1      85.527  57.414  44.454  0.00  0.00    +0.150 C 
ENDBRANCH   1  14
BRANCH  11  15
ATOM     15  O   UNL     1      85.474  49.777  45.688  0.00  0.00    -0.387 OA
ATOM     16  H   UNL     1      85.980  49.337  44.988  0.00  0.00    +0.000 HD
ENDBRANCH  11  15
BRANCH  12  17
ATOM     17  O   UNL     1      84.007  51.950  43.513  0.00  0.00    -0.457 OA
BRANCH  17  18
ATOM     18  C   UNL     1      82.975  51.175  42.976  0.00  0.00    +0.304 C 
ATOM     19  O   UNL     1      82.864  49.953  43.270  0.00  0.00    -0.251 OA
ATOM     20  C   UNL     1      82.035  51.789  41.996  0.00  0.00    +0.033 C 
ENDBRANCH  17  18
ENDBRANCH  12  17
BRANCH   7  21
ATOM     21  C   UNL     1      86.439  52.715  41.903  0.00  0.00    +0.266 C 
BRANCH  21  22
ATOM     22  O   UNL     1      87.790  52.658  41.439  0.00  0.00    -0.420 OA
BRANCH  22  23
ATOM     23  C   UNL     1      88.281  51.713  40.531  0.00  0.00    +0.342 C 
ATOM     24  O   UNL     1      88.309  51.969  39.296  0.00  0.00    -0.245 OA
BRANCH  23  25
ATOM     25  C   UNL     1      88.748  50.401  41.028  0.00  0.00    +0.059 A 
ATOM     26  C   UNL     1      90.108  50.201  41.331  0.00  0.00    -0.048 A 
ATOM     27  C   UNL     1      90.553  48.961  41.800  0.00  0.00    -0.061 A 
ATOM     28  C   UNL     1      89.649  47.910  41.970  0.00  0.00    -0.062 A 
ATOM     29  C   UNL     1      88.297  48.096  41.672  0.00  0.00    -0.061 A 
ATOM     30  C   UNL     1      87.846  49.334  41.204  0.00  0.00    -0.048 A 
ENDBRANCH  23  25
ENDBRANCH  22  23
ENDBRANCH  21  22
BRANCH  21  31
ATOM     31  O   UNL     1      85.889  54.002  41.621  0.00  0.00    -0.423 OA
BRANCH  31  32
ATOM     32  C   UNL     1      85.015  54.267  40.564  0.00  0.00    +0.307 C 
ATOM     33  O   UNL     1      85.344  54.020  39.373  0.00  0.00    -0.251 OA
ATOM     34  C   UNL     1      83.649  54.782  40.862  0.00  0.00    +0.033 C 
ENDBRANCH  31  32
ENDBRANCH  21  31
ENDBRANCH   7  21
TORSDOF 10
ENDMDL
MODEL 6
REMARK VINA RESULT:    -8.991      2.242      5.234
REMARK INTER + INTRA:         -15.367
REMARK INTER:                 -14.053
REMARK INTRA:                  -1.314
REMARK UNBOUND:                -1.383
REMARK  Name = 
REMARK  12 active torsions:
REMARK  status: ('A' for Active; 'I' for Inactive)
REMARK    1  A    between atoms: C_2  and  C_3
REMARK    2  A    between atoms: C_9  and  C_20
REMARK    3  A    between atoms: C_13  and  O_19
REMARK    4  A    between atoms: C_14  and  O_15
REMARK    5  A    between atoms: O_15  and  C_16
REMARK    6  A    between atoms: C_16  and  C_18
REMARK    7  A    between atoms: C_20  and  O_21
REMARK    8  A    between atoms: C_20  and  O_30
REMARK    9  A    between atoms: O_21  and  C_22
REMARK   10  A    between atoms: C_22  and  C_24
REMARK   11  A    between atoms: O_30  and  C_31
REMARK   12  A    between atoms: C_31  and  C_33
REMARK                            x       y       z     vdW  Elec       q    Type
REMARK                         _______ _______ _______ _____ _____    ______ ____
ROOT
ATOM      1  C   UNL     1      85.663  55.604  45.109  0.00  0.00    +0.014 A 
ATOM      2  C   UNL     1      85.066  56.673  44.415  0.00  0.00    -0.051 A 
ATOM      3  C   UNL     1      84.453  56.465  43.175  0.00  0.00    -0.057 A 
ATOM      4  C   UNL     1      84.432  55.181  42.629  0.00  0.00    -0.034 A 
ATOM      5  C   UNL     1      85.027  54.097  43.309  0.00  0.00    -0.022 A 
ATOM      6  C   UNL     1      85.646  54.311  44.550  0.00  0.00    -0.047 A 
ATOM      7  C   UNL     1      84.919  52.765  42.543  0.00  0.00    +0.127 C 
ATOM      8  C   UNL     1      83.429  52.612  42.208  0.00  0.00    -0.066 C 
ATOM      9  C   UNL     1      82.868  53.666  41.574  0.00  0.00    -0.077 C 
ATOM     10  C   UNL     1      83.815  54.824  41.288  0.00  0.00    +0.032 C 
ATOM     11  C   UNL     1      84.986  54.248  40.431  0.00  0.00    +0.104 C 
ATOM     12  C   UNL     1      85.630  52.996  41.159  0.00  0.00    +0.149 C 
ENDROOT
BRANCH   1  14
ATOM     13  O   UNL     1      85.974  55.194  47.437  0.00  0.00    -0.296 OA
ATOM     14  C   UNL     1      86.299  55.857  46.415  0.00  0.00    +0.150 C 
ENDBRANCH   1  14
BRANCH  11  15
ATOM     15  O   UNL     1      84.558  53.929  39.129  0.00  0.00    -0.387 OA
ATOM     16  H   UNL     1      84.255  53.008  39.105  0.00  0.00    +0.000 HD
ENDBRANCH  11  15
BRANCH  12  17
ATOM     17  O   UNL     1      87.028  53.213  41.363  0.00  0.00    -0.457 OA
BRANCH  17  18
ATOM     18  C   UNL     1      88.002  52.922  40.403  0.00  0.00    +0.304 C 
ATOM     19  O   UNL     1      87.728  52.960  39.173  0.00  0.00    -0.251 OA
ATOM     20  C   UNL     1      89.361  52.500  40.847  0.00  0.00    +0.033 C 
ENDBRANCH  17  18
ENDBRANCH  12  17
BRANCH   7  21
ATOM     21  C   UNL     1      85.443  51.512  43.284  0.00  0.00    +0.266 C 
BRANCH  21  22
ATOM     22  O   UNL     1      86.840  51.360  43.022  0.00  0.00    -0.420 OA
BRANCH  22  23
ATOM     23  C   UNL     1      87.689  50.486  43.711  0.00  0.00    +0.342 C 
ATOM     24  O   UNL     1      87.858  50.609  44.955  0.00  0.00    -0.245 OA
BRANCH  23  25
ATOM     25  C   UNL     1      88.404  49.428  42.965  0.00  0.00    +0.059 A 
ATOM     26  C   UNL     1      89.808  49.452  42.873  0.00  0.00    -0.048 A 
ATOM     27  C   UNL     1      90.487  48.453  42.167  0.00  0.00    -0.061 A 
ATOM     28  C   UNL     1      89.774  47.424  41.547  0.00  0.00    -0.062 A 
ATOM     29  C   UNL     1      88.380  47.391  41.632  0.00  0.00    -0.061 A 
ATOM     30  C   UNL     1      87.695  48.386  42.337  0.00  0.00    -0.048 A 
ENDBRANCH  23  25
ENDBRANCH  22  23
ENDBRANCH  21  22
BRANCH  21  31
ATOM     31  O   UNL     1      84.743  50.352  42.834  0.00  0.00    -0.423 OA
BRANCH  31  32
ATOM     32  C   UNL     1      84.165  49.406  43.685  0.00  0.00    +0.307 C 
ATOM     33  O   UNL     1      84.873  48.729  44.478  0.00  0.00    -0.251 OA
ATOM     34  C   UNL     1      82.683  49.252  43.702  0.00  0.00    +0.033 C 
ENDBRANCH  31  32
ENDBRANCH  21  31
ENDBRANCH   7  21
TORSDOF 10
ENDMDL
MODEL 7
REMARK VINA RESULT:    -8.975      1.245      3.641
REMARK INTER + INTRA:         -15.343
REMARK INTER:                 -13.811
REMARK INTRA:                  -1.532
REMARK UNBOUND:                -1.383
REMARK  Name = 
REMARK  12 active torsions:
REMARK  status: ('A' for Active; 'I' for Inactive)
REMARK    1  A    between atoms: C_2  and  C_3
REMARK    2  A    between atoms: C_9  and  C_20
REMARK    3  A    between atoms: C_13  and  O_19
REMARK    4  A    between atoms: C_14  and  O_15
REMARK    5  A    between atoms: O_15  and  C_16
REMARK    6  A    between atoms: C_16  and  C_18
REMARK    7  A    between atoms: C_20  and  O_21
REMARK    8  A    between atoms: C_20  and  O_30
REMARK    9  A    between atoms: O_21  and  C_22
REMARK   10  A    between atoms: C_22  and  C_24
REMARK   11  A    between atoms: O_30  and  C_31
REMARK   12  A    between atoms: C_31  and  C_33
REMARK                            x       y       z     vdW  Elec       q    Type
REMARK                         _______ _______ _______ _____ _____    ______ ____
ROOT
ATOM      1  C   UNL     1      85.735  53.993  47.293  0.00  0.00    +0.014 A 
ATOM      2  C   UNL     1      85.695  53.082  48.365  0.00  0.00    -0.051 A 
ATOM      3  C   UNL     1      86.015  51.734  48.169  0.00  0.00    -0.057 A 
ATOM      4  C   UNL     1      86.382  51.297  46.895  0.00  0.00    -0.034 A 
ATOM      5  C   UNL     1      86.426  52.194  45.808  0.00  0.00    -0.022 A 
ATOM      6  C   UNL     1      86.098  53.545  46.008  0.00  0.00    -0.047 A 
ATOM      7  C   UNL     1      86.834  51.525  44.482  0.00  0.00    +0.127 C 
ATOM      8  C   UNL     1      88.140  50.781  44.791  0.00  0.00    -0.066 C 
ATOM      9  C   UNL     1      88.089  49.939  45.848  0.00  0.00    -0.077 C 
ATOM     10  C   UNL     1      86.737  49.862  46.545  0.00  0.00    +0.032 C 
ATOM     11  C   UNL     1      85.695  49.427  45.466  0.00  0.00    +0.104 C 
ATOM     12  C   UNL     1      85.771  50.397  44.214  0.00  0.00    +0.149 C 
ENDROOT
BRANCH   1  14
ATOM     13  O   UNL     1      84.196  55.770  47.690  0.00  0.00    -0.296 OA
ATOM     14  C   UNL     1      85.393  55.408  47.534  0.00  0.00    +0.150 C 
ENDBRANCH   1  14
BRANCH  11  15
ATOM     15  O   UNL     1      85.877  48.082  45.093  0.00  0.00    -0.387 OA
ATOM     16  H   UNL     1      85.141  47.801  44.529  0.00  0.00    +0.000 HD
ENDBRANCH  11  15
BRANCH  12  17
ATOM     17  O   UNL     1      84.491  50.985  43.973  0.00  0.00    -0.457 OA
BRANCH  17  18
ATOM     18  C   UNL     1      83.452  50.327  43.308  0.00  0.00    +0.304 C 
ATOM     19  O   UNL     1      83.278  49.086  43.450  0.00  0.00    -0.251 OA
ATOM     20  C   UNL     1      82.582  51.094  42.372  0.00  0.00    +0.033 C 
ENDBRANCH  17  18
ENDBRANCH  12  17
BRANCH   7  21
ATOM     21  C   UNL     1      87.019  52.472  43.272  0.00  0.00    +0.266 C 
BRANCH  21  22
ATOM     22  O   UNL     1      85.736  52.896  42.805  0.00  0.00    -0.420 OA
BRANCH  22  23
ATOM     23  C   UNL     1      85.485  54.116  42.167  0.00  0.00    +0.342 C 
ATOM     24  O   UNL     1      85.258  54.152  40.926  0.00  0.00    -0.245 OA
BRANCH  23  25
ATOM     25  C   UNL     1      85.508  55.367  42.955  0.00  0.00    +0.059 A 
ATOM     26  C   UNL     1      86.691  55.780  43.595  0.00  0.00    -0.048 A 
ATOM     27  C   UNL     1      86.716  56.962  44.343  0.00  0.00    -0.061 A 
ATOM     28  C   UNL     1      85.563  57.742  44.458  0.00  0.00    -0.062 A 
ATOM     29  C   UNL     1      84.383  57.342  43.828  0.00  0.00    -0.061 A 
ATOM     30  C   UNL     1      84.352  56.161  43.078  0.00  0.00    -0.048 A 
ENDBRANCH  23  25
ENDBRANCH  22  23
ENDBRANCH  21  22
BRANCH  21  31
ATOM     31  O   UNL     1      87.710  51.793  42.224  0.00  0.00    -0.423 OA
BRANCH  31  32
ATOM     32  C   UNL     1      88.772  52.341  41.501  0.00  0.00    +0.307 C 
ATOM     33  O   UNL     1      88.965  53.586  41.474  0.00  0.00    -0.251 OA
ATOM     34  C   UNL     1      89.731  51.430  40.814  0.00  0.00    +0.033 C 
ENDBRANCH  31  32
ENDBRANCH  21  31
ENDBRANCH   7  21
TORSDOF 10
ENDMDL
MODEL 8
REMARK VINA RESULT:    -8.855      2.202      6.318
REMARK INTER + INTRA:         -15.155
REMARK INTER:                 -13.358
REMARK INTRA:                  -1.797
REMARK UNBOUND:                -1.383
REMARK  Name = 
REMARK  12 active torsions:
REMARK  status: ('A' for Active; 'I' for Inactive)
REMARK    1  A    between atoms: C_2  and  C_3
REMARK    2  A    between atoms: C_9  and  C_20
REMARK    3  A    between atoms: C_13  and  O_19
REMARK    4  A    between atoms: C_14  and  O_15
REMARK    5  A    between atoms: O_15  and  C_16
REMARK    6  A    between atoms: C_16  and  C_18
REMARK    7  A    between atoms: C_20  and  O_21
REMARK    8  A    between atoms: C_20  and  O_30
REMARK    9  A    between atoms: O_21  and  C_22
REMARK   10  A    between atoms: C_22  and  C_24
REMARK   11  A    between atoms: O_30  and  C_31
REMARK   12  A    between atoms: C_31  and  C_33
REMARK                            x       y       z     vdW  Elec       q    Type
REMARK                         _______ _______ _______ _____ _____    ______ ____
ROOT
ATOM      1  C   UNL     1      85.631  46.489  43.692  0.00  0.00    +0.014 A 
ATOM      2  C   UNL     1      86.368  45.888  42.654  0.00  0.00    -0.051 A 
ATOM      3  C   UNL     1      87.366  46.602  41.982  0.00  0.00    -0.057 A 
ATOM      4  C   UNL     1      87.632  47.922  42.354  0.00  0.00    -0.034 A 
ATOM      5  C   UNL     1      86.902  48.541  43.390  0.00  0.00    -0.022 A 
ATOM      6  C   UNL     1      85.897  47.823  44.057  0.00  0.00    -0.047 A 
ATOM      7  C   UNL     1      87.324  50.001  43.643  0.00  0.00    +0.127 C 
ATOM      8  C   UNL     1      88.846  49.953  43.830  0.00  0.00    -0.066 C 
ATOM      9  C   UNL     1      89.531  49.339  42.839  0.00  0.00    -0.077 C 
ATOM     10  C   UNL     1      88.674  48.809  41.697  0.00  0.00    +0.032 C 
ATOM     11  C   UNL     1      87.882  50.027  41.123  0.00  0.00    +0.104 C 
ATOM     12  C   UNL     1      87.099  50.765  42.287  0.00  0.00    +0.149 C 
ENDROOT
BRANCH   1  14
ATOM     13  O   UNL     1      83.394  46.114  44.426  0.00  0.00    -0.296 OA
ATOM     14  C   UNL     1      84.586  45.708  44.381  0.00  0.00    +0.150 C 
ENDBRANCH   1  14
BRANCH  11  15
ATOM     15  O   UNL     1      88.732  50.908  40.429  0.00  0.00    -0.387 OA
ATOM     16  H   UNL     1      89.318  50.401  39.847  0.00  0.00    +0.000 HD
ENDBRANCH  11  15
BRANCH  12  17
ATOM     17  O   UNL     1      85.703  50.813  41.984  0.00  0.00    -0.457 OA
BRANCH  17  18
ATOM     18  C   UNL     1      85.009  52.000  41.731  0.00  0.00    +0.304 C 
ATOM     19  O   UNL     1      85.438  52.831  40.885  0.00  0.00    -0.251 OA
ATOM     20  C   UNL     1      83.782  52.310  42.518  0.00  0.00    +0.033 C 
ENDBRANCH  17  18
ENDBRANCH  12  17
BRANCH   7  21
ATOM     21  C   UNL     1      86.649  50.704  44.845  0.00  0.00    +0.266 C 
BRANCH  21  22
ATOM     22  O   UNL     1      87.290  51.960  45.077  0.00  0.00    -0.420 OA
BRANCH  22  23
ATOM     23  C   UNL     1      86.693  53.209  44.869  0.00  0.00    +0.342 C 
ATOM     24  O   UNL     1      86.854  53.819  43.776  0.00  0.00    -0.245 OA
BRANCH  23  25
ATOM     25  C   UNL     1      85.887  53.818  45.948  0.00  0.00    +0.059 A 
ATOM     26  C   UNL     1      86.372  54.940  46.646  0.00  0.00    -0.048 A 
ATOM     27  C   UNL     1      85.613  55.519  47.669  0.00  0.00    -0.061 A 
ATOM     28  C   UNL     1      84.366  54.985  48.005  0.00  0.00    -0.062 A 
ATOM     29  C   UNL     1      83.876  53.871  47.319  0.00  0.00    -0.061 A 
ATOM     30  C   UNL     1      84.630  53.289  46.295  0.00  0.00    -0.048 A 
ENDBRANCH  23  25
ENDBRANCH  22  23
ENDBRANCH  21  22
BRANCH  21  31
ATOM     31  O   UNL     1      86.758  49.887  46.011  0.00  0.00    -0.423 OA
BRANCH  31  32
ATOM     32  C   UNL     1      87.378  50.291  47.196  0.00  0.00    +0.307 C 
ATOM     33  O   UNL     1      88.611  50.110  47.378  0.00  0.00    -0.251 OA
ATOM     34  C   UNL     1      86.578  51.010  48.227  0.00  0.00    +0.033 C 
ENDBRANCH  31  32
ENDBRANCH  21  31
ENDBRANCH   7  21
TORSDOF 10
ENDMDL
MODEL 9
REMARK VINA RESULT:    -8.855      1.897      6.101
REMARK INTER + INTRA:         -15.155
REMARK INTER:                 -13.772
REMARK INTRA:                  -1.383
REMARK UNBOUND:                -1.383
REMARK  Name = 
REMARK  12 active torsions:
REMARK  status: ('A' for Active; 'I' for Inactive)
REMARK    1  A    between atoms: C_2  and  C_3
REMARK    2  A    between atoms: C_9  and  C_20
REMARK    3  A    between atoms: C_13  and  O_19
REMARK    4  A    between atoms: C_14  and  O_15
REMARK    5  A    between atoms: O_15  and  C_16
REMARK    6  A    between atoms: C_16  and  C_18
REMARK    7  A    between atoms: C_20  and  O_21
REMARK    8  A    between atoms: C_20  and  O_30
REMARK    9  A    between atoms: O_21  and  C_22
REMARK   10  A    between atoms: C_22  and  C_24
REMARK   11  A    between atoms: O_30  and  C_31
REMARK   12  A    between atoms: C_31  and  C_33
REMARK                            x       y       z     vdW  Elec       q    Type
REMARK                         _______ _______ _______ _____ _____    ______ ____
ROOT
ATOM      1  C   UNL     1      82.926  50.588  42.820  0.00  0.00    +0.014 A 
ATOM      2  C   UNL     1      81.782  51.328  42.466  0.00  0.00    -0.051 A 
ATOM      3  C   UNL     1      81.903  52.598  41.892  0.00  0.00    -0.057 A 
ATOM      4  C   UNL     1      83.175  53.128  41.665  0.00  0.00    -0.034 A 
ATOM      5  C   UNL     1      84.333  52.403  42.015  0.00  0.00    -0.022 A 
ATOM      6  C   UNL     1      84.207  51.131  42.597  0.00  0.00    -0.047 A 
ATOM      7  C   UNL     1      85.640  53.156  41.706  0.00  0.00    +0.127 C 
ATOM      8  C   UNL     1      85.527  53.572  40.233  0.00  0.00    -0.066 C 
ATOM      9  C   UNL     1      84.404  54.249  39.908  0.00  0.00    -0.077 C 
ATOM     10  C   UNL     1      83.444  54.497  41.065  0.00  0.00    +0.032 C 
ATOM     11  C   UNL     1      84.242  55.280  42.155  0.00  0.00    +0.104 C 
ATOM     12  C   UNL     1      85.574  54.501  42.519  0.00  0.00    +0.149 C 
ENDROOT
BRANCH   1  14
ATOM     13  O   UNL     1      82.444  48.255  42.719  0.00  0.00    -0.296 OA
ATOM     14  C   UNL     1      82.764  49.252  43.422  0.00  0.00    +0.150 C 
ENDBRANCH   1  14
BRANCH  11  15
ATOM     15  O   UNL     1      84.508  56.600  41.745  0.00  0.00    -0.387 OA
ATOM     16  H   UNL     1      85.442  56.680  41.499  0.00  0.00    +0.000 HD
ENDBRANCH  11  15
BRANCH  12  17
ATOM     17  O   UNL     1      85.610  54.222  43.920  0.00  0.00    -0.457 OA
BRANCH  17  18
ATOM     18  C   UNL     1      85.476  55.203  44.907  0.00  0.00    +0.304 C 
ATOM     19  O   UNL     1      84.520  55.167  45.728  0.00  0.00    -0.251 OA
ATOM     20  C   UNL     1      86.441  56.338  44.943  0.00  0.00    +0.033 C 
ENDBRANCH  17  18
ENDBRANCH  12  17
BRANCH   7  21
ATOM     21  C   UNL     1      86.951  52.371  41.953  0.00  0.00    +0.266 C 
BRANCH  21  22
ATOM     22  O   UNL     1      87.232  52.353  43.354  0.00  0.00    -0.420 OA
BRANCH  22  23
ATOM     23  C   UNL     1      87.625  51.217  44.072  0.00  0.00    +0.342 C 
ATOM     24  O   UNL     1      88.204  50.261  43.486  0.00  0.00    -0.245 OA
BRANCH  23  25
ATOM     25  C   UNL     1      87.340  51.138  45.520  0.00  0.00    +0.059 A 
ATOM     26  C   UNL     1      86.321  51.927  46.085  0.00  0.00    -0.048 A 
ATOM     27  C   UNL     1      86.048  51.856  47.456  0.00  0.00    -0.061 A 
ATOM     28  C   UNL     1      86.789  50.999  48.273  0.00  0.00    -0.062 A 
ATOM     29  C   UNL     1      87.803  50.212  47.724  0.00  0.00    -0.061 A 
ATOM     30  C   UNL     1      88.079  50.278  46.354  0.00  0.00    -0.048 A 
ENDBRANCH  23  25
ENDBRANCH  22  23
ENDBRANCH  21  22
BRANCH  21  31
ATOM     31  O   UNL     1      88.030  52.994  41.256  0.00  0.00    -0.423 OA
BRANCH  31  32
ATOM     32  C   UNL     1      88.919  52.315  40.419  0.00  0.00    +0.307 C 
ATOM     33  O   UNL     1      88.685  51.135  40.045  0.00  0.00    -0.251 OA
ATOM     34  C   UNL     1      90.124  53.026  39.908  0.00  0.00    +0.033 C 
ENDBRANCH  31  32
ENDBRANCH  21  31
ENDBRANCH   7  21
TORSDOF 10
ENDMDL
