MODEL 1
REMARK VINA RESULT:    -7.697      0.000      0.000
REMARK INTER + INTRA:         -13.293
REMARK INTER:                 -11.863
REMARK INTRA:                  -1.430
REMARK UNBOUND:                -1.545
REMARK  Name = 
REMARK  12 active torsions:
REMARK  status: ('A' for Active; 'I' for Inactive)
REMARK    1  A    between atoms: C_1  and  C_2
REMARK    2  A    between atoms: C_2  and  O_4
REMARK    3  A    between atoms: O_4  and  C_5
REMARK    4  A    between atoms: C_8  and  O_23
REMARK    5  A    between atoms: C_9  and  O_22
REMARK    6  A    between atoms: C_10  and  O_11
REMARK    7  A    between atoms: C_10  and  C_12
REMARK    8  A    between atoms: C_12  and  O_13
REMARK    9  A    between atoms: O_13  and  C_14
REMARK   10  A    between atoms: C_14  and  C_16
REMARK   11  A    between atoms: O_23  and  C_24
REMARK   12  A    between atoms: C_24  and  C_26
REMARK                            x       y       z     vdW  Elec       q    Type
REMARK                         _______ _______ _______ _____ _____    ______ ____
ROOT
ATOM      1  C   UNL     1      89.151  49.410  41.280  0.00  0.00    +0.156 C 
ATOM      2  C   UNL     1      90.211  48.352  41.464  0.00  0.00    -0.041 C 
ATOM      3  C   UNL     1      89.962  47.158  42.029  0.00  0.00    -0.042 C 
ATOM      4  C   UNL     1      88.660  46.811  42.712  0.00  0.00    +0.150 C 
ATOM      5  C   UNL     1      87.528  47.818  42.367  0.00  0.00    +0.131 C 
ATOM      6  C   UNL     1      88.022  49.300  42.352  0.00  0.00    +0.170 C 
ENDROOT
BRANCH   6   7
ATOM      7  O   UNL     1      86.953  50.145  41.992  0.00  0.00    -0.379 OA
ATOM      8  H   UNL     1      87.295  51.028  41.782  0.00  0.00    +0.000 HD
ENDBRANCH   6   7
BRANCH   5   9
ATOM      9  O   UNL     1      86.398  47.655  43.191  0.00  0.00    -0.385 OA
ATOM     10  H   UNL     1      86.610  47.946  44.092  0.00  0.00    +0.000 HD
ENDBRANCH   5   9
BRANCH   1  11
ATOM     11  O   UNL     1      89.778  50.696  41.312  0.00  0.00    -0.454 OA
BRANCH  11  13
ATOM     12  C   UNL     1      90.179  53.041  40.564  0.00  0.00    +0.033 C 
ATOM     13  C   UNL     1      89.479  51.733  40.422  0.00  0.00    +0.305 C 
ATOM     14  O   UNL     1      88.670  51.559  39.471  0.00  0.00    -0.251 OA
ENDBRANCH  11  13
ENDBRANCH   1  11
BRANCH   6  15
ATOM     15  C   UNL     1      88.554  49.768  43.739  0.00  0.00    +0.128 C 
BRANCH  15  16
ATOM     16  O   UNL     1      87.495  50.136  44.622  0.00  0.00    -0.458 OA
BRANCH  16  17
ATOM     17  C   UNL     1      87.185  51.459  44.964  0.00  0.00    +0.339 C 
ATOM     18  O   UNL     1      87.308  52.380  44.110  0.00  0.00    -0.245 OA
BRANCH  17  19
ATOM     19  C   UNL     1      86.717  51.772  46.332  0.00  0.00    +0.059 A 
ATOM     20  C   UNL     1      85.961  52.934  46.574  0.00  0.00    -0.048 A 
ATOM     21  C   UNL     1      85.522  53.234  47.867  0.00  0.00    -0.061 A 
ATOM     22  C   UNL     1      85.830  52.381  48.929  0.00  0.00    -0.062 A 
ATOM     23  C   UNL     1      86.580  51.225  48.700  0.00  0.00    -0.061 A 
ATOM     24  C   UNL     1      87.022  50.920  47.409  0.00  0.00    -0.048 A 
ENDBRANCH  17  19
ENDBRANCH  16  17
ENDBRANCH  15  16
ENDBRANCH   6  15
BRANCH   4  25
ATOM     25  O   UNL     1      88.283  45.495  42.302  0.00  0.00    -0.455 OA
BRANCH  25  26
ATOM     26  C   UNL     1      87.733  44.535  43.160  0.00  0.00    +0.305 C 
ATOM     27  O   UNL     1      86.586  44.694  43.661  0.00  0.00    -0.251 OA
ATOM     28  C   UNL     1      88.544  43.345  43.541  0.00  0.00    +0.033 C 
ENDBRANCH  25  26
ENDBRANCH   4  25
TORSDOF 10
ENDMDL
MODEL 2
REMARK VINA RESULT:    -7.519      5.077      7.737
REMARK INTER + INTRA:         -13.021
REMARK INTER:                 -11.356
REMARK INTRA:                  -1.666
REMARK UNBOUND:                -1.545
REMARK  Name = 
REMARK  12 active torsions:
REMARK  status: ('A' for Active; 'I' for Inactive)
REMARK    1  A    between atoms: C_1  and  C_2
REMARK    2  A    between atoms: C_2  and  O_4
REMARK    3  A    between atoms: O_4  and  C_5
REMARK    4  A    between atoms: C_8  and  O_23
REMARK    5  A    between atoms: C_9  and  O_22
REMARK    6  A    between atoms: C_10  and  O_11
REMARK    7  A    between atoms: C_10  and  C_12
REMARK    8  A    between atoms: C_12  and  O_13
REMARK    9  A    between atoms: O_13  and  C_14
REMARK   10  A    between atoms: C_14  and  C_16
REMARK   11  A    between atoms: O_23  and  C_24
REMARK   12  A    between atoms: C_24  and  C_26
REMARK                            x       y       z     vdW  Elec       q    Type
REMARK                         _______ _______ _______ _____ _____    ______ ____
ROOT
ATOM      1  C   UNL     1      83.009  51.482  42.576  0.00  0.00    +0.156 C 
ATOM      2  C   UNL     1      81.914  52.439  42.172  0.00  0.00    -0.041 C 
ATOM      3  C   UNL     1      82.135  53.523  41.408  0.00  0.00    -0.042 C 
ATOM      4  C   UNL     1      83.513  54.012  41.027  0.00  0.00    +0.150 C 
ATOM      5  C   UNL     1      84.609  52.941  41.287  0.00  0.00    +0.131 C 
ATOM      6  C   UNL     1      84.403  52.180  42.635  0.00  0.00    +0.170 C 
ENDROOT
BRANCH   6   7
ATOM      7  O   UNL     1      85.409  51.202  42.778  0.00  0.00    -0.379 OA
ATOM      8  H   UNL     1      85.864  51.081  41.930  0.00  0.00    +0.000 HD
ENDBRANCH   6   7
BRANCH   5   9
ATOM      9  O   UNL     1      85.909  53.470  41.182  0.00  0.00    -0.385 OA
ATOM     10  H   UNL     1      86.343  53.438  42.049  0.00  0.00    +0.000 HD
ENDBRANCH   5   9
BRANCH   1  11
ATOM     11  O   UNL     1      82.663  50.897  43.835  0.00  0.00    -0.454 OA
BRANCH  11  13
ATOM     12  C   UNL     1      81.729  48.585  43.903  0.00  0.00    +0.033 C 
ATOM     13  C   UNL     1      82.844  49.545  44.144  0.00  0.00    +0.305 C 
ATOM     14  O   UNL     1      83.952  49.119  44.569  0.00  0.00    -0.251 OA
ENDBRANCH  11  13
ENDBRANCH   1  11
BRANCH   6  15
ATOM     15  C   UNL     1      84.477  53.124  43.873  0.00  0.00    +0.128 C 
BRANCH  15  16
ATOM     16  O   UNL     1      85.823  53.427  44.235  0.00  0.00    -0.458 OA
BRANCH  16  17
ATOM     17  C   UNL     1      86.436  54.665  44.004  0.00  0.00    +0.339 C 
ATOM     18  O   UNL     1      87.358  54.767  43.148  0.00  0.00    -0.245 OA
BRANCH  17  19
ATOM     19  C   UNL     1      86.001  55.853  44.771  0.00  0.00    +0.059 A 
ATOM     20  C   UNL     1      85.827  57.090  44.124  0.00  0.00    -0.048 A 
ATOM     21  C   UNL     1      85.421  58.215  44.848  0.00  0.00    -0.061 A 
ATOM     22  C   UNL     1      85.184  58.119  46.220  0.00  0.00    -0.062 A 
ATOM     23  C   UNL     1      85.355  56.896  46.874  0.00  0.00    -0.061 A 
ATOM     24  C   UNL     1      85.761  55.767  46.154  0.00  0.00    -0.048 A 
ENDBRANCH  17  19
ENDBRANCH  16  17
ENDBRANCH  15  16
ENDBRANCH   6  15
BRANCH   4  25
ATOM     25  O   UNL     1      83.492  54.361  39.642  0.00  0.00    -0.455 OA
BRANCH  25  26
ATOM     26  C   UNL     1      84.101  55.505  39.114  0.00  0.00    +0.305 C 
ATOM     27  O   UNL     1      85.087  56.040  39.691  0.00  0.00    -0.251 OA
ATOM     28  C   UNL     1      83.531  56.139  37.892  0.00  0.00    +0.033 C 
ENDBRANCH  25  26
ENDBRANCH   4  25
TORSDOF 10
ENDMDL
MODEL 3
REMARK VINA RESULT:    -7.510      4.492      7.278
REMARK INTER + INTRA:         -13.006
REMARK INTER:                 -11.512
REMARK INTRA:                  -1.494
REMARK UNBOUND:                -1.545
REMARK  Name = 
REMARK  12 active torsions:
REMARK  status: ('A' for Active; 'I' for Inactive)
REMARK    1  A    between atoms: C_1  and  C_2
REMARK    2  A    between atoms: C_2  and  O_4
REMARK    3  A    between atoms: O_4  and  C_5
REMARK    4  A    between atoms: C_8  and  O_23
REMARK    5  A    between atoms: C_9  and  O_22
REMARK    6  A    between atoms: C_10  and  O_11
REMARK    7  A    between atoms: C_10  and  C_12
REMARK    8  A    between atoms: C_12  and  O_13
REMARK    9  A    between atoms: O_13  and  C_14
REMARK   10  A    between atoms: C_14  and  C_16
REMARK   11  A    between atoms: O_23  and  C_24
REMARK   12  A    between atoms: C_24  and  C_26
REMARK                            x       y       z     vdW  Elec       q    Type
REMARK                         _______ _______ _______ _____ _____    ______ ____
ROOT
ATOM      1  C   UNL     1      83.000  50.965  42.984  0.00  0.00    +0.156 C 
ATOM      2  C   UNL     1      81.873  51.857  42.525  0.00  0.00    -0.041 C 
ATOM      3  C   UNL     1      82.072  52.979  41.813  0.00  0.00    -0.042 C 
ATOM      4  C   UNL     1      83.436  53.576  41.555  0.00  0.00    +0.150 C 
ATOM      5  C   UNL     1      84.583  52.576  41.867  0.00  0.00    +0.131 C 
ATOM      6  C   UNL     1      84.332  51.755  43.172  0.00  0.00    +0.170 C 
ENDROOT
BRANCH   6   7
ATOM      7  O   UNL     1      85.391  50.846  43.363  0.00  0.00    -0.379 OA
ATOM      8  H   UNL     1      85.051  49.938  43.316  0.00  0.00    +0.000 HD
ENDBRANCH   6   7
BRANCH   5   9
ATOM      9  O   UNL     1      85.846  53.197  41.878  0.00  0.00    -0.385 OA
ATOM     10  H   UNL     1      85.855  53.924  41.235  0.00  0.00    +0.000 HD
ENDBRANCH   5   9
BRANCH   1  11
ATOM     11  O   UNL     1      82.603  50.313  44.194  0.00  0.00    -0.454 OA
BRANCH  11  13
ATOM     12  C   UNL     1      80.763  48.630  44.264  0.00  0.00    +0.033 C 
ATOM     13  C   UNL     1      82.214  48.971  44.268  0.00  0.00    +0.305 C 
ATOM     14  O   UNL     1      83.073  48.047  44.281  0.00  0.00    -0.251 OA
ENDBRANCH  11  13
ENDBRANCH   1  11
BRANCH   6  15
ATOM     15  C   UNL     1      84.244  52.658  44.439  0.00  0.00    +0.128 C 
BRANCH  15  16
ATOM     16  O   UNL     1      85.316  53.598  44.502  0.00  0.00    -0.458 OA
BRANCH  16  17
ATOM     17  C   UNL     1      86.031  53.891  45.670  0.00  0.00    +0.339 C 
ATOM     18  O   UNL     1      86.373  55.080  45.923  0.00  0.00    -0.245 OA
BRANCH  17  19
ATOM     19  C   UNL     1      86.389  52.801  46.605  0.00  0.00    +0.059 A 
ATOM     20  C   UNL     1      87.293  51.799  46.211  0.00  0.00    -0.048 A 
ATOM     21  C   UNL     1      87.629  50.765  47.091  0.00  0.00    -0.061 A 
ATOM     22  C   UNL     1      87.068  50.721  48.369  0.00  0.00    -0.062 A 
ATOM     23  C   UNL     1      86.168  51.711  48.771  0.00  0.00    -0.061 A 
ATOM     24  C   UNL     1      85.829  52.747  47.894  0.00  0.00    -0.048 A 
ENDBRANCH  17  19
ENDBRANCH  16  17
ENDBRANCH  15  16
ENDBRANCH   6  15
BRANCH   4  25
ATOM     25  O   UNL     1      83.493  53.971  40.183  0.00  0.00    -0.455 OA
BRANCH  25  26
ATOM     26  C   UNL     1      84.059  55.172  39.738  0.00  0.00    +0.305 C 
ATOM     27  O   UNL     1      84.889  55.800  40.449  0.00  0.00    -0.251 OA
ATOM     28  C   UNL     1      83.619  55.748  38.436  0.00  0.00    +0.033 C 
ENDBRANCH  25  26
ENDBRANCH   4  25
TORSDOF 10
ENDMDL
MODEL 4
REMARK VINA RESULT:    -7.477      2.598      3.237
REMARK INTER + INTRA:         -12.957
REMARK INTER:                 -11.523
REMARK INTRA:                  -1.434
REMARK UNBOUND:                -1.545
REMARK  Name = 
REMARK  12 active torsions:
REMARK  status: ('A' for Active; 'I' for Inactive)
REMARK    1  A    between atoms: C_1  and  C_2
REMARK    2  A    between atoms: C_2  and  O_4
REMARK    3  A    between atoms: O_4  and  C_5
REMARK    4  A    between atoms: C_8  and  O_23
REMARK    5  A    between atoms: C_9  and  O_22
REMARK    6  A    between atoms: C_10  and  O_11
REMARK    7  A    between atoms: C_10  and  C_12
REMARK    8  A    between atoms: C_12  and  O_13
REMARK    9  A    between atoms: O_13  and  C_14
REMARK   10  A    between atoms: C_14  and  C_16
REMARK   11  A    between atoms: O_23  and  C_24
REMARK   12  A    between atoms: C_24  and  C_26
REMARK                            x       y       z     vdW  Elec       q    Type
REMARK                         _______ _______ _______ _____ _____    ______ ____
ROOT
ATOM      1  C   UNL     1      89.523  49.369  41.430  0.00  0.00    +0.156 C 
ATOM      2  C   UNL     1      90.593  48.594  42.159  0.00  0.00    -0.041 C 
ATOM      3  C   UNL     1      90.376  47.386  42.706  0.00  0.00    -0.042 C 
ATOM      4  C   UNL     1      89.009  46.753  42.824  0.00  0.00    +0.150 C 
ATOM      5  C   UNL     1      87.956  47.459  41.925  0.00  0.00    +0.131 C 
ATOM      6  C   UNL     1      88.092  49.015  41.942  0.00  0.00    +0.170 C 
ENDROOT
BRANCH   6   7
ATOM      7  O   UNL     1      87.134  49.578  41.076  0.00  0.00    -0.379 OA
ATOM      8  H   UNL     1      87.557  49.814  40.235  0.00  0.00    +0.000 HD
ENDBRANCH   6   7
BRANCH   5   9
ATOM      9  O   UNL     1      86.641  47.050  42.219  0.00  0.00    -0.385 OA
ATOM     10  H   UNL     1      86.516  46.132  41.928  0.00  0.00    +0.000 HD
ENDBRANCH   5   9
BRANCH   1  11
ATOM     11  O   UNL     1      89.797  50.767  41.569  0.00  0.00    -0.454 OA
BRANCH  11  13
ATOM     12  C   UNL     1      90.128  53.089  40.719  0.00  0.00    +0.033 C 
ATOM     13  C   UNL     1      89.594  51.707  40.553  0.00  0.00    +0.305 C 
ATOM     14  O   UNL     1      89.017  51.387  39.478  0.00  0.00    -0.251 OA
ENDBRANCH  11  13
ENDBRANCH   1  11
BRANCH   6  15
ATOM     15  C   UNL     1      87.867  49.621  43.360  0.00  0.00    +0.128 C 
BRANCH  15  16
ATOM     16  O   UNL     1      86.519  50.048  43.552  0.00  0.00    -0.458 OA
BRANCH  16  17
ATOM     17  C   UNL     1      85.527  49.264  44.154  0.00  0.00    +0.339 C 
ATOM     18  O   UNL     1      85.848  48.318  44.927  0.00  0.00    -0.245 OA
BRANCH  17  19
ATOM     19  C   UNL     1      84.101  49.545  43.877  0.00  0.00    +0.059 A 
ATOM     20  C   UNL     1      83.142  48.523  43.992  0.00  0.00    -0.048 A 
ATOM     21  C   UNL     1      81.794  48.785  43.726  0.00  0.00    -0.061 A 
ATOM     22  C   UNL     1      81.391  50.066  43.345  0.00  0.00    -0.062 A 
ATOM     23  C   UNL     1      82.335  51.089  43.227  0.00  0.00    -0.061 A 
ATOM     24  C   UNL     1      83.684  50.832  43.491  0.00  0.00    -0.048 A 
ENDBRANCH  17  19
ENDBRANCH  16  17
ENDBRANCH  15  16
ENDBRANCH   6  15
BRANCH   4  25
ATOM     25  O   UNL     1      89.123  45.378  42.451  0.00  0.00    -0.455 OA
BRANCH  25  26
ATOM     26  C   UNL     1      88.302  44.361  42.950  0.00  0.00    +0.305 C 
ATOM     27  O   UNL     1      87.136  44.191  42.502  0.00  0.00    -0.251 OA
ATOM     28  C   UNL     1      88.789  43.515  44.075  0.00  0.00    +0.033 C 
ENDBRANCH  25  26
ENDBRANCH   4  25
TORSDOF 10
ENDMDL
MODEL 5
REMARK VINA RESULT:    -7.398      3.987      6.769
REMARK INTER + INTRA:         -12.836
REMARK INTER:                 -11.713
REMARK INTRA:                  -1.123
REMARK UNBOUND:                -1.545
REMARK  Name = 
REMARK  12 active torsions:
REMARK  status: ('A' for Active; 'I' for Inactive)
REMARK    1  A    between atoms: C_1  and  C_2
REMARK    2  A    between atoms: C_2  and  O_4
REMARK    3  A    between atoms: O_4  and  C_5
REMARK    4  A    between atoms: C_8  and  O_23
REMARK    5  A    between atoms: C_9  and  O_22
REMARK    6  A    between atoms: C_10  and  O_11
REMARK    7  A    between atoms: C_10  and  C_12
REMARK    8  A    between atoms: C_12  and  O_13
REMARK    9  A    between atoms: O_13  and  C_14
REMARK   10  A    between atoms: C_14  and  C_16
REMARK   11  A    between atoms: O_23  and  C_24
REMARK   12  A    between atoms: C_24  and  C_26
REMARK                            x       y       z     vdW  Elec       q    Type
REMARK                         _______ _______ _______ _____ _____    ______ ____
ROOT
ATOM      1  C   UNL     1      87.037  45.255  43.710  0.00  0.00    +0.156 C 
ATOM      2  C   UNL     1      87.775  45.812  42.517  0.00  0.00    -0.041 C 
ATOM      3  C   UNL     1      87.758  47.116  42.191  0.00  0.00    -0.042 C 
ATOM      4  C   UNL     1      86.859  48.133  42.854  0.00  0.00    +0.150 C 
ATOM      5  C   UNL     1      86.246  47.601  44.179  0.00  0.00    +0.131 C 
ATOM      6  C   UNL     1      85.786  46.111  44.077  0.00  0.00    +0.170 C 
ENDROOT
BRANCH   6   7
ATOM      7  O   UNL     1      85.283  45.691  45.325  0.00  0.00    -0.379 OA
ATOM      8  H   UNL     1      84.418  45.270  45.199  0.00  0.00    +0.000 HD
ENDBRANCH   6   7
BRANCH   5   9
ATOM      9  O   UNL     1      85.218  48.430  44.665  0.00  0.00    -0.385 OA
ATOM     10  H   UNL     1      85.512  48.866  45.481  0.00  0.00    +0.000 HD
ENDBRANCH   5   9
BRANCH   1  11
ATOM     11  O   UNL     1      86.679  43.898  43.431  0.00  0.00    -0.454 OA
BRANCH  11  13
ATOM     12  C   UNL     1      88.431  42.713  44.754  0.00  0.00    +0.033 C 
ATOM     13  C   UNL     1      87.560  42.817  43.549  0.00  0.00    +0.305 C 
ATOM     14  O   UNL     1      87.586  41.904  42.679  0.00  0.00    -0.251 OA
ENDBRANCH  11  13
ENDBRANCH   1  11
BRANCH   6  15
ATOM     15  C   UNL     1      84.665  45.903  43.016  0.00  0.00    +0.128 C 
BRANCH  15  16
ATOM     16  O   UNL     1      83.697  46.951  43.046  0.00  0.00    -0.458 OA
BRANCH  16  17
ATOM     17  C   UNL     1      82.539  46.923  43.833  0.00  0.00    +0.339 C 
ATOM     18  O   UNL     1      82.335  45.967  44.631  0.00  0.00    -0.245 OA
BRANCH  17  19
ATOM     19  C   UNL     1      81.550  48.019  43.722  0.00  0.00    +0.059 A 
ATOM     20  C   UNL     1      80.253  47.859  44.239  0.00  0.00    -0.048 A 
ATOM     21  C   UNL     1      79.316  48.891  44.131  0.00  0.00    -0.061 A 
ATOM     22  C   UNL     1      79.663  50.091  43.507  0.00  0.00    -0.062 A 
ATOM     23  C   UNL     1      80.949  50.262  42.989  0.00  0.00    -0.061 A 
ATOM     24  C   UNL     1      81.890  49.232  43.094  0.00  0.00    -0.048 A 
ENDBRANCH  17  19
ENDBRANCH  16  17
ENDBRANCH  15  16
ENDBRANCH   6  15
BRANCH   4  25
ATOM     25  O   UNL     1      87.632  49.307  43.112  0.00  0.00    -0.455 OA
BRANCH  25  26
ATOM     26  C   UNL     1      87.793  50.355  42.198  0.00  0.00    +0.305 C 
ATOM     27  O   UNL     1      87.499  50.205  40.981  0.00  0.00    -0.251 OA
ATOM     28  C   UNL     1      88.387  51.641  42.659  0.00  0.00    +0.033 C 
ENDBRANCH  25  26
ENDBRANCH   4  25
TORSDOF 10
ENDMDL
MODEL 6
REMARK VINA RESULT:    -7.329      4.692      7.245
REMARK INTER + INTRA:         -12.730
REMARK INTER:                 -11.220
REMARK INTRA:                  -1.510
REMARK UNBOUND:                -1.545
REMARK  Name = 
REMARK  12 active torsions:
REMARK  status: ('A' for Active; 'I' for Inactive)
REMARK    1  A    between atoms: C_1  and  C_2
REMARK    2  A    between atoms: C_2  and  O_4
REMARK    3  A    between atoms: O_4  and  C_5
REMARK    4  A    between atoms: C_8  and  O_23
REMARK    5  A    between atoms: C_9  and  O_22
REMARK    6  A    between atoms: C_10  and  O_11
REMARK    7  A    between atoms: C_10  and  C_12
REMARK    8  A    between atoms: C_12  and  O_13
REMARK    9  A    between atoms: O_13  and  C_14
REMARK   10  A    between atoms: C_14  and  C_16
REMARK   11  A    between atoms: O_23  and  C_24
REMARK   12  A    between atoms: C_24  and  C_26
REMARK                            x       y       z     vdW  Elec       q    Type
REMARK                         _______ _______ _______ _____ _____    ______ ____
ROOT
ATOM      1  C   UNL     1      85.799  54.559  43.515  0.00  0.00    +0.156 C 
ATOM      2  C   UNL     1      87.095  53.788  43.468  0.00  0.00    -0.041 C 
ATOM      3  C   UNL     1      87.483  53.074  42.398  0.00  0.00    -0.042 C 
ATOM      4  C   UNL     1      86.596  52.803  41.206  0.00  0.00    +0.150 C 
ATOM      5  C   UNL     1      85.351  53.733  41.176  0.00  0.00    +0.131 C 
ATOM      6  C   UNL     1      84.712  53.932  42.588  0.00  0.00    +0.170 C 
ENDROOT
BRANCH   6   7
ATOM      7  O   UNL     1      83.619  54.817  42.485  0.00  0.00    -0.379 OA
ATOM      8  H   UNL     1      83.079  54.575  41.716  0.00  0.00    +0.000 HD
ENDBRANCH   6   7
BRANCH   5   9
ATOM      9  O   UNL     1      84.398  53.321  40.227  0.00  0.00    -0.385 OA
ATOM     10  H   UNL     1      83.525  53.668  40.473  0.00  0.00    +0.000 HD
ENDBRANCH   5   9
BRANCH   1  11
ATOM     11  O   UNL     1      85.354  54.624  44.873  0.00  0.00    -0.454 OA
BRANCH  11  13
ATOM     12  C   UNL     1      85.634  56.154  46.823  0.00  0.00    +0.033 C 
ATOM     13  C   UNL     1      84.993  55.810  45.522  0.00  0.00    +0.305 C 
ATOM     14  O   UNL     1      84.178  56.615  44.994  0.00  0.00    -0.251 OA
ENDBRANCH  11  13
ENDBRANCH   1  11
BRANCH   6  15
ATOM     15  C   UNL     1      84.190  52.599  43.201  0.00  0.00    +0.128 C 
BRANCH  15  16
ATOM     16  O   UNL     1      83.350  51.885  42.295  0.00  0.00    -0.458 OA
BRANCH  16  17
ATOM     17  C   UNL     1      81.966  51.746  42.456  0.00  0.00    +0.339 C 
ATOM     18  O   UNL     1      81.191  52.686  42.125  0.00  0.00    -0.245 OA
BRANCH  17  19
ATOM     19  C   UNL     1      81.415  50.494  43.020  0.00  0.00    +0.059 A 
ATOM     20  C   UNL     1      82.266  49.413  43.311  0.00  0.00    -0.048 A 
ATOM     21  C   UNL     1      81.747  48.227  43.840  0.00  0.00    -0.061 A 
ATOM     22  C   UNL     1      80.377  48.108  44.084  0.00  0.00    -0.062 A 
ATOM     23  C   UNL     1      79.522  49.175  43.798  0.00  0.00    -0.061 A 
ATOM     24  C   UNL     1      80.036  50.363  43.268  0.00  0.00    -0.048 A 
ENDBRANCH  17  19
ENDBRANCH  16  17
ENDBRANCH  15  16
ENDBRANCH   6  15
BRANCH   4  25
ATOM     25  O   UNL     1      87.374  52.993  40.022  0.00  0.00    -0.455 OA
BRANCH  25  26
ATOM     26  C   UNL     1      88.606  52.372  39.788  0.00  0.00    +0.305 C 
ATOM     27  O   UNL     1      88.684  51.123  39.634  0.00  0.00    -0.251 OA
ATOM     28  C   UNL     1      89.850  53.192  39.791  0.00  0.00    +0.033 C 
ENDBRANCH  25  26
ENDBRANCH   4  25
TORSDOF 10
ENDMDL
MODEL 7
REMARK VINA RESULT:    -7.197      3.451      8.267
REMARK INTER + INTRA:         -12.529
REMARK INTER:                 -11.134
REMARK INTRA:                  -1.396
REMARK UNBOUND:                -1.545
REMARK  Name = 
REMARK  12 active torsions:
REMARK  status: ('A' for Active; 'I' for Inactive)
REMARK    1  A    between atoms: C_1  and  C_2
REMARK    2  A    between atoms: C_2  and  O_4
REMARK    3  A    between atoms: O_4  and  C_5
REMARK    4  A    between atoms: C_8  and  O_23
REMARK    5  A    between atoms: C_9  and  O_22
REMARK    6  A    between atoms: C_10  and  O_11
REMARK    7  A    between atoms: C_10  and  C_12
REMARK    8  A    between atoms: C_12  and  O_13
REMARK    9  A    between atoms: O_13  and  C_14
REMARK   10  A    between atoms: C_14  and  C_16
REMARK   11  A    between atoms: O_23  and  C_24
REMARK   12  A    between atoms: C_24  and  C_26
REMARK                            x       y       z     vdW  Elec       q    Type
REMARK                         _______ _______ _______ _____ _____    ______ ____
ROOT
ATOM      1  C   UNL     1      84.364  52.527  43.397  0.00  0.00    +0.156 C 
ATOM      2  C   UNL     1      84.654  52.976  44.809  0.00  0.00    -0.041 C 
ATOM      3  C   UNL     1      84.880  54.259  45.136  0.00  0.00    -0.042 C 
ATOM      4  C   UNL     1      85.060  55.363  44.120  0.00  0.00    +0.150 C 
ATOM      5  C   UNL     1      84.589  54.939  42.702  0.00  0.00    +0.131 C 
ATOM      6  C   UNL     1      85.005  53.478  42.338  0.00  0.00    +0.170 C 
ENDROOT
BRANCH   6   7
ATOM      7  O   UNL     1      84.507  53.154  41.060  0.00  0.00    -0.379 OA
ATOM      8  H   UNL     1      85.184  53.347  40.391  0.00  0.00    +0.000 HD
ENDBRANCH   6   7
BRANCH   5   9
ATOM      9  O   UNL     1      84.986  55.854  41.710  0.00  0.00    -0.385 OA
ATOM     10  H   UNL     1      84.408  55.764  40.935  0.00  0.00    +0.000 HD
ENDBRANCH   5   9
BRANCH   1  11
ATOM     11  O   UNL     1      84.828  51.183  43.241  0.00  0.00    -0.454 OA
BRANCH  11  13
ATOM     12  C   UNL     1      85.582  49.408  44.824  0.00  0.00    +0.033 C 
ATOM     13  C   UNL     1      84.496  50.136  44.109  0.00  0.00    +0.305 C 
ATOM     14  O   UNL     1      83.291  49.840  44.336  0.00  0.00    -0.251 OA
ENDBRANCH  11  13
ENDBRANCH   1  11
BRANCH   6  15
ATOM     15  C   UNL     1      86.550  53.284  42.311  0.00  0.00    +0.128 C 
BRANCH  15  16
ATOM     16  O   UNL     1      87.022  52.922  41.015  0.00  0.00    -0.458 OA
BRANCH  16  17
ATOM     17  C   UNL     1      88.281  52.358  40.769  0.00  0.00    +0.339 C 
ATOM     18  O   UNL     1      89.140  52.992  40.096  0.00  0.00    -0.245 OA
BRANCH  17  19
ATOM     19  C   UNL     1      88.597  51.013  41.298  0.00  0.00    +0.059 A 
ATOM     20  C   UNL     1      89.899  50.712  41.737  0.00  0.00    -0.048 A 
ATOM     21  C   UNL     1      90.202  49.440  42.232  0.00  0.00    -0.061 A 
ATOM     22  C   UNL     1      89.211  48.457  42.295  0.00  0.00    -0.062 A 
ATOM     23  C   UNL     1      87.915  48.745  41.861  0.00  0.00    -0.061 A 
ATOM     24  C   UNL     1      87.607  50.015  41.365  0.00  0.00    -0.048 A 
ENDBRANCH  17  19
ENDBRANCH  16  17
ENDBRANCH  15  16
ENDBRANCH   6  15
BRANCH   4  25
ATOM     25  O   UNL     1      84.313  56.498  44.563  0.00  0.00    -0.455 OA
BRANCH  25  26
ATOM     26  C   UNL     1      84.810  57.806  44.576  0.00  0.00    +0.305 C 
ATOM     27  O   UNL     1      85.429  58.274  43.582  0.00  0.00    -0.251 OA
ATOM     28  C   UNL     1      84.668  58.630  45.809  0.00  0.00    +0.033 C 
ENDBRANCH  25  26
ENDBRANCH   4  25
TORSDOF 10
ENDMDL
MODEL 8
REMARK VINA RESULT:    -7.090      3.757      8.209
REMARK INTER + INTRA:         -12.365
REMARK INTER:                 -10.968
REMARK INTRA:                  -1.397
REMARK UNBOUND:                -1.545
REMARK  Name = 
REMARK  12 active torsions:
REMARK  status: ('A' for Active; 'I' for Inactive)
REMARK    1  A    between atoms: C_1  and  C_2
REMARK    2  A    between atoms: C_2  and  O_4
REMARK    3  A    between atoms: O_4  and  C_5
REMARK    4  A    between atoms: C_8  and  O_23
REMARK    5  A    between atoms: C_9  and  O_22
REMARK    6  A    between atoms: C_10  and  O_11
REMARK    7  A    between atoms: C_10  and  C_12
REMARK    8  A    between atoms: C_12  and  O_13
REMARK    9  A    between atoms: O_13  and  C_14
REMARK   10  A    between atoms: C_14  and  C_16
REMARK   11  A    between atoms: O_23  and  C_24
REMARK   12  A    between atoms: C_24  and  C_26
REMARK                            x       y       z     vdW  Elec       q    Type
REMARK                         _______ _______ _______ _____ _____    ______ ____
ROOT
ATOM      1  C   UNL     1      84.315  55.195  45.083  0.00  0.00    +0.156 C 
ATOM      2  C   UNL     1      84.536  56.462  44.293  0.00  0.00    -0.041 C 
ATOM      3  C   UNL     1      84.630  56.480  42.952  0.00  0.00    -0.042 C 
ATOM      4  C   UNL     1      84.719  55.234  42.102  0.00  0.00    +0.150 C 
ATOM      5  C   UNL     1      84.316  53.956  42.889  0.00  0.00    +0.131 C 
ATOM      6  C   UNL     1      84.878  53.940  44.346  0.00  0.00    +0.170 C 
ENDROOT
BRANCH   6   7
ATOM      7  O   UNL     1      84.436  52.775  45.004  0.00  0.00    -0.379 OA
ATOM      8  H   UNL     1      84.762  51.993  44.531  0.00  0.00    +0.000 HD
ENDBRANCH   6   7
BRANCH   5   9
ATOM      9  O   UNL     1      84.639  52.776  42.194  0.00  0.00    -0.385 OA
ATOM     10  H   UNL     1      85.579  52.571  42.324  0.00  0.00    +0.000 HD
ENDBRANCH   5   9
BRANCH   1  11
ATOM     11  O   UNL     1      84.910  55.353  46.375  0.00  0.00    -0.454 OA
BRANCH  11  13
ATOM     12  C   UNL     1      84.818  53.911  48.408  0.00  0.00    +0.033 C 
ATOM     13  C   UNL     1      84.272  55.020  47.575  0.00  0.00    +0.305 C 
ATOM     14  O   UNL     1      83.279  55.680  47.986  0.00  0.00    -0.251 OA
ENDBRANCH  11  13
ENDBRANCH   1  11
BRANCH   6  15
ATOM     15  C   UNL     1      86.435  53.950  44.387  0.00  0.00    +0.128 C 
BRANCH  15  16
ATOM     16  O   UNL     1      86.988  52.682  44.034  0.00  0.00    -0.458 OA
BRANCH  16  17
ATOM     17  C   UNL     1      87.819  52.471  42.927  0.00  0.00    +0.339 C 
ATOM     18  O   UNL     1      88.012  53.398  42.092  0.00  0.00    -0.245 OA
BRANCH  17  19
ATOM     19  C   UNL     1      88.468  51.155  42.737  0.00  0.00    +0.059 A 
ATOM     20  C   UNL     1      89.229  50.900  41.582  0.00  0.00    -0.048 A 
ATOM     21  C   UNL     1      89.838  49.655  41.398  0.00  0.00    -0.061 A 
ATOM     22  C   UNL     1      89.696  48.654  42.362  0.00  0.00    -0.062 A 
ATOM     23  C   UNL     1      88.941  48.896  43.512  0.00  0.00    -0.061 A 
ATOM     24  C   UNL     1      88.329  50.140  43.701  0.00  0.00    -0.048 A 
ENDBRANCH  17  19
ENDBRANCH  16  17
ENDBRANCH  15  16
ENDBRANCH   6  15
BRANCH   4  25
ATOM     25  O   UNL     1      83.858  55.405  40.975  0.00  0.00    -0.455 OA
BRANCH  25  26
ATOM     26  C   UNL     1      84.206  55.060  39.664  0.00  0.00    +0.305 C 
ATOM     27  O   UNL     1      85.116  54.218  39.435  0.00  0.00    -0.251 OA
ATOM     28  C   UNL     1      83.540  55.752  38.525  0.00  0.00    +0.033 C 
ENDBRANCH  25  26
ENDBRANCH   4  25
TORSDOF 10
ENDMDL
MODEL 9
REMARK VINA RESULT:    -7.042      3.154      4.681
REMARK INTER + INTRA:         -12.293
REMARK INTER:                 -10.748
REMARK INTRA:                  -1.545
REMARK UNBOUND:                -1.545
REMARK  Name = 
REMARK  12 active torsions:
REMARK  status: ('A' for Active; 'I' for Inactive)
REMARK    1  A    between atoms: C_1  and  C_2
REMARK    2  A    between atoms: C_2  and  O_4
REMARK    3  A    between atoms: O_4  and  C_5
REMARK    4  A    between atoms: C_8  and  O_23
REMARK    5  A    between atoms: C_9  and  O_22
REMARK    6  A    between atoms: C_10  and  O_11
REMARK    7  A    between atoms: C_10  and  C_12
REMARK    8  A    between atoms: C_12  and  O_13
REMARK    9  A    between atoms: O_13  and  C_14
REMARK   10  A    between atoms: C_14  and  C_16
REMARK   11  A    between atoms: O_23  and  C_24
REMARK   12  A    between atoms: C_24  and  C_26
REMARK                            x       y       z     vdW  Elec       q    Type
REMARK                         _______ _______ _______ _____ _____    ______ ____
ROOT
ATOM      1  C   UNL     1      85.812  53.030  40.943  0.00  0.00    +0.156 C 
ATOM      2  C   UNL     1      87.161  52.831  40.297  0.00  0.00    -0.041 C 
ATOM      3  C   UNL     1      88.101  52.014  40.804  0.00  0.00    -0.042 C 
ATOM      4  C   UNL     1      87.996  51.357  42.160  0.00  0.00    +0.150 C 
ATOM      5  C   UNL     1      86.553  51.417  42.732  0.00  0.00    +0.131 C 
ATOM      6  C   UNL     1      85.861  52.796  42.485  0.00  0.00    +0.170 C 
ENDROOT
BRANCH   6   7
ATOM      7  O   UNL     1      84.548  52.757  42.994  0.00  0.00    -0.379 OA
ATOM      8  H   UNL     1      84.054  52.043  42.561  0.00  0.00    +0.000 HD
ENDBRANCH   6   7
BRANCH   5   9
ATOM      9  O   UNL     1      86.499  51.044  44.088  0.00  0.00    -0.385 OA
ATOM     10  H   UNL     1      87.057  51.643  44.611  0.00  0.00    +0.000 HD
ENDBRANCH   5   9
BRANCH   1  11
ATOM     11  O   UNL     1      85.344  54.345  40.629  0.00  0.00    -0.454 OA
BRANCH  11  13
ATOM     12  C   UNL     1      83.934  55.308  38.810  0.00  0.00    +0.033 C 
ATOM     13  C   UNL     1      84.068  54.621  40.126  0.00  0.00    +0.305 C 
ATOM     14  O   UNL     1      83.033  54.247  40.743  0.00  0.00    -0.251 OA
ENDBRANCH  11  13
ENDBRANCH   1  11
BRANCH   6  15
ATOM     15  C   UNL     1      86.608  53.973  43.181  0.00  0.00    +0.128 C 
BRANCH  15  16
ATOM     16  O   UNL     1      86.486  53.920  44.602  0.00  0.00    -0.458 OA
BRANCH  16  17
ATOM     17  C   UNL     1      86.031  54.986  45.389  0.00  0.00    +0.339 C 
ATOM     18  O   UNL     1      86.179  56.175  44.994  0.00  0.00    -0.245 OA
BRANCH  17  19
ATOM     19  C   UNL     1      85.380  54.711  46.689  0.00  0.00    +0.059 A 
ATOM     20  C   UNL     1      85.747  53.581  47.441  0.00  0.00    -0.048 A 
ATOM     21  C   UNL     1      85.130  53.317  48.668  0.00  0.00    -0.061 A 
ATOM     22  C   UNL     1      84.144  54.176  49.156  0.00  0.00    -0.062 A 
ATOM     23  C   UNL     1      83.771  55.302  48.418  0.00  0.00    -0.061 A 
ATOM     24  C   UNL     1      84.384  55.570  47.190  0.00  0.00    -0.048 A 
ENDBRANCH  17  19
ENDBRANCH  16  17
ENDBRANCH  15  16
ENDBRANCH   6  15
BRANCH   4  25
ATOM     25  O   UNL     1      88.411  49.996  42.026  0.00  0.00    -0.455 OA
BRANCH  25  26
ATOM     26  C   UNL     1      89.309  49.362  42.893  0.00  0.00    +0.305 C 
ATOM     27  O   UNL     1      89.079  49.299  44.131  0.00  0.00    -0.251 OA
ATOM     28  C   UNL     1      90.586  48.818  42.352  0.00  0.00    +0.033 C 
ENDBRANCH  25  26
ENDBRANCH   4  25
TORSDOF 10
ENDMDL
