MODEL 1
REMARK VINA RESULT:    -9.293      0.000      0.000
REMARK INTER + INTRA:         -16.212
REMARK INTER:                 -13.736
REMARK INTRA:                  -2.476
REMARK UNBOUND:                -1.758
REMARK  Name = 
REMARK  12 active torsions:
REMARK  status: ('A' for Active; 'I' for Inactive)
REMARK    1  A    between atoms: C_2  and  C_3
REMARK    2  A    between atoms: C_9  and  C_20
REMARK    3  A    between atoms: C_13  and  O_19
REMARK    4  A    between atoms: C_14  and  O_15
REMARK    5  A    between atoms: O_15  and  C_16
REMARK    6  A    between atoms: C_16  and  C_18
REMARK    7  A    between atoms: C_20  and  O_21
REMARK    8  A    between atoms: C_20  and  O_30
REMARK    9  A    between atoms: O_21  and  C_22
REMARK   10  A    between atoms: C_22  and  C_24
REMARK   11  A    between atoms: O_30  and  C_31
REMARK   12  A    between atoms: C_31  and  C_33
REMARK                            x       y       z     vdW  Elec       q    Type
REMARK                         _______ _______ _______ _____ _____    ______ ____
ROOT
ATOM      1  C   UNL     1      84.347  54.215  47.942  0.00  0.00    +0.014 A 
ATOM      2  C   UNL     1      84.892  53.377  48.934  0.00  0.00    -0.051 A 
ATOM      3  C   UNL     1      85.671  52.269  48.583  0.00  0.00    -0.057 A 
ATOM      4  C   UNL     1      85.912  52.002  47.234  0.00  0.00    -0.034 A 
ATOM      5  C   UNL     1      85.373  52.830  46.226  0.00  0.00    -0.022 A 
ATOM      6  C   UNL     1      84.587  53.936  46.583  0.00  0.00    -0.047 A 
ATOM      7  C   UNL     1      85.732  52.366  44.802  0.00  0.00    +0.127 C 
ATOM      8  C   UNL     1      87.259  52.213  44.800  0.00  0.00    -0.066 C 
ATOM      9  C   UNL     1      87.763  51.434  45.783  0.00  0.00    -0.077 C 
ATOM     10  C   UNL     1      86.726  50.828  46.720  0.00  0.00    +0.032 C 
ATOM     11  C   UNL     1      85.744  49.999  45.832  0.00  0.00    +0.104 C 
ATOM     12  C   UNL     1      85.172  50.903  44.662  0.00  0.00    +0.149 C 
ENDROOT
BRANCH   1  14
ATOM     13  O   UNL     1      83.482  56.416  47.636  0.00  0.00    -0.296 OA
ATOM     14  C   UNL     1      83.531  55.375  48.346  0.00  0.00    +0.150 C 
ENDBRANCH   1  14
BRANCH  11  15
ATOM     15  O   UNL     1      86.363  48.836  45.335  0.00  0.00    -0.387 OA
ATOM     16  H   UNL     1      86.936  48.457  46.018  0.00  0.00    +0.000 HD
ENDBRANCH  11  15
BRANCH  12  17
ATOM     17  O   UNL     1      83.744  50.924  44.714  0.00  0.00    -0.457 OA
BRANCH  17  18
ATOM     18  C   UNL     1      82.934  49.992  44.058  0.00  0.00    +0.304 C 
ATOM     19  O   UNL     1      82.980  48.769  44.362  0.00  0.00    -0.251 OA
ATOM     20  C   UNL     1      82.054  50.445  42.945  0.00  0.00    +0.033 C 
ENDBRANCH  17  18
ENDBRANCH  12  17
BRANCH   7  21
ATOM     21  C   UNL     1      85.276  53.294  43.651  0.00  0.00    +0.266 C 
BRANCH  21  22
ATOM     22  O   UNL     1      85.203  52.540  42.439  0.00  0.00    -0.420 OA
BRANCH  22  23
ATOM     23  C   UNL     1      86.119  52.637  41.385  0.00  0.00    +0.342 C 
ATOM     24  O   UNL     1      85.878  53.384  40.396  0.00  0.00    -0.245 OA
BRANCH  23  25
ATOM     25  C   UNL     1      87.365  51.842  41.429  0.00  0.00    +0.059 A 
ATOM     26  C   UNL     1      87.307  50.442  41.559  0.00  0.00    -0.048 A 
ATOM     27  C   UNL     1      88.483  49.686  41.603  0.00  0.00    -0.061 A 
ATOM     28  C   UNL     1      89.726  50.319  41.518  0.00  0.00    -0.062 A 
ATOM     29  C   UNL     1      89.795  51.708  41.389  0.00  0.00    -0.061 A 
ATOM     30  C   UNL     1      88.623  52.468  41.344  0.00  0.00    -0.048 A 
ENDBRANCH  23  25
ENDBRANCH  22  23
ENDBRANCH  21  22
BRANCH  21  31
ATOM     31  O   UNL     1      86.204  54.367  43.493  0.00  0.00    -0.423 OA
BRANCH  31  32
ATOM     32  C   UNL     1      85.857  55.719  43.551  0.00  0.00    +0.307 C 
ATOM     33  O   UNL     1      85.047  56.217  42.723  0.00  0.00    -0.251 OA
ATOM     34  C   UNL     1      86.399  56.563  44.652  0.00  0.00    +0.033 C 
ENDBRANCH  31  32
ENDBRANCH  21  31
ENDBRANCH   7  21
TORSDOF 10
ENDMDL
MODEL 2
REMARK VINA RESULT:    -8.866      1.785      6.043
REMARK INTER + INTRA:         -15.549
REMARK INTER:                 -14.037
REMARK INTRA:                  -1.512
REMARK UNBOUND:                -1.758
REMARK  Name = 
REMARK  12 active torsions:
REMARK  status: ('A' for Active; 'I' for Inactive)
REMARK    1  A    between atoms: C_2  and  C_3
REMARK    2  A    between atoms: C_9  and  C_20
REMARK    3  A    between atoms: C_13  and  O_19
REMARK    4  A    between atoms: C_14  and  O_15
REMARK    5  A    between atoms: O_15  and  C_16
REMARK    6  A    between atoms: C_16  and  C_18
REMARK    7  A    between atoms: C_20  and  O_21
REMARK    8  A    between atoms: C_20  and  O_30
REMARK    9  A    between atoms: O_21  and  C_22
REMARK   10  A    between atoms: C_22  and  C_24
REMARK   11  A    between atoms: O_30  and  C_31
REMARK   12  A    between atoms: C_31  and  C_33
REMARK                            x       y       z     vdW  Elec       q    Type
REMARK                         _______ _______ _______ _____ _____    ______ ____
ROOT
ATOM      1  C   UNL     1      83.298  50.547  43.488  0.00  0.00    +0.014 A 
ATOM      2  C   UNL     1      82.109  51.124  43.003  0.00  0.00    -0.051 A 
ATOM      3  C   UNL     1      82.140  52.320  42.278  0.00  0.00    -0.057 A 
ATOM      4  C   UNL     1      83.366  52.940  42.032  0.00  0.00    -0.034 A 
ATOM      5  C   UNL     1      84.568  52.379  42.512  0.00  0.00    -0.022 A 
ATOM      6  C   UNL     1      84.532  51.181  43.244  0.00  0.00    -0.047 A 
ATOM      7  C   UNL     1      85.813  53.213  42.158  0.00  0.00    +0.127 C 
ATOM      8  C   UNL     1      85.733  53.433  40.642  0.00  0.00    -0.066 C 
ATOM      9  C   UNL     1      84.568  53.954  40.194  0.00  0.00    -0.077 C 
ATOM     10  C   UNL     1      83.536  54.245  41.275  0.00  0.00    +0.032 C 
ATOM     11  C   UNL     1      84.206  55.229  42.286  0.00  0.00    +0.104 C 
ATOM     12  C   UNL     1      85.585  54.634  42.793  0.00  0.00    +0.149 C 
ENDROOT
BRANCH   1  14
ATOM     13  O   UNL     1      84.277  48.733  44.686  0.00  0.00    -0.296 OA
ATOM     14  C   UNL     1      83.231  49.285  44.247  0.00  0.00    +0.150 C 
ENDBRANCH   1  14
BRANCH  11  15
ATOM     15  O   UNL     1      84.367  56.509  41.724  0.00  0.00    -0.387 OA
ATOM     16  H   UNL     1      85.261  56.834  41.911  0.00  0.00    +0.000 HD
ENDBRANCH  11  15
BRANCH  12  17
ATOM     17  O   UNL     1      85.580  54.532  44.219  0.00  0.00    -0.457 OA
BRANCH  17  18
ATOM     18  C   UNL     1      85.642  55.638  45.071  0.00  0.00    +0.304 C 
ATOM     19  O   UNL     1      86.455  56.577  44.854  0.00  0.00    -0.251 OA
ATOM     20  C   UNL     1      84.778  55.673  46.285  0.00  0.00    +0.033 C 
ENDBRANCH  17  18
ENDBRANCH  12  17
BRANCH   7  21
ATOM     21  C   UNL     1      87.178  52.596  42.548  0.00  0.00    +0.266 C 
BRANCH  21  22
ATOM     22  O   UNL     1      87.290  52.564  43.973  0.00  0.00    -0.420 OA
BRANCH  22  23
ATOM     23  C   UNL     1      87.541  51.412  44.726  0.00  0.00    +0.342 C 
ATOM     24  O   UNL     1      88.066  50.399  44.188  0.00  0.00    -0.245 OA
BRANCH  23  25
ATOM     25  C   UNL     1      87.167  51.383  46.157  0.00  0.00    +0.059 A 
ATOM     26  C   UNL     1      86.234  52.307  46.664  0.00  0.00    -0.048 A 
ATOM     27  C   UNL     1      85.879  52.283  48.016  0.00  0.00    -0.061 A 
ATOM     28  C   UNL     1      86.450  51.341  48.874  0.00  0.00    -0.062 A 
ATOM     29  C   UNL     1      87.378  50.420  48.383  0.00  0.00    -0.061 A 
ATOM     30  C   UNL     1      87.736  50.438  47.031  0.00  0.00    -0.048 A 
ENDBRANCH  23  25
ENDBRANCH  22  23
ENDBRANCH  21  22
BRANCH  21  31
ATOM     31  O   UNL     1      88.240  53.377  42.001  0.00  0.00    -0.423 OA
BRANCH  31  32
ATOM     32  C   UNL     1      89.321  52.844  41.294  0.00  0.00    +0.307 C 
ATOM     33  O   UNL     1      90.198  53.594  40.788  0.00  0.00    -0.251 OA
ATOM     34  C   UNL     1      89.472  51.365  41.201  0.00  0.00    +0.033 C 
ENDBRANCH  31  32
ENDBRANCH  21  31
ENDBRANCH   7  21
TORSDOF 10
ENDMDL
MODEL 3
REMARK VINA RESULT:    -8.863      1.592      2.882
REMARK INTER + INTRA:         -15.544
REMARK INTER:                 -13.561
REMARK INTRA:                  -1.983
REMARK UNBOUND:                -1.758
REMARK  Name = 
REMARK  12 active torsions:
REMARK  status: ('A' for Active; 'I' for Inactive)
REMARK    1  A    between atoms: C_2  and  C_3
REMARK    2  A    between atoms: C_9  and  C_20
REMARK    3  A    between atoms: C_13  and  O_19
REMARK    4  A    between atoms: C_14  and  O_15
REMARK    5  A    between atoms: O_15  and  C_16
REMARK    6  A    between atoms: C_16  and  C_18
REMARK    7  A    between atoms: C_20  and  O_21
REMARK    8  A    between atoms: C_20  and  O_30
REMARK    9  A    between atoms: O_21  and  C_22
REMARK   10  A    between atoms: C_22  and  C_24
REMARK   11  A    between atoms: O_30  and  C_31
REMARK   12  A    between atoms: C_31  and  C_33
REMARK                            x       y       z     vdW  Elec       q    Type
REMARK                         _______ _______ _______ _____ _____    ______ ____
ROOT
ATOM      1  C   UNL     1      84.464  54.315  47.968  0.00  0.00    +0.014 A 
ATOM      2  C   UNL     1      84.932  53.510  49.023  0.00  0.00    -0.051 A 
ATOM      3  C   UNL     1      85.689  52.362  48.764  0.00  0.00    -0.057 A 
ATOM      4  C   UNL     1      85.983  52.021  47.443  0.00  0.00    -0.034 A 
ATOM      5  C   UNL     1      85.521  52.814  46.372  0.00  0.00    -0.022 A 
ATOM      6  C   UNL     1      84.757  53.962  46.636  0.00  0.00    -0.047 A 
ATOM      7  C   UNL     1      85.930  52.270  44.990  0.00  0.00    +0.127 C 
ATOM      8  C   UNL     1      87.449  52.068  45.070  0.00  0.00    -0.066 C 
ATOM      9  C   UNL     1      87.879  51.322  46.112  0.00  0.00    -0.077 C 
ATOM     10  C   UNL     1      86.778  50.796  47.025  0.00  0.00    +0.032 C 
ATOM     11  C   UNL     1      85.812  49.957  46.131  0.00  0.00    +0.104 C 
ATOM     12  C   UNL     1      85.327  50.820  44.893  0.00  0.00    +0.149 C 
ENDROOT
BRANCH   1  14
ATOM     13  O   UNL     1      83.472  56.408  47.404  0.00  0.00    -0.296 OA
ATOM     14  C   UNL     1      83.671  55.520  48.276  0.00  0.00    +0.150 C 
ENDBRANCH   1  14
BRANCH  11  15
ATOM     15  O   UNL     1      86.412  48.752  45.721  0.00  0.00    -0.387 OA
ATOM     16  H   UNL     1      85.911  48.377  44.981  0.00  0.00    +0.000 HD
ENDBRANCH  11  15
BRANCH  12  17
ATOM     17  O   UNL     1      83.900  50.890  44.875  0.00  0.00    -0.457 OA
BRANCH  17  18
ATOM     18  C   UNL     1      83.093  50.000  44.160  0.00  0.00    +0.304 C 
ATOM     19  O   UNL     1      83.103  48.766  44.421  0.00  0.00    -0.251 OA
ATOM     20  C   UNL     1      82.259  50.512  43.035  0.00  0.00    +0.033 C 
ENDBRANCH  17  18
ENDBRANCH  12  17
BRANCH   7  21
ATOM     21  C   UNL     1      85.561  53.154  43.775  0.00  0.00    +0.266 C 
BRANCH  21  22
ATOM     22  O   UNL     1      85.527  52.346  42.597  0.00  0.00    -0.420 OA
BRANCH  22  23
ATOM     23  C   UNL     1      85.669  52.833  41.293  0.00  0.00    +0.342 C 
ATOM     24  O   UNL     1      86.697  52.555  40.615  0.00  0.00    -0.245 OA
BRANCH  23  25
ATOM     25  C   UNL     1      84.613  53.695  40.720  0.00  0.00    +0.059 A 
ATOM     26  C   UNL     1      84.881  54.485  39.586  0.00  0.00    -0.048 A 
ATOM     27  C   UNL     1      83.884  55.303  39.043  0.00  0.00    -0.061 A 
ATOM     28  C   UNL     1      82.615  55.341  39.624  0.00  0.00    -0.062 A 
ATOM     29  C   UNL     1      82.338  54.562  40.750  0.00  0.00    -0.061 A 
ATOM     30  C   UNL     1      83.330  53.742  41.297  0.00  0.00    -0.048 A 
ENDBRANCH  23  25
ENDBRANCH  22  23
ENDBRANCH  21  22
BRANCH  21  31
ATOM     31  O   UNL     1      86.527  54.192  43.617  0.00  0.00    -0.423 OA
BRANCH  31  32
ATOM     32  C   UNL     1      86.230  55.556  43.679  0.00  0.00    +0.307 C 
ATOM     33  O   UNL     1      85.374  56.069  42.911  0.00  0.00    -0.251 OA
ATOM     34  C   UNL     1      86.886  56.397  44.720  0.00  0.00    +0.033 C 
ENDBRANCH  31  32
ENDBRANCH  21  31
ENDBRANCH   7  21
TORSDOF 10
ENDMDL
MODEL 4
REMARK VINA RESULT:    -8.838      1.814      5.735
REMARK INTER + INTRA:         -15.504
REMARK INTER:                 -14.294
REMARK INTRA:                  -1.210
REMARK UNBOUND:                -1.758
REMARK  Name = 
REMARK  12 active torsions:
REMARK  status: ('A' for Active; 'I' for Inactive)
REMARK    1  A    between atoms: C_2  and  C_3
REMARK    2  A    between atoms: C_9  and  C_20
REMARK    3  A    between atoms: C_13  and  O_19
REMARK    4  A    between atoms: C_14  and  O_15
REMARK    5  A    between atoms: O_15  and  C_16
REMARK    6  A    between atoms: C_16  and  C_18
REMARK    7  A    between atoms: C_20  and  O_21
REMARK    8  A    between atoms: C_20  and  O_30
REMARK    9  A    between atoms: O_21  and  C_22
REMARK   10  A    between atoms: C_22  and  C_24
REMARK   11  A    between atoms: O_30  and  C_31
REMARK   12  A    between atoms: C_31  and  C_33
REMARK                            x       y       z     vdW  Elec       q    Type
REMARK                         _______ _______ _______ _____ _____    ______ ____
ROOT
ATOM      1  C   UNL     1      85.154  56.163  45.274  0.00  0.00    +0.014 A 
ATOM      2  C   UNL     1      84.556  57.141  44.457  0.00  0.00    -0.051 A 
ATOM      3  C   UNL     1      83.986  56.793  43.227  0.00  0.00    -0.057 A 
ATOM      4  C   UNL     1      84.009  55.459  42.816  0.00  0.00    -0.034 A 
ATOM      5  C   UNL     1      84.606  54.465  43.621  0.00  0.00    -0.022 A 
ATOM      6  C   UNL     1      85.182  54.820  44.851  0.00  0.00    -0.047 A 
ATOM      7  C   UNL     1      84.550  53.060  42.993  0.00  0.00    +0.127 C 
ATOM      8  C   UNL     1      83.075  52.837  42.634  0.00  0.00    -0.066 C 
ATOM      9  C   UNL     1      82.511  53.806  41.879  0.00  0.00    -0.077 C 
ATOM     10  C   UNL     1      83.442  54.951  41.502  0.00  0.00    +0.032 C 
ATOM     11  C   UNL     1      84.652  54.320  40.743  0.00  0.00    +0.104 C 
ATOM     12  C   UNL     1      85.299  53.165  41.614  0.00  0.00    +0.149 C 
ENDROOT
BRANCH   1  14
ATOM     13  O   UNL     1      86.139  55.702  47.396  0.00  0.00    -0.296 OA
ATOM     14  C   UNL     1      85.744  56.564  46.565  0.00  0.00    +0.150 C 
ENDBRANCH   1  14
BRANCH  11  15
ATOM     15  O   UNL     1      84.271  53.859  39.469  0.00  0.00    -0.387 OA
ATOM     16  H   UNL     1      83.532  54.393  39.139  0.00  0.00    +0.000 HD
ENDBRANCH  11  15
BRANCH  12  17
ATOM     17  O   UNL     1      86.685  53.435  41.835  0.00  0.00    -0.457 OA
BRANCH  17  18
ATOM     18  C   UNL     1      87.705  52.964  41.003  0.00  0.00    +0.304 C 
ATOM     19  O   UNL     1      87.505  52.793  39.769  0.00  0.00    -0.251 OA
ATOM     20  C   UNL     1      89.022  52.602  41.597  0.00  0.00    +0.033 C 
ENDBRANCH  17  18
ENDBRANCH  12  17
BRANCH   7  21
ATOM     21  C   UNL     1      85.078  51.902  43.874  0.00  0.00    +0.266 C 
BRANCH  21  22
ATOM     22  O   UNL     1      86.507  51.942  43.898  0.00  0.00    -0.420 OA
BRANCH  22  23
ATOM     23  C   UNL     1      87.312  51.152  44.728  0.00  0.00    +0.342 C 
ATOM     24  O   UNL     1      88.205  50.412  44.233  0.00  0.00    -0.245 OA
BRANCH  23  25
ATOM     25  C   UNL     1      87.093  51.178  46.190  0.00  0.00    +0.059 A 
ATOM     26  C   UNL     1      87.588  50.137  46.998  0.00  0.00    -0.048 A 
ATOM     27  C   UNL     1      87.382  50.157  48.381  0.00  0.00    -0.061 A 
ATOM     28  C   UNL     1      86.682  51.212  48.970  0.00  0.00    -0.062 A 
ATOM     29  C   UNL     1      86.185  52.250  48.178  0.00  0.00    -0.061 A 
ATOM     30  C   UNL     1      86.389  52.236  46.795  0.00  0.00    -0.048 A 
ENDBRANCH  23  25
ENDBRANCH  22  23
ENDBRANCH  21  22
BRANCH  21  31
ATOM     31  O   UNL     1      84.642  50.650  43.345  0.00  0.00    -0.423 OA
BRANCH  31  32
ATOM     32  C   UNL     1      84.065  49.633  44.110  0.00  0.00    +0.307 C 
ATOM     33  O   UNL     1      84.774  48.740  44.643  0.00  0.00    -0.251 OA
ATOM     34  C   UNL     1      82.595  49.653  44.354  0.00  0.00    +0.033 C 
ENDBRANCH  31  32
ENDBRANCH  21  31
ENDBRANCH   7  21
TORSDOF 10
ENDMDL
MODEL 5
REMARK VINA RESULT:    -8.837      2.012      5.338
REMARK INTER + INTRA:         -15.503
REMARK INTER:                 -13.651
REMARK INTRA:                  -1.853
REMARK UNBOUND:                -1.758
REMARK  Name = 
REMARK  12 active torsions:
REMARK  status: ('A' for Active; 'I' for Inactive)
REMARK    1  A    between atoms: C_2  and  C_3
REMARK    2  A    between atoms: C_9  and  C_20
REMARK    3  A    between atoms: C_13  and  O_19
REMARK    4  A    between atoms: C_14  and  O_15
REMARK    5  A    between atoms: O_15  and  C_16
REMARK    6  A    between atoms: C_16  and  C_18
REMARK    7  A    between atoms: C_20  and  O_21
REMARK    8  A    between atoms: C_20  and  O_30
REMARK    9  A    between atoms: O_21  and  C_22
REMARK   10  A    between atoms: C_22  and  C_24
REMARK   11  A    between atoms: O_30  and  C_31
REMARK   12  A    between atoms: C_31  and  C_33
REMARK                            x       y       z     vdW  Elec       q    Type
REMARK                         _______ _______ _______ _____ _____    ______ ____
ROOT
ATOM      1  C   UNL     1      83.490  50.311  43.406  0.00  0.00    +0.014 A 
ATOM      2  C   UNL     1      82.269  51.009  43.355  0.00  0.00    -0.051 A 
ATOM      3  C   UNL     1      82.212  52.310  42.842  0.00  0.00    -0.057 A 
ATOM      4  C   UNL     1      83.380  52.912  42.372  0.00  0.00    -0.034 A 
ATOM      5  C   UNL     1      84.613  52.229  42.417  0.00  0.00    -0.022 A 
ATOM      6  C   UNL     1      84.668  50.926  42.938  0.00  0.00    -0.047 A 
ATOM      7  C   UNL     1      85.790  53.060  41.871  0.00  0.00    +0.127 C 
ATOM      8  C   UNL     1      85.337  53.539  40.486  0.00  0.00    -0.066 C 
ATOM      9  C   UNL     1      84.144  54.175  40.455  0.00  0.00    -0.077 C 
ATOM     10  C   UNL     1      83.457  54.319  41.807  0.00  0.00    +0.032 C 
ATOM     11  C   UNL     1      84.448  55.088  42.738  0.00  0.00    +0.104 C 
ATOM     12  C   UNL     1      85.856  54.359  42.755  0.00  0.00    +0.149 C 
ENDROOT
BRANCH   1  14
ATOM     13  O   UNL     1      84.472  48.545  44.672  0.00  0.00    -0.296 OA
ATOM     14  C   UNL     1      83.516  48.941  43.952  0.00  0.00    +0.150 C 
ENDBRANCH   1  14
BRANCH  11  15
ATOM     15  O   UNL     1      84.566  56.437  42.356  0.00  0.00    -0.387 OA
ATOM     16  H   UNL     1      84.302  56.535  41.428  0.00  0.00    +0.000 HD
ENDBRANCH  11  15
BRANCH  12  17
ATOM     17  O   UNL     1      86.213  54.016  44.095  0.00  0.00    -0.457 OA
BRANCH  17  18
ATOM     18  C   UNL     1      85.471  54.404  45.215  0.00  0.00    +0.304 C 
ATOM     19  O   UNL     1      85.565  55.574  45.678  0.00  0.00    -0.251 OA
ATOM     20  C   UNL     1      84.609  53.402  45.903  0.00  0.00    +0.033 C 
ENDBRANCH  17  18
ENDBRANCH  12  17
BRANCH   7  21
ATOM     21  C   UNL     1      87.151  52.330  41.778  0.00  0.00    +0.266 C 
BRANCH  21  22
ATOM     22  O   UNL     1      87.719  52.224  43.086  0.00  0.00    -0.420 OA
BRANCH  22  23
ATOM     23  C   UNL     1      87.958  51.018  43.754  0.00  0.00    +0.342 C 
ATOM     24  O   UNL     1      87.747  50.924  44.995  0.00  0.00    -0.245 OA
BRANCH  23  25
ATOM     25  C   UNL     1      88.479  49.859  42.999  0.00  0.00    +0.059 A 
ATOM     26  C   UNL     1      87.656  48.744  42.756  0.00  0.00    -0.048 A 
ATOM     27  C   UNL     1      88.146  47.644  42.043  0.00  0.00    -0.061 A 
ATOM     28  C   UNL     1      89.459  47.646  41.569  0.00  0.00    -0.062 A 
ATOM     29  C   UNL     1      90.286  48.747  41.805  0.00  0.00    -0.061 A 
ATOM     30  C   UNL     1      89.801  49.849  42.516  0.00  0.00    -0.048 A 
ENDBRANCH  23  25
ENDBRANCH  22  23
ENDBRANCH  21  22
BRANCH  21  31
ATOM     31  O   UNL     1      88.037  53.059  40.928  0.00  0.00    -0.423 OA
BRANCH  31  32
ATOM     32  C   UNL     1      89.020  52.469  40.130  0.00  0.00    +0.307 C 
ATOM     33  O   UNL     1      88.755  51.477  39.400  0.00  0.00    -0.251 OA
ATOM     34  C   UNL     1      90.383  53.070  40.092  0.00  0.00    +0.033 C 
ENDBRANCH  31  32
ENDBRANCH  21  31
ENDBRANCH   7  21
TORSDOF 10
ENDMDL
MODEL 6
REMARK VINA RESULT:    -8.722      1.986      4.856
REMARK INTER + INTRA:         -15.324
REMARK INTER:                 -13.478
REMARK INTRA:                  -1.846
REMARK UNBOUND:                -1.758
REMARK  Name = 
REMARK  12 active torsions:
REMARK  status: ('A' for Active; 'I' for Inactive)
REMARK    1  A    between atoms: C_2  and  C_3
REMARK    2  A    between atoms: C_9  and  C_20
REMARK    3  A    between atoms: C_13  and  O_19
REMARK    4  A    between atoms: C_14  and  O_15
REMARK    5  A    between atoms: O_15  and  C_16
REMARK    6  A    between atoms: C_16  and  C_18
REMARK    7  A    between atoms: C_20  and  O_21
REMARK    8  A    between atoms: C_20  and  O_30
REMARK    9  A    between atoms: O_21  and  C_22
REMARK   10  A    between atoms: C_22  and  C_24
REMARK   11  A    between atoms: O_30  and  C_31
REMARK   12  A    between atoms: C_31  and  C_33
REMARK                            x       y       z     vdW  Elec       q    Type
REMARK                         _______ _______ _______ _____ _____    ______ ____
ROOT
ATOM      1  C   UNL     1      85.220  56.059  45.467  0.00  0.00    +0.014 A 
ATOM      2  C   UNL     1      84.426  56.907  44.671  0.00  0.00    -0.051 A 
ATOM      3  C   UNL     1      83.835  56.435  43.494  0.00  0.00    -0.057 A 
ATOM      4  C   UNL     1      84.034  55.106  43.114  0.00  0.00    -0.034 A 
ATOM      5  C   UNL     1      84.828  54.242  43.897  0.00  0.00    -0.022 A 
ATOM      6  C   UNL     1      85.424  54.721  45.074  0.00  0.00    -0.047 A 
ATOM      7  C   UNL     1      84.946  52.823  43.308  0.00  0.00    +0.127 C 
ATOM      8  C   UNL     1      83.501  52.369  43.060  0.00  0.00    -0.066 C 
ATOM      9  C   UNL     1      82.747  53.216  42.325  0.00  0.00    -0.077 C 
ATOM     10  C   UNL     1      83.465  54.475  41.856  0.00  0.00    +0.032 C 
ATOM     11  C   UNL     1      84.703  54.007  41.027  0.00  0.00    +0.104 C 
ATOM     12  C   UNL     1      85.575  52.993  41.877  0.00  0.00    +0.149 C 
ENDROOT
BRANCH   1  14
ATOM     13  O   UNL     1      86.100  55.827  47.670  0.00  0.00    -0.296 OA
ATOM     14  C   UNL     1      85.827  56.587  46.702  0.00  0.00    +0.150 C 
ENDBRANCH   1  14
BRANCH  11  15
ATOM     15  O   UNL     1      84.312  53.451  39.795  0.00  0.00    -0.387 OA
ATOM     16  H   UNL     1      85.093  53.326  39.234  0.00  0.00    +0.000 HD
ENDBRANCH  11  15
BRANCH  12  17
ATOM     17  O   UNL     1      86.915  53.477  41.992  0.00  0.00    -0.457 OA
BRANCH  17  18
ATOM     18  C   UNL     1      88.021  52.825  41.437  0.00  0.00    +0.304 C 
ATOM     19  O   UNL     1      89.175  53.329  41.517  0.00  0.00    -0.251 OA
ATOM     20  C   UNL     1      87.819  51.553  40.689  0.00  0.00    +0.033 C 
ENDBRANCH  17  18
ENDBRANCH  12  17
BRANCH   7  21
ATOM     21  C   UNL     1      85.702  51.789  44.176  0.00  0.00    +0.266 C 
BRANCH  21  22
ATOM     22  O   UNL     1      85.551  50.490  43.599  0.00  0.00    -0.420 OA
BRANCH  22  23
ATOM     23  C   UNL     1      86.245  49.348  44.016  0.00  0.00    +0.342 C 
ATOM     24  O   UNL     1      85.819  48.661  44.985  0.00  0.00    -0.245 OA
BRANCH  23  25
ATOM     25  C   UNL     1      87.494  48.963  43.324  0.00  0.00    +0.059 A 
ATOM     26  C   UNL     1      88.704  49.611  43.635  0.00  0.00    -0.048 A 
ATOM     27  C   UNL     1      89.887  49.250  42.982  0.00  0.00    -0.061 A 
ATOM     28  C   UNL     1      89.874  48.243  42.014  0.00  0.00    -0.062 A 
ATOM     29  C   UNL     1      88.679  47.594  41.697  0.00  0.00    -0.061 A 
ATOM     30  C   UNL     1      87.493  47.950  42.347  0.00  0.00    -0.048 A 
ENDBRANCH  23  25
ENDBRANCH  22  23
ENDBRANCH  21  22
BRANCH  21  31
ATOM     31  O   UNL     1      85.175  51.788  45.502  0.00  0.00    -0.423 OA
BRANCH  31  32
ATOM     32  C   UNL     1      85.951  51.940  46.654  0.00  0.00    +0.307 C 
ATOM     33  O   UNL     1      85.436  52.329  47.737  0.00  0.00    -0.251 OA
ATOM     34  C   UNL     1      87.393  51.567  46.615  0.00  0.00    +0.033 C 
ENDBRANCH  31  32
ENDBRANCH  21  31
ENDBRANCH   7  21
TORSDOF 10
ENDMDL
MODEL 7
REMARK VINA RESULT:    -8.693      1.351      3.736
REMARK INTER + INTRA:         -15.279
REMARK INTER:                 -13.521
REMARK INTRA:                  -1.758
REMARK UNBOUND:                -1.758
REMARK  Name = 
REMARK  12 active torsions:
REMARK  status: ('A' for Active; 'I' for Inactive)
REMARK    1  A    between atoms: C_2  and  C_3
REMARK    2  A    between atoms: C_9  and  C_20
REMARK    3  A    between atoms: C_13  and  O_19
REMARK    4  A    between atoms: C_14  and  O_15
REMARK    5  A    between atoms: O_15  and  C_16
REMARK    6  A    between atoms: C_16  and  C_18
REMARK    7  A    between atoms: C_20  and  O_21
REMARK    8  A    between atoms: C_20  and  O_30
REMARK    9  A    between atoms: O_21  and  C_22
REMARK   10  A    between atoms: C_22  and  C_24
REMARK   11  A    between atoms: O_30  and  C_31
REMARK   12  A    between atoms: C_31  and  C_33
REMARK                            x       y       z     vdW  Elec       q    Type
REMARK                         _______ _______ _______ _____ _____    ______ ____
ROOT
ATOM      1  C   UNL     1      86.009  53.859  47.290  0.00  0.00    +0.014 A 
ATOM      2  C   UNL     1      86.042  52.964  48.375  0.00  0.00    -0.051 A 
ATOM      3  C   UNL     1      86.301  51.604  48.172  0.00  0.00    -0.057 A 
ATOM      4  C   UNL     1      86.534  51.139  46.876  0.00  0.00    -0.034 A 
ATOM      5  C   UNL     1      86.503  52.021  45.775  0.00  0.00    -0.022 A 
ATOM      6  C   UNL     1      86.237  53.383  45.984  0.00  0.00    -0.047 A 
ATOM      7  C   UNL     1      86.765  51.322  44.428  0.00  0.00    +0.127 C 
ATOM      8  C   UNL     1      88.070  50.541  44.626  0.00  0.00    -0.066 C 
ATOM      9  C   UNL     1      88.093  49.714  45.696  0.00  0.00    -0.077 C 
ATOM     10  C   UNL     1      86.810  49.689  46.517  0.00  0.00    +0.032 C 
ATOM     11  C   UNL     1      85.660  49.274  45.546  0.00  0.00    +0.104 C 
ATOM     12  C   UNL     1      85.647  50.225  44.278  0.00  0.00    +0.149 C 
ENDROOT
BRANCH   1  14
ATOM     13  O   UNL     1      84.556  55.733  47.535  0.00  0.00    -0.296 OA
ATOM     14  C   UNL     1      85.735  55.287  47.540  0.00  0.00    +0.150 C 
ENDBRANCH   1  14
BRANCH  11  15
ATOM     15  O   UNL     1      85.764  47.920  45.179  0.00  0.00    -0.387 OA
ATOM     16  H   UNL     1      85.281  47.373  45.818  0.00  0.00    +0.000 HD
ENDBRANCH  11  15
BRANCH  12  17
ATOM     17  O   UNL     1      84.369  50.851  44.148  0.00  0.00    -0.457 OA
BRANCH  17  18
ATOM     18  C   UNL     1      83.258  50.224  43.575  0.00  0.00    +0.304 C 
ATOM     19  O   UNL     1      83.037  48.997  43.769  0.00  0.00    -0.251 OA
ATOM     20  C   UNL     1      82.362  51.005  42.676  0.00  0.00    +0.033 C 
ENDBRANCH  17  18
ENDBRANCH  12  17
BRANCH   7  21
ATOM     21  C   UNL     1      86.865  52.247  43.191  0.00  0.00    +0.266 C 
BRANCH  21  22
ATOM     22  O   UNL     1      85.629  52.946  43.025  0.00  0.00    -0.420 OA
BRANCH  22  23
ATOM     23  C   UNL     1      85.493  54.179  42.377  0.00  0.00    +0.342 C 
ATOM     24  O   UNL     1      85.418  54.234  41.119  0.00  0.00    -0.245 OA
BRANCH  23  25
ATOM     25  C   UNL     1      85.458  55.421  43.179  0.00  0.00    +0.059 A 
ATOM     26  C   UNL     1      84.248  56.120  43.349  0.00  0.00    -0.048 A 
ATOM     27  C   UNL     1      84.211  57.296  44.105  0.00  0.00    -0.061 A 
ATOM     28  C   UNL     1      85.377  57.785  44.697  0.00  0.00    -0.062 A 
ATOM     29  C   UNL     1      86.584  57.101  44.534  0.00  0.00    -0.061 A 
ATOM     30  C   UNL     1      86.627  55.924  43.780  0.00  0.00    -0.048 A 
ENDBRANCH  23  25
ENDBRANCH  22  23
ENDBRANCH  21  22
BRANCH  21  31
ATOM     31  O   UNL     1      87.139  51.472  42.025  0.00  0.00    -0.423 OA
BRANCH  31  32
ATOM     32  C   UNL     1      88.169  51.749  41.123  0.00  0.00    +0.307 C 
ATOM     33  O   UNL     1      88.165  51.260  39.962  0.00  0.00    -0.251 OA
ATOM     34  C   UNL     1      89.249  52.696  41.521  0.00  0.00    +0.033 C 
ENDBRANCH  31  32
ENDBRANCH  21  31
ENDBRANCH   7  21
TORSDOF 10
ENDMDL
MODEL 8
REMARK VINA RESULT:    -8.650      1.945      5.420
REMARK INTER + INTRA:         -15.212
REMARK INTER:                 -13.808
REMARK INTRA:                  -1.405
REMARK UNBOUND:                -1.758
REMARK  Name = 
REMARK  12 active torsions:
REMARK  status: ('A' for Active; 'I' for Inactive)
REMARK    1  A    between atoms: C_2  and  C_3
REMARK    2  A    between atoms: C_9  and  C_20
REMARK    3  A    between atoms: C_13  and  O_19
REMARK    4  A    between atoms: C_14  and  O_15
REMARK    5  A    between atoms: O_15  and  C_16
REMARK    6  A    between atoms: C_16  and  C_18
REMARK    7  A    between atoms: C_20  and  O_21
REMARK    8  A    between atoms: C_20  and  O_30
REMARK    9  A    between atoms: O_21  and  C_22
REMARK   10  A    between atoms: C_22  and  C_24
REMARK   11  A    between atoms: O_30  and  C_31
REMARK   12  A    between atoms: C_31  and  C_33
REMARK                            x       y       z     vdW  Elec       q    Type
REMARK                         _______ _______ _______ _____ _____    ______ ____
ROOT
ATOM      1  C   UNL     1      82.263  50.640  42.995  0.00  0.00    +0.014 A 
ATOM      2  C   UNL     1      81.257  51.510  42.533  0.00  0.00    -0.051 A 
ATOM      3  C   UNL     1      81.582  52.775  42.032  0.00  0.00    -0.057 A 
ATOM      4  C   UNL     1      82.920  53.170  41.988  0.00  0.00    -0.034 A 
ATOM      5  C   UNL     1      83.942  52.314  42.449  0.00  0.00    -0.022 A 
ATOM      6  C   UNL     1      83.611  51.047  42.956  0.00  0.00    -0.047 A 
ATOM      7  C   UNL     1      85.349  52.930  42.338  0.00  0.00    +0.127 C 
ATOM      8  C   UNL     1      85.470  53.398  40.882  0.00  0.00    -0.066 C 
ATOM      9  C   UNL     1      84.474  54.202  40.448  0.00  0.00    -0.077 C 
ATOM     10  C   UNL     1      83.404  54.519  41.486  0.00  0.00    +0.032 C 
ATOM     11  C   UNL     1      84.133  55.179  42.699  0.00  0.00    +0.104 C 
ATOM     12  C   UNL     1      85.319  54.250  43.193  0.00  0.00    +0.149 C 
ENDROOT
BRANCH   1  14
ATOM     13  O   UNL     1      82.130  48.988  44.709  0.00  0.00    -0.296 OA
ATOM     14  C   UNL     1      81.886  49.312  43.515  0.00  0.00    +0.150 C 
ENDBRANCH   1  14
BRANCH  11  15
ATOM     15  O   UNL     1      84.584  56.473  42.382  0.00  0.00    -0.387 OA
ATOM     16  H   UNL     1      84.650  56.566  41.419  0.00  0.00    +0.000 HD
ENDBRANCH  11  15
BRANCH  12  17
ATOM     17  O   UNL     1      85.145  53.928  44.575  0.00  0.00    -0.457 OA
BRANCH  17  18
ATOM     18  C   UNL     1      85.475  54.799  45.617  0.00  0.00    +0.304 C 
ATOM     19  O   UNL     1      86.531  55.487  45.575  0.00  0.00    -0.251 OA
ATOM     20  C   UNL     1      84.596  54.866  46.819  0.00  0.00    +0.033 C 
ENDBRANCH  17  18
ENDBRANCH  12  17
BRANCH   7  21
ATOM     21  C   UNL     1      86.529  52.001  42.713  0.00  0.00    +0.266 C 
BRANCH  21  22
ATOM     22  O   UNL     1      86.711  51.031  41.679  0.00  0.00    -0.420 OA
BRANCH  22  23
ATOM     23  C   UNL     1      87.941  50.718  41.090  0.00  0.00    +0.342 C 
ATOM     24  O   UNL     1      88.346  51.355  40.079  0.00  0.00    -0.245 OA
BRANCH  23  25
ATOM     25  C   UNL     1      88.756  49.618  41.651  0.00  0.00    +0.059 A 
ATOM     26  C   UNL     1      90.031  49.884  42.185  0.00  0.00    -0.048 A 
ATOM     27  C   UNL     1      90.806  48.846  42.714  0.00  0.00    -0.061 A 
ATOM     28  C   UNL     1      90.318  47.538  42.715  0.00  0.00    -0.062 A 
ATOM     29  C   UNL     1      89.054  47.262  42.187  0.00  0.00    -0.061 A 
ATOM     30  C   UNL     1      88.275  48.296  41.657  0.00  0.00    -0.048 A 
ENDBRANCH  23  25
ENDBRANCH  22  23
ENDBRANCH  21  22
BRANCH  21  31
ATOM     31  O   UNL     1      86.254  51.340  43.948  0.00  0.00    -0.423 OA
BRANCH  31  32
ATOM     32  C   UNL     1      87.211  51.096  44.936  0.00  0.00    +0.307 C 
ATOM     33  O   UNL     1      87.586  52.012  45.716  0.00  0.00    -0.251 OA
ATOM     34  C   UNL     1      87.738  49.714  45.113  0.00  0.00    +0.033 C 
ENDBRANCH  31  32
ENDBRANCH  21  31
ENDBRANCH   7  21
TORSDOF 10
ENDMDL
MODEL 9
REMARK VINA RESULT:    -8.496      2.137      5.170
REMARK INTER + INTRA:         -14.973
REMARK INTER:                 -13.645
REMARK INTRA:                  -1.328
REMARK UNBOUND:                -1.758
REMARK  Name = 
REMARK  12 active torsions:
REMARK  status: ('A' for Active; 'I' for Inactive)
REMARK    1  A    between atoms: C_2  and  C_3
REMARK    2  A    between atoms: C_9  and  C_20
REMARK    3  A    between atoms: C_13  and  O_19
REMARK    4  A    between atoms: C_14  and  O_15
REMARK    5  A    between atoms: O_15  and  C_16
REMARK    6  A    between atoms: C_16  and  C_18
REMARK    7  A    between atoms: C_20  and  O_21
REMARK    8  A    between atoms: C_20  and  O_30
REMARK    9  A    between atoms: O_21  and  C_22
REMARK   10  A    between atoms: C_22  and  C_24
REMARK   11  A    between atoms: O_30  and  C_31
REMARK   12  A    between atoms: C_31  and  C_33
REMARK                            x       y       z     vdW  Elec       q    Type
REMARK                         _______ _______ _______ _____ _____    ______ ____
ROOT
ATOM      1  C   UNL     1      85.287  55.585  45.427  0.00  0.00    +0.014 A 
ATOM      2  C   UNL     1      84.730  56.656  44.703  0.00  0.00    -0.051 A 
ATOM      3  C   UNL     1      84.131  56.439  43.457  0.00  0.00    -0.057 A 
ATOM      4  C   UNL     1      84.084  55.145  42.936  0.00  0.00    -0.034 A 
ATOM      5  C   UNL     1      84.639  54.060  43.647  0.00  0.00    -0.022 A 
ATOM      6  C   UNL     1      85.245  54.282  44.894  0.00  0.00    -0.047 A 
ATOM      7  C   UNL     1      84.507  52.716  42.906  0.00  0.00    +0.127 C 
ATOM      8  C   UNL     1      83.020  52.595  42.551  0.00  0.00    -0.066 C 
ATOM      9  C   UNL     1      82.496  53.651  41.887  0.00  0.00    -0.077 C 
ATOM     10  C   UNL     1      83.479  54.777  41.593  0.00  0.00    +0.032 C 
ATOM     11  C   UNL     1      84.647  54.154  40.766  0.00  0.00    +0.104 C 
ATOM     12  C   UNL     1      85.246  52.899  41.529  0.00  0.00    +0.149 C 
ENDROOT
BRANCH   1  14
ATOM     13  O   UNL     1      85.786  56.967  47.305  0.00  0.00    -0.296 OA
ATOM     14  C   UNL     1      85.910  55.848  46.738  0.00  0.00    +0.150 C 
ENDBRANCH   1  14
BRANCH  11  15
ATOM     15  O   UNL     1      84.231  53.820  39.464  0.00  0.00    -0.387 OA
ATOM     16  H   UNL     1      83.897  52.910  39.455  0.00  0.00    +0.000 HD
ENDBRANCH  11  15
BRANCH  12  17
ATOM     17  O   UNL     1      86.645  53.084  41.751  0.00  0.00    -0.457 OA
BRANCH  17  18
ATOM     18  C   UNL     1      87.622  52.808  40.790  0.00  0.00    +0.304 C 
ATOM     19  O   UNL     1      87.414  53.049  39.569  0.00  0.00    -0.251 OA
ATOM     20  C   UNL     1      88.898  52.163  41.209  0.00  0.00    +0.033 C 
ENDBRANCH  17  18
ENDBRANCH  12  17
BRANCH   7  21
ATOM     21  C   UNL     1      84.987  51.464  43.680  0.00  0.00    +0.266 C 
BRANCH  21  22
ATOM     22  O   UNL     1      86.385  51.276  43.452  0.00  0.00    -0.420 OA
BRANCH  22  23
ATOM     23  C   UNL     1      87.198  50.393  44.172  0.00  0.00    +0.342 C 
ATOM     24  O   UNL     1      87.286  50.487  45.427  0.00  0.00    -0.245 OA
BRANCH  23  25
ATOM     25  C   UNL     1      87.968  49.360  43.448  0.00  0.00    +0.059 A 
ATOM     26  C   UNL     1      87.301  48.385  42.683  0.00  0.00    -0.048 A 
ATOM     27  C   UNL     1      88.027  47.404  41.998  0.00  0.00    -0.061 A 
ATOM     28  C   UNL     1      89.421  47.387  42.070  0.00  0.00    -0.062 A 
ATOM     29  C   UNL     1      90.094  48.348  42.827  0.00  0.00    -0.061 A 
ATOM     30  C   UNL     1      89.374  49.332  43.513  0.00  0.00    -0.048 A 
ENDBRANCH  23  25
ENDBRANCH  22  23
ENDBRANCH  21  22
BRANCH  21  31
ATOM     31  O   UNL     1      84.270  50.313  43.235  0.00  0.00    -0.423 OA
BRANCH  31  32
ATOM     32  C   UNL     1      83.671  49.383  44.089  0.00  0.00    +0.307 C 
ATOM     33  O   UNL     1      84.362  48.524  44.699  0.00  0.00    -0.251 OA
ATOM     34  C   UNL     1      82.203  49.460  44.334  0.00  0.00    +0.033 C 
ENDBRANCH  31  32
ENDBRANCH  21  31
ENDBRANCH   7  21
TORSDOF 10
ENDMDL
