MODEL 1
REMARK VINA RESULT:    -7.488      0.000      0.000
REMARK INTER + INTRA:         -11.949
REMARK INTER:                 -10.804
REMARK INTRA:                  -1.145
REMARK UNBOUND:                -0.958
REMARK  Name = 
REMARK  11 active torsions:
REMARK  status: ('A' for Active; 'I' for Inactive)
REMARK    1  A    between atoms: C_1  and  O_2
REMARK    2  A    between atoms: O_2  and  C_3
REMARK    3  A    between atoms: C_6  and  O_24
REMARK    4  A    between atoms: C_7  and  O_20
REMARK    5  A    between atoms: C_8  and  O_9
REMARK    6  A    between atoms: C_8  and  C_10
REMARK    7  A    between atoms: C_10  and  O_11
REMARK    8  A    between atoms: O_11  and  C_12
REMARK    9  A    between atoms: C_12  and  C_14
REMARK   10  A    between atoms: O_20  and  C_21
REMARK   11  A    between atoms: C_21  and  C_23
REMARK                            x       y       z     vdW  Elec       q    Type
REMARK                         _______ _______ _______ _____ _____    ______ ____
ROOT
ATOM      1  C   UNL     1      88.479  50.127  41.901  0.00  0.00    +0.112 C 
ATOM      2  C   UNL     1      89.728  50.646  41.239  0.00  0.00    -0.054 C 
ATOM      3  C   UNL     1      89.711  51.706  40.423  0.00  0.00    -0.054 C 
ATOM      4  C   UNL     1      88.463  52.505  40.118  0.00  0.00    +0.113 C 
ATOM      5  C   UNL     1      87.196  52.067  40.920  0.00  0.00    +0.167 C 
ATOM      6  C   UNL     1      87.539  51.309  42.241  0.00  0.00    +0.169 C 
ENDROOT
BRANCH   1   8
ATOM      7  C   UNL     1      88.100  47.892  41.354  0.00  0.00    +0.037 C 
ATOM      8  O   UNL     1      87.820  49.234  41.022  0.00  0.00    -0.373 OA
ENDBRANCH   1   8
BRANCH   6   9
ATOM      9  O   UNL     1      88.213  52.161  43.137  0.00  0.00    -0.379 OA
ATOM     10  H   UNL     1      88.742  52.802  42.637  0.00  0.00    +0.000 HD
ENDBRANCH   6   9
BRANCH   4  11
ATOM     11  O   UNL     1      88.190  52.400  38.744  0.00  0.00    -0.384 OA
ATOM     12  H   UNL     1      88.085  51.466  38.506  0.00  0.00    +0.000 HD
ENDBRANCH   4  11
BRANCH   6  13
ATOM     13  C   UNL     1      86.265  50.746  42.914  0.00  0.00    +0.128 C 
BRANCH  13  14
ATOM     14  O   UNL     1      86.121  51.257  44.234  0.00  0.00    -0.458 OA
BRANCH  14  15
ATOM     15  C   UNL     1      85.063  52.102  44.606  0.00  0.00    +0.339 C 
ATOM     16  O   UNL     1      83.902  51.923  44.130  0.00  0.00    -0.245 OA
BRANCH  15  17
ATOM     17  C   UNL     1      85.307  53.215  45.550  0.00  0.00    +0.059 A 
ATOM     18  C   UNL     1      86.350  54.130  45.315  0.00  0.00    -0.048 A 
ATOM     19  C   UNL     1      86.575  55.187  46.206  0.00  0.00    -0.061 A 
ATOM     20  C   UNL     1      85.763  55.343  47.332  0.00  0.00    -0.062 A 
ATOM     21  C   UNL     1      84.722  54.441  47.574  0.00  0.00    -0.061 A 
ATOM     22  C   UNL     1      84.495  53.380  46.689  0.00  0.00    -0.048 A 
ENDBRANCH  15  17
ENDBRANCH  14  15
ENDBRANCH  13  14
ENDBRANCH   6  13
BRANCH   5  23
ATOM     23  O   UNL     1      86.382  53.214  41.209  0.00  0.00    -0.455 OA
BRANCH  23  24
ATOM     24  C   UNL     1      85.303  53.612  40.425  0.00  0.00    +0.304 C 
ATOM     25  O   UNL     1      85.481  54.058  39.255  0.00  0.00    -0.251 OA
ATOM     26  C   UNL     1      83.912  53.498  40.958  0.00  0.00    +0.033 C 
ENDBRANCH  23  24
ENDBRANCH   5  23
TORSDOF 9
ENDMDL
MODEL 2
REMARK VINA RESULT:    -7.419      2.843      6.983
REMARK INTER + INTRA:         -11.848
REMARK INTER:                 -10.932
REMARK INTRA:                  -0.915
REMARK UNBOUND:                -0.958
REMARK  Name = 
REMARK  11 active torsions:
REMARK  status: ('A' for Active; 'I' for Inactive)
REMARK    1  A    between atoms: C_1  and  O_2
REMARK    2  A    between atoms: O_2  and  C_3
REMARK    3  A    between atoms: C_6  and  O_24
REMARK    4  A    between atoms: C_7  and  O_20
REMARK    5  A    between atoms: C_8  and  O_9
REMARK    6  A    between atoms: C_8  and  C_10
REMARK    7  A    between atoms: C_10  and  O_11
REMARK    8  A    between atoms: O_11  and  C_12
REMARK    9  A    between atoms: C_12  and  C_14
REMARK   10  A    between atoms: O_20  and  C_21
REMARK   11  A    between atoms: C_21  and  C_23
REMARK                            x       y       z     vdW  Elec       q    Type
REMARK                         _______ _______ _______ _____ _____    ______ ____
ROOT
ATOM      1  C   UNL     1      85.398  56.286  43.572  0.00  0.00    +0.112 C 
ATOM      2  C   UNL     1      85.547  57.727  43.981  0.00  0.00    -0.054 C 
ATOM      3  C   UNL     1      85.183  58.163  45.192  0.00  0.00    -0.054 C 
ATOM      4  C   UNL     1      84.630  57.260  46.273  0.00  0.00    +0.113 C 
ATOM      5  C   UNL     1      84.617  55.740  45.910  0.00  0.00    +0.167 C 
ATOM      6  C   UNL     1      85.644  55.369  44.795  0.00  0.00    +0.169 C 
ENDROOT
BRANCH   1   8
ATOM      7  C   UNL     1      84.117  55.665  41.725  0.00  0.00    +0.037 C 
ATOM      8  O   UNL     1      84.089  56.073  43.075  0.00  0.00    -0.373 OA
ENDBRANCH   1   8
BRANCH   6   9
ATOM      9  O   UNL     1      86.960  55.583  45.246  0.00  0.00    -0.379 OA
ATOM     10  H   UNL     1      86.964  56.297  45.902  0.00  0.00    +0.000 HD
ENDBRANCH   6   9
BRANCH   4  11
ATOM     11  O   UNL     1      83.320  57.668  46.570  0.00  0.00    -0.384 OA
ATOM     12  H   UNL     1      82.806  57.726  45.749  0.00  0.00    +0.000 HD
ENDBRANCH   4  11
BRANCH   6  13
ATOM     13  C   UNL     1      85.479  53.897  44.347  0.00  0.00    +0.128 C 
BRANCH  13  14
ATOM     14  O   UNL     1      86.746  53.262  44.214  0.00  0.00    -0.458 OA
BRANCH  14  15
ATOM     15  C   UNL     1      87.286  52.907  42.967  0.00  0.00    +0.339 C 
ATOM     16  O   UNL     1      87.024  53.596  41.936  0.00  0.00    -0.245 OA
BRANCH  15  17
ATOM     17  C   UNL     1      88.155  51.716  42.855  0.00  0.00    +0.059 A 
ATOM     18  C   UNL     1      89.056  51.592  41.781  0.00  0.00    -0.048 A 
ATOM     19  C   UNL     1      89.884  50.467  41.680  0.00  0.00    -0.061 A 
ATOM     20  C   UNL     1      89.823  49.460  42.647  0.00  0.00    -0.062 A 
ATOM     21  C   UNL     1      88.933  49.574  43.720  0.00  0.00    -0.061 A 
ATOM     22  C   UNL     1      88.101  50.694  43.824  0.00  0.00    -0.048 A 
ENDBRANCH  15  17
ENDBRANCH  14  15
ENDBRANCH  13  14
ENDBRANCH   6  13
BRANCH   5  23
ATOM     23  O   UNL     1      84.863  54.956  47.087  0.00  0.00    -0.455 OA
BRANCH  23  24
ATOM     24  C   UNL     1      83.856  54.449  47.902  0.00  0.00    +0.304 C 
ATOM     25  O   UNL     1      82.674  54.893  47.824  0.00  0.00    -0.251 OA
ATOM     26  C   UNL     1      84.161  53.356  48.873  0.00  0.00    +0.033 C 
ENDBRANCH  23  24
ENDBRANCH   5  23
TORSDOF 9
ENDMDL
MODEL 3
REMARK VINA RESULT:    -7.387      2.782      6.597
REMARK INTER + INTRA:         -11.800
REMARK INTER:                 -10.731
REMARK INTRA:                  -1.069
REMARK UNBOUND:                -0.958
REMARK  Name = 
REMARK  11 active torsions:
REMARK  status: ('A' for Active; 'I' for Inactive)
REMARK    1  A    between atoms: C_1  and  O_2
REMARK    2  A    between atoms: O_2  and  C_3
REMARK    3  A    between atoms: C_6  and  O_24
REMARK    4  A    between atoms: C_7  and  O_20
REMARK    5  A    between atoms: C_8  and  O_9
REMARK    6  A    between atoms: C_8  and  C_10
REMARK    7  A    between atoms: C_10  and  O_11
REMARK    8  A    between atoms: O_11  and  C_12
REMARK    9  A    between atoms: C_12  and  C_14
REMARK   10  A    between atoms: O_20  and  C_21
REMARK   11  A    between atoms: C_21  and  C_23
REMARK                            x       y       z     vdW  Elec       q    Type
REMARK                         _______ _______ _______ _____ _____    ______ ____
ROOT
ATOM      1  C   UNL     1      86.437  50.480  42.888  0.00  0.00    +0.112 C 
ATOM      2  C   UNL     1      85.541  51.517  42.267  0.00  0.00    -0.054 C 
ATOM      3  C   UNL     1      86.025  52.640  41.721  0.00  0.00    -0.054 C 
ATOM      4  C   UNL     1      87.502  52.957  41.638  0.00  0.00    +0.113 C 
ATOM      5  C   UNL     1      88.444  51.817  42.141  0.00  0.00    +0.167 C 
ATOM      6  C   UNL     1      87.772  50.408  42.108  0.00  0.00    +0.169 C 
ENDROOT
BRANCH   1   8
ATOM      7  C   UNL     1      85.872  50.097  45.118  0.00  0.00    +0.037 C 
ATOM      8  O   UNL     1      86.694  50.830  44.236  0.00  0.00    -0.373 OA
ENDBRANCH   1   8
BRANCH   6   9
ATOM      9  O   UNL     1      87.485  50.031  40.782  0.00  0.00    -0.379 OA
ATOM     10  H   UNL     1      87.732  49.102  40.650  0.00  0.00    +0.000 HD
ENDBRANCH   6   9
BRANCH   4  11
ATOM     11  O   UNL     1      87.752  54.118  42.388  0.00  0.00    -0.384 OA
ATOM     12  H   UNL     1      86.917  54.458  42.744  0.00  0.00    +0.000 HD
ENDBRANCH   4  11
BRANCH   6  13
ATOM     13  C   UNL     1      88.673  49.339  42.771  0.00  0.00    +0.128 C 
BRANCH  13  14
ATOM     14  O   UNL     1      87.952  48.131  42.986  0.00  0.00    -0.458 OA
BRANCH  14  15
ATOM     15  C   UNL     1      88.105  47.004  42.163  0.00  0.00    +0.339 C 
ATOM     16  O   UNL     1      88.467  47.137  40.955  0.00  0.00    -0.245 OA
BRANCH  15  17
ATOM     17  C   UNL     1      87.831  45.655  42.705  0.00  0.00    +0.059 A 
ATOM     18  C   UNL     1      86.553  45.332  43.195  0.00  0.00    -0.048 A 
ATOM     19  C   UNL     1      86.293  44.053  43.701  0.00  0.00    -0.061 A 
ATOM     20  C   UNL     1      87.301  43.086  43.720  0.00  0.00    -0.062 A 
ATOM     21  C   UNL     1      88.575  43.395  43.232  0.00  0.00    -0.061 A 
ATOM     22  C   UNL     1      88.842  44.673  42.730  0.00  0.00    -0.048 A 
ENDBRANCH  15  17
ENDBRANCH  14  15
ENDBRANCH  13  14
ENDBRANCH   6  13
BRANCH   5  23
ATOM     23  O   UNL     1      89.651  51.804  41.365  0.00  0.00    -0.455 OA
BRANCH  23  24
ATOM     24  C   UNL     1      89.744  52.311  40.072  0.00  0.00    +0.304 C 
ATOM     25  O   UNL     1      89.177  51.726  39.104  0.00  0.00    -0.251 OA
ATOM     26  C   UNL     1      90.504  53.572  39.817  0.00  0.00    +0.033 C 
ENDBRANCH  23  24
ENDBRANCH   5  23
TORSDOF 9
ENDMDL
MODEL 4
REMARK VINA RESULT:    -7.307      1.734      4.189
REMARK INTER + INTRA:         -11.682
REMARK INTER:                 -10.547
REMARK INTRA:                  -1.135
REMARK UNBOUND:                -0.958
REMARK  Name = 
REMARK  11 active torsions:
REMARK  status: ('A' for Active; 'I' for Inactive)
REMARK    1  A    between atoms: C_1  and  O_2
REMARK    2  A    between atoms: O_2  and  C_3
REMARK    3  A    between atoms: C_6  and  O_24
REMARK    4  A    between atoms: C_7  and  O_20
REMARK    5  A    between atoms: C_8  and  O_9
REMARK    6  A    between atoms: C_8  and  C_10
REMARK    7  A    between atoms: C_10  and  O_11
REMARK    8  A    between atoms: O_11  and  C_12
REMARK    9  A    between atoms: C_12  and  C_14
REMARK   10  A    between atoms: O_20  and  C_21
REMARK   11  A    between atoms: C_21  and  C_23
REMARK                            x       y       z     vdW  Elec       q    Type
REMARK                         _______ _______ _______ _____ _____    ______ ____
ROOT
ATOM      1  C   UNL     1      84.737  54.604  42.639  0.00  0.00    +0.112 C 
ATOM      2  C   UNL     1      83.551  54.757  41.724  0.00  0.00    -0.054 C 
ATOM      3  C   UNL     1      83.614  54.449  40.423  0.00  0.00    -0.054 C 
ATOM      4  C   UNL     1      84.850  53.885  39.758  0.00  0.00    +0.113 C 
ATOM      5  C   UNL     1      86.033  53.579  40.732  0.00  0.00    +0.167 C 
ATOM      6  C   UNL     1      85.573  53.375  42.209  0.00  0.00    +0.169 C 
ENDROOT
BRANCH   1   8
ATOM      7  C   UNL     1      84.901  56.862  43.197  0.00  0.00    +0.037 C 
ATOM      8  O   UNL     1      85.536  55.770  42.569  0.00  0.00    -0.373 OA
ENDBRANCH   1   8
BRANCH   6   9
ATOM      9  O   UNL     1      84.760  52.231  42.317  0.00  0.00    -0.379 OA
ATOM     10  H   UNL     1      84.122  52.218  41.587  0.00  0.00    +0.000 HD
ENDBRANCH   6   9
BRANCH   4  11
ATOM     11  O   UNL     1      85.287  54.796  38.783  0.00  0.00    -0.384 OA
ATOM     12  H   UNL     1      84.586  55.443  38.608  0.00  0.00    +0.000 HD
ENDBRANCH   4  11
BRANCH   6  13
ATOM     13  C   UNL     1      86.785  53.246  43.162  0.00  0.00    +0.128 C 
BRANCH  13  14
ATOM     14  O   UNL     1      86.496  52.353  44.232  0.00  0.00    -0.458 OA
BRANCH  14  15
ATOM     15  C   UNL     1      86.709  52.691  45.578  0.00  0.00    +0.339 C 
ATOM     16  O   UNL     1      87.517  52.019  46.286  0.00  0.00    -0.245 OA
BRANCH  15  17
ATOM     17  C   UNL     1      85.978  53.829  46.175  0.00  0.00    +0.059 A 
ATOM     18  C   UNL     1      86.591  55.090  46.283  0.00  0.00    -0.048 A 
ATOM     19  C   UNL     1      85.895  56.169  46.842  0.00  0.00    -0.061 A 
ATOM     20  C   UNL     1      84.584  56.002  47.294  0.00  0.00    -0.062 A 
ATOM     21  C   UNL     1      83.962  54.753  47.188  0.00  0.00    -0.061 A 
ATOM     22  C   UNL     1      84.655  53.670  46.635  0.00  0.00    -0.048 A 
ENDBRANCH  15  17
ENDBRANCH  14  15
ENDBRANCH  13  14
ENDBRANCH   6  13
BRANCH   5  23
ATOM     23  O   UNL     1      86.753  52.424  40.276  0.00  0.00    -0.455 OA
BRANCH  23  24
ATOM     24  C   UNL     1      88.069  52.461  39.824  0.00  0.00    +0.304 C 
ATOM     25  O   UNL     1      88.380  53.120  38.790  0.00  0.00    -0.251 OA
ATOM     26  C   UNL     1      89.136  51.733  40.573  0.00  0.00    +0.033 C 
ENDBRANCH  23  24
ENDBRANCH   5  23
TORSDOF 9
ENDMDL
MODEL 5
REMARK VINA RESULT:    -7.278      1.757      2.116
REMARK INTER + INTRA:         -11.641
REMARK INTER:                 -10.672
REMARK INTRA:                  -0.969
REMARK UNBOUND:                -0.958
REMARK  Name = 
REMARK  11 active torsions:
REMARK  status: ('A' for Active; 'I' for Inactive)
REMARK    1  A    between atoms: C_1  and  O_2
REMARK    2  A    between atoms: O_2  and  C_3
REMARK    3  A    between atoms: C_6  and  O_24
REMARK    4  A    between atoms: C_7  and  O_20
REMARK    5  A    between atoms: C_8  and  O_9
REMARK    6  A    between atoms: C_8  and  C_10
REMARK    7  A    between atoms: C_10  and  O_11
REMARK    8  A    between atoms: O_11  and  C_12
REMARK    9  A    between atoms: C_12  and  C_14
REMARK   10  A    between atoms: O_20  and  C_21
REMARK   11  A    between atoms: C_21  and  C_23
REMARK                            x       y       z     vdW  Elec       q    Type
REMARK                         _______ _______ _______ _____ _____    ______ ____
ROOT
ATOM      1  C   UNL     1      89.461  50.668  42.092  0.00  0.00    +0.112 C 
ATOM      2  C   UNL     1      90.243  51.749  41.395  0.00  0.00    -0.054 C 
ATOM      3  C   UNL     1      89.684  52.555  40.484  0.00  0.00    -0.054 C 
ATOM      4  C   UNL     1      88.222  52.490  40.098  0.00  0.00    +0.113 C 
ATOM      5  C   UNL     1      87.372  51.475  40.927  0.00  0.00    +0.167 C 
ATOM      6  C   UNL     1      88.003  51.138  42.314  0.00  0.00    +0.169 C 
ENDROOT
BRANCH   1   8
ATOM      7  C   UNL     1      90.495  48.617  41.686  0.00  0.00    +0.037 C 
ATOM      8  O   UNL     1      89.466  49.498  41.294  0.00  0.00    -0.373 OA
ENDBRANCH   1   8
BRANCH   6   9
ATOM      9  O   UNL     1      88.032  52.283  43.133  0.00  0.00    -0.379 OA
ATOM     10  H   UNL     1      88.295  53.052  42.604  0.00  0.00    +0.000 HD
ENDBRANCH   6   9
BRANCH   4  11
ATOM     11  O   UNL     1      88.135  52.152  38.738  0.00  0.00    -0.384 OA
ATOM     12  H   UNL     1      88.281  51.199  38.631  0.00  0.00    +0.000 HD
ENDBRANCH   4  11
BRANCH   6  13
ATOM     13  C   UNL     1      87.224  50.007  43.027  0.00  0.00    +0.128 C 
BRANCH  13  14
ATOM     14  O   UNL     1      87.547  49.963  44.411  0.00  0.00    -0.458 OA
BRANCH  14  15
ATOM     15  C   UNL     1      86.580  49.749  45.407  0.00  0.00    +0.339 C 
ATOM     16  O   UNL     1      85.932  48.661  45.447  0.00  0.00    -0.245 OA
BRANCH  15  17
ATOM     17  C   UNL     1      86.309  50.804  46.407  0.00  0.00    +0.059 A 
ATOM     18  C   UNL     1      85.780  52.045  46.006  0.00  0.00    -0.048 A 
ATOM     19  C   UNL     1      85.517  53.040  46.955  0.00  0.00    -0.061 A 
ATOM     20  C   UNL     1      85.773  52.807  48.309  0.00  0.00    -0.062 A 
ATOM     21  C   UNL     1      86.296  51.576  48.719  0.00  0.00    -0.061 A 
ATOM     22  C   UNL     1      86.566  50.579  47.774  0.00  0.00    -0.048 A 
ENDBRANCH  15  17
ENDBRANCH  14  15
ENDBRANCH  13  14
ENDBRANCH   6  13
BRANCH   5  23
ATOM     23  O   UNL     1      86.042  51.984  41.103  0.00  0.00    -0.455 OA
BRANCH  23  24
ATOM     24  C   UNL     1      85.723  53.339  41.083  0.00  0.00    +0.304 C 
ATOM     25  O   UNL     1      86.182  54.125  41.962  0.00  0.00    -0.251 OA
ATOM     26  C   UNL     1      84.844  53.884  40.006  0.00  0.00    +0.033 C 
ENDBRANCH  23  24
ENDBRANCH   5  23
TORSDOF 9
ENDMDL
MODEL 6
REMARK VINA RESULT:    -7.107      2.506      3.956
REMARK INTER + INTRA:         -11.389
REMARK INTER:                 -10.296
REMARK INTRA:                  -1.093
REMARK UNBOUND:                -0.958
REMARK  Name = 
REMARK  11 active torsions:
REMARK  status: ('A' for Active; 'I' for Inactive)
REMARK    1  A    between atoms: C_1  and  O_2
REMARK    2  A    between atoms: O_2  and  C_3
REMARK    3  A    between atoms: C_6  and  O_24
REMARK    4  A    between atoms: C_7  and  O_20
REMARK    5  A    between atoms: C_8  and  O_9
REMARK    6  A    between atoms: C_8  and  C_10
REMARK    7  A    between atoms: C_10  and  O_11
REMARK    8  A    between atoms: O_11  and  C_12
REMARK    9  A    between atoms: C_12  and  C_14
REMARK   10  A    between atoms: O_20  and  C_21
REMARK   11  A    between atoms: C_21  and  C_23
REMARK                            x       y       z     vdW  Elec       q    Type
REMARK                         _______ _______ _______ _____ _____    ______ ____
ROOT
ATOM      1  C   UNL     1      89.588  49.193  42.163  0.00  0.00    +0.112 C 
ATOM      2  C   UNL     1      89.471  47.838  41.517  0.00  0.00    -0.054 C 
ATOM      3  C   UNL     1      88.361  47.097  41.618  0.00  0.00    -0.054 C 
ATOM      4  C   UNL     1      87.116  47.554  42.346  0.00  0.00    +0.113 C 
ATOM      5  C   UNL     1      87.176  49.018  42.886  0.00  0.00    +0.167 C 
ATOM      6  C   UNL     1      88.215  49.906  42.132  0.00  0.00    +0.169 C 
ENDROOT
BRANCH   1   8
ATOM      7  C   UNL     1      91.256  48.374  43.573  0.00  0.00    +0.037 C 
ATOM      8  O   UNL     1      90.011  49.036  43.505  0.00  0.00    -0.373 OA
ENDBRANCH   1   8
BRANCH   6   9
ATOM      9  O   UNL     1      87.837  50.072  40.786  0.00  0.00    -0.379 OA
ATOM     10  H   UNL     1      86.870  50.130  40.727  0.00  0.00    +0.000 HD
ENDBRANCH   6   9
BRANCH   4  11
ATOM     11  O   UNL     1      86.882  46.681  43.421  0.00  0.00    -0.384 OA
ATOM     12  H   UNL     1      85.932  46.499  43.488  0.00  0.00    +0.000 HD
ENDBRANCH   4  11
BRANCH   6  13
ATOM     13  C   UNL     1      88.365  51.291  42.806  0.00  0.00    +0.128 C 
BRANCH  13  14
ATOM     14  O   UNL     1      87.935  51.245  44.162  0.00  0.00    -0.458 OA
BRANCH  14  15
ATOM     15  C   UNL     1      87.143  52.250  44.738  0.00  0.00    +0.339 C 
ATOM     16  O   UNL     1      86.776  53.250  44.050  0.00  0.00    -0.245 OA
BRANCH  15  17
ATOM     17  C   UNL     1      86.744  52.149  46.159  0.00  0.00    +0.059 A 
ATOM     18  C   UNL     1      86.006  53.181  46.766  0.00  0.00    -0.048 A 
ATOM     19  C   UNL     1      85.623  53.081  48.109  0.00  0.00    -0.061 A 
ATOM     20  C   UNL     1      85.968  51.951  48.856  0.00  0.00    -0.062 A 
ATOM     21  C   UNL     1      86.699  50.917  48.262  0.00  0.00    -0.061 A 
ATOM     22  C   UNL     1      87.088  51.015  46.921  0.00  0.00    -0.048 A 
ENDBRANCH  15  17
ENDBRANCH  14  15
ENDBRANCH  13  14
ENDBRANCH   6  13
BRANCH   5  23
ATOM     23  O   UNL     1      85.873  49.617  42.814  0.00  0.00    -0.455 OA
BRANCH  23  24
ATOM     24  C   UNL     1      84.942  49.565  43.847  0.00  0.00    +0.304 C 
ATOM     25  O   UNL     1      85.090  48.764  44.814  0.00  0.00    -0.251 OA
ATOM     26  C   UNL     1      83.758  50.476  43.831  0.00  0.00    +0.033 C 
ENDBRANCH  23  24
ENDBRANCH   5  23
TORSDOF 9
ENDMDL
MODEL 7
REMARK VINA RESULT:    -7.042      2.042      6.478
REMARK INTER + INTRA:         -11.293
REMARK INTER:                 -10.293
REMARK INTRA:                  -1.000
REMARK UNBOUND:                -0.958
REMARK  Name = 
REMARK  11 active torsions:
REMARK  status: ('A' for Active; 'I' for Inactive)
REMARK    1  A    between atoms: C_1  and  O_2
REMARK    2  A    between atoms: O_2  and  C_3
REMARK    3  A    between atoms: C_6  and  O_24
REMARK    4  A    between atoms: C_7  and  O_20
REMARK    5  A    between atoms: C_8  and  O_9
REMARK    6  A    between atoms: C_8  and  C_10
REMARK    7  A    between atoms: C_10  and  O_11
REMARK    8  A    between atoms: O_11  and  C_12
REMARK    9  A    between atoms: C_12  and  C_14
REMARK   10  A    between atoms: O_20  and  C_21
REMARK   11  A    between atoms: C_21  and  C_23
REMARK                            x       y       z     vdW  Elec       q    Type
REMARK                         _______ _______ _______ _____ _____    ______ ____
ROOT
ATOM      1  C   UNL     1      84.382  53.891  41.560  0.00  0.00    +0.112 C 
ATOM      2  C   UNL     1      84.311  55.391  41.664  0.00  0.00    -0.054 C 
ATOM      3  C   UNL     1      84.707  56.046  42.762  0.00  0.00    -0.054 C 
ATOM      4  C   UNL     1      85.296  55.360  43.976  0.00  0.00    +0.113 C 
ATOM      5  C   UNL     1      85.516  53.822  43.814  0.00  0.00    +0.167 C 
ATOM      6  C   UNL     1      85.625  53.373  42.324  0.00  0.00    +0.169 C 
ENDROOT
BRANCH   1   8
ATOM      7  C   UNL     1      82.080  53.603  41.325  0.00  0.00    +0.037 C 
ATOM      8  O   UNL     1      83.211  53.326  42.121  0.00  0.00    -0.373 OA
ENDBRANCH   1   8
BRANCH   6   9
ATOM      9  O   UNL     1      86.771  53.929  41.724  0.00  0.00    -0.379 OA
ATOM     10  H   UNL     1      87.457  54.059  42.398  0.00  0.00    +0.000 HD
ENDBRANCH   6   9
BRANCH   4  11
ATOM     11  O   UNL     1      84.448  55.587  45.072  0.00  0.00    -0.384 OA
ATOM     12  H   UNL     1      84.671  54.970  45.786  0.00  0.00    +0.000 HD
ENDBRANCH   4  11
BRANCH   6  13
ATOM     13  C   UNL     1      85.669  51.831  42.203  0.00  0.00    +0.128 C 
BRANCH  13  14
ATOM     14  O   UNL     1      86.992  51.344  42.399  0.00  0.00    -0.458 OA
BRANCH  14  15
ATOM     15  C   UNL     1      87.779  50.849  41.347  0.00  0.00    +0.339 C 
ATOM     16  O   UNL     1      87.773  51.425  40.218  0.00  0.00    -0.245 OA
BRANCH  15  17
ATOM     17  C   UNL     1      88.610  49.644  41.554  0.00  0.00    +0.059 A 
ATOM     18  C   UNL     1      89.993  49.764  41.781  0.00  0.00    -0.048 A 
ATOM     19  C   UNL     1      90.777  48.622  41.984  0.00  0.00    -0.061 A 
ATOM     20  C   UNL     1      90.191  47.354  41.967  0.00  0.00    -0.062 A 
ATOM     21  C   UNL     1      88.816  47.222  41.745  0.00  0.00    -0.061 A 
ATOM     22  C   UNL     1      88.028  48.360  41.537  0.00  0.00    -0.048 A 
ENDBRANCH  15  17
ENDBRANCH  14  15
ENDBRANCH  13  14
ENDBRANCH   6  13
BRANCH   5  23
ATOM     23  O   UNL     1      86.689  53.419  44.537  0.00  0.00    -0.455 OA
BRANCH  23  24
ATOM     24  C   UNL     1      86.656  52.850  45.806  0.00  0.00    +0.304 C 
ATOM     25  O   UNL     1      85.990  53.384  46.739  0.00  0.00    -0.251 OA
ATOM     26  C   UNL     1      87.401  51.583  46.075  0.00  0.00    +0.033 C 
ENDBRANCH  23  24
ENDBRANCH   5  23
TORSDOF 9
ENDMDL
MODEL 8
REMARK VINA RESULT:    -6.968      1.802      3.475
REMARK INTER + INTRA:         -11.186
REMARK INTER:                 -10.199
REMARK INTRA:                  -0.987
REMARK UNBOUND:                -0.958
REMARK  Name = 
REMARK  11 active torsions:
REMARK  status: ('A' for Active; 'I' for Inactive)
REMARK    1  A    between atoms: C_1  and  O_2
REMARK    2  A    between atoms: O_2  and  C_3
REMARK    3  A    between atoms: C_6  and  O_24
REMARK    4  A    between atoms: C_7  and  O_20
REMARK    5  A    between atoms: C_8  and  O_9
REMARK    6  A    between atoms: C_8  and  C_10
REMARK    7  A    between atoms: C_10  and  O_11
REMARK    8  A    between atoms: O_11  and  C_12
REMARK    9  A    between atoms: C_12  and  C_14
REMARK   10  A    between atoms: O_20  and  C_21
REMARK   11  A    between atoms: C_21  and  C_23
REMARK                            x       y       z     vdW  Elec       q    Type
REMARK                         _______ _______ _______ _____ _____    ______ ____
ROOT
ATOM      1  C   UNL     1      86.361  51.751  43.259  0.00  0.00    +0.112 C 
ATOM      2  C   UNL     1      87.538  51.023  43.850  0.00  0.00    -0.054 C 
ATOM      3  C   UNL     1      88.527  50.536  43.091  0.00  0.00    -0.054 C 
ATOM      4  C   UNL     1      88.583  50.701  41.588  0.00  0.00    +0.113 C 
ATOM      5  C   UNL     1      87.446  51.587  40.985  0.00  0.00    +0.167 C 
ATOM      6  C   UNL     1      86.818  52.567  42.025  0.00  0.00    +0.169 C 
ENDROOT
BRANCH   1   8
ATOM      7  C   UNL     1      84.539  50.470  43.950  0.00  0.00    +0.037 C 
ATOM      8  O   UNL     1      85.377  50.810  42.868  0.00  0.00    -0.373 OA
ENDBRANCH   1   8
BRANCH   6   9
ATOM      9  O   UNL     1      87.772  53.510  42.452  0.00  0.00    -0.379 OA
ATOM     10  H   UNL     1      87.752  53.574  43.419  0.00  0.00    +0.000 HD
ENDBRANCH   6   9
BRANCH   4  11
ATOM     11  O   UNL     1      88.530  49.428  40.997  0.00  0.00    -0.384 OA
ATOM     12  H   UNL     1      87.952  48.852  41.523  0.00  0.00    +0.000 HD
ENDBRANCH   4  11
BRANCH   6  13
ATOM     13  C   UNL     1      85.588  53.299  41.436  0.00  0.00    +0.128 C 
BRANCH  13  14
ATOM     14  O   UNL     1      84.861  53.971  42.458  0.00  0.00    -0.458 OA
BRANCH  14  15
ATOM     15  C   UNL     1      84.976  55.352  42.684  0.00  0.00    +0.339 C 
ATOM     16  O   UNL     1      84.844  56.171  41.725  0.00  0.00    -0.245 OA
BRANCH  15  17
ATOM     17  C   UNL     1      85.265  55.853  44.045  0.00  0.00    +0.059 A 
ATOM     18  C   UNL     1      85.909  55.028  44.985  0.00  0.00    -0.048 A 
ATOM     19  C   UNL     1      86.188  55.507  46.271  0.00  0.00    -0.061 A 
ATOM     20  C   UNL     1      85.832  56.810  46.629  0.00  0.00    -0.062 A 
ATOM     21  C   UNL     1      85.193  57.640  45.702  0.00  0.00    -0.061 A 
ATOM     22  C   UNL     1      84.908  57.165  44.417  0.00  0.00    -0.048 A 
ENDBRANCH  15  17
ENDBRANCH  14  15
ENDBRANCH  13  14
ENDBRANCH   6  13
BRANCH   5  23
ATOM     23  O   UNL     1      87.946  52.320  39.858  0.00  0.00    -0.455 OA
BRANCH  23  24
ATOM     24  C   UNL     1      89.275  52.292  39.445  0.00  0.00    +0.304 C 
ATOM     25  O   UNL     1      89.707  51.353  38.717  0.00  0.00    -0.251 OA
ATOM     26  C   UNL     1      90.205  53.390  39.847  0.00  0.00    +0.033 C 
ENDBRANCH  23  24
ENDBRANCH   5  23
TORSDOF 9
ENDMDL
MODEL 9
REMARK VINA RESULT:    -6.963      2.404      5.959
REMARK INTER + INTRA:         -11.177
REMARK INTER:                 -10.219
REMARK INTRA:                  -0.958
REMARK UNBOUND:                -0.958
REMARK  Name = 
REMARK  11 active torsions:
REMARK  status: ('A' for Active; 'I' for Inactive)
REMARK    1  A    between atoms: C_1  and  O_2
REMARK    2  A    between atoms: O_2  and  C_3
REMARK    3  A    between atoms: C_6  and  O_24
REMARK    4  A    between atoms: C_7  and  O_20
REMARK    5  A    between atoms: C_8  and  O_9
REMARK    6  A    between atoms: C_8  and  C_10
REMARK    7  A    between atoms: C_10  and  O_11
REMARK    8  A    between atoms: O_11  and  C_12
REMARK    9  A    between atoms: C_12  and  C_14
REMARK   10  A    between atoms: O_20  and  C_21
REMARK   11  A    between atoms: C_21  and  C_23
REMARK                            x       y       z     vdW  Elec       q    Type
REMARK                         _______ _______ _______ _____ _____    ______ ____
ROOT
ATOM      1  C   UNL     1      84.661  53.052  41.932  0.00  0.00    +0.112 C 
ATOM      2  C   UNL     1      84.399  54.174  40.964  0.00  0.00    -0.054 C 
ATOM      3  C   UNL     1      84.451  55.459  41.335  0.00  0.00    -0.054 C 
ATOM      4  C   UNL     1      84.812  55.910  42.734  0.00  0.00    +0.113 C 
ATOM      5  C   UNL     1      85.235  54.759  43.701  0.00  0.00    +0.167 C 
ATOM      6  C   UNL     1      85.740  53.485  42.954  0.00  0.00    +0.169 C 
ENDROOT
BRANCH   1   8
ATOM      7  C   UNL     1      82.491  52.223  41.728  0.00  0.00    +0.037 C 
ATOM      8  O   UNL     1      83.462  52.733  42.615  0.00  0.00    -0.373 OA
ENDBRANCH   1   8
BRANCH   6   9
ATOM      9  O   UNL     1      86.925  53.767  42.247  0.00  0.00    -0.379 OA
ATOM     10  H   UNL     1      87.092  54.722  42.265  0.00  0.00    +0.000 HD
ENDBRANCH   6   9
BRANCH   4  11
ATOM     11  O   UNL     1      83.711  56.585  43.283  0.00  0.00    -0.384 OA
ATOM     12  H   UNL     1      83.538  57.391  42.772  0.00  0.00    +0.000 HD
ENDBRANCH   4  11
BRANCH   6  13
ATOM     13  C   UNL     1      85.985  52.316  43.937  0.00  0.00    +0.128 C 
BRANCH  13  14
ATOM     14  O   UNL     1      87.377  52.089  44.119  0.00  0.00    -0.458 OA
BRANCH  14  15
ATOM     15  C   UNL     1      87.912  50.810  44.345  0.00  0.00    +0.339 C 
ATOM     16  O   UNL     1      87.609  50.166  45.395  0.00  0.00    -0.245 OA
BRANCH  15  17
ATOM     17  C   UNL     1      88.841  50.216  43.360  0.00  0.00    +0.059 A 
ATOM     18  C   UNL     1      88.949  50.759  42.067  0.00  0.00    -0.048 A 
ATOM     19  C   UNL     1      89.835  50.200  41.138  0.00  0.00    -0.061 A 
ATOM     20  C   UNL     1      90.621  49.099  41.489  0.00  0.00    -0.062 A 
ATOM     21  C   UNL     1      90.524  48.553  42.773  0.00  0.00    -0.061 A 
ATOM     22  C   UNL     1      89.637  49.105  43.704  0.00  0.00    -0.048 A 
ENDBRANCH  15  17
ENDBRANCH  14  15
ENDBRANCH  13  14
ENDBRANCH   6  13
BRANCH   5  23
ATOM     23  O   UNL     1      86.243  55.230  44.607  0.00  0.00    -0.455 OA
BRANCH  23  24
ATOM     24  C   UNL     1      85.963  55.892  45.799  0.00  0.00    +0.304 C 
ATOM     25  O   UNL     1      85.633  57.113  45.800  0.00  0.00    -0.251 OA
ATOM     26  C   UNL     1      86.032  55.154  47.097  0.00  0.00    +0.033 C 
ENDBRANCH  23  24
ENDBRANCH   5  23
TORSDOF 9
ENDMDL
