MODEL 1
REMARK VINA RESULT:    -9.340      0.000      0.000
REMARK INTER + INTRA:         -16.059
REMARK INTER:                 -14.297
REMARK INTRA:                  -1.762
REMARK UNBOUND:                -1.259
REMARK  Name = 
REMARK  12 active torsions:
REMARK  status: ('A' for Active; 'I' for Inactive)
REMARK    1  A    between atoms: C_1  and  C_2
REMARK    2  A    between atoms: C_2  and  O_4
REMARK    3  A    between atoms: O_4  and  C_5
REMARK    4  A    between atoms: C_8  and  O_23
REMARK    5  A    between atoms: C_9  and  O_12
REMARK    6  A    between atoms: C_9  and  C_13
REMARK    7  A    between atoms: C_10  and  O_11
REMARK    8  A    between atoms: C_13  and  O_14
REMARK    9  A    between atoms: O_14  and  C_15
REMARK   10  A    between atoms: C_15  and  C_17
REMARK   11  A    between atoms: O_23  and  C_24
REMARK   12  A    between atoms: C_24  and  C_26
REMARK                            x       y       z     vdW  Elec       q    Type
REMARK                         _______ _______ _______ _____ _____    ______ ____
ROOT
ATOM      1  C   UNL     1      83.408  54.198  41.527  0.00  0.00    +0.150 C 
ATOM      2  C   UNL     1      83.911  55.472  42.168  0.00  0.00    -0.042 C 
ATOM      3  C   UNL     1      84.747  55.462  43.213  0.00  0.00    -0.041 C 
ATOM      4  C   UNL     1      85.308  54.169  43.732  0.00  0.00    +0.156 C 
ATOM      5  C   UNL     1      85.652  53.233  42.540  0.00  0.00    +0.170 C 
ATOM      6  C   UNL     1      84.350  52.957  41.703  0.00  0.00    +0.131 C 
ENDROOT
BRANCH   6   7
ATOM      7  O   UNL     1      83.602  51.923  42.310  0.00  0.00    -0.385 OA
ATOM      8  H   UNL     1      84.194  51.196  42.556  0.00  0.00    +0.000 HD
ENDBRANCH   6   7
BRANCH   5   9
ATOM      9  O   UNL     1      86.644  53.837  41.734  0.00  0.00    -0.379 OA
ATOM     10  H   UNL     1      86.219  54.343  41.023  0.00  0.00    +0.000 HD
ENDBRANCH   5   9
BRANCH   1  11
ATOM     11  O   UNL     1      83.159  54.449  40.137  0.00  0.00    -0.455 OA
BRANCH  11  13
ATOM     12  C   UNL     1      83.790  56.056  38.319  0.00  0.00    +0.033 C 
ATOM     13  C   UNL     1      84.134  54.943  39.257  0.00  0.00    +0.305 C 
ATOM     14  O   UNL     1      85.305  54.472  39.260  0.00  0.00    -0.251 OA
ENDBRANCH  11  13
ENDBRANCH   1  11
BRANCH   5  15
ATOM     15  C   UNL     1      86.251  51.902  43.065  0.00  0.00    +0.128 C 
BRANCH  15  16
ATOM     16  O   UNL     1      86.368  50.940  42.016  0.00  0.00    -0.458 OA
BRANCH  16  17
ATOM     17  C   UNL     1      87.537  50.738  41.267  0.00  0.00    +0.339 C 
ATOM     18  O   UNL     1      87.799  51.487  40.283  0.00  0.00    -0.245 OA
BRANCH  17  19
ATOM     19  C   UNL     1      88.463  49.645  41.634  0.00  0.00    +0.059 A 
ATOM     20  C   UNL     1      88.033  48.302  41.625  0.00  0.00    -0.048 A 
ATOM     21  C   UNL     1      88.912  47.275  41.986  0.00  0.00    -0.061 A 
ATOM     22  C   UNL     1      90.225  47.576  42.360  0.00  0.00    -0.062 A 
ATOM     23  C   UNL     1      90.661  48.904  42.373  0.00  0.00    -0.061 A 
ATOM     24  C   UNL     1      89.787  49.936  42.012  0.00  0.00    -0.048 A 
ENDBRANCH  17  19
ENDBRANCH  16  17
ENDBRANCH  15  16
ENDBRANCH   5  15
BRANCH   4  25
ATOM     25  O   UNL     1      86.473  54.456  44.512  0.00  0.00    -0.451 OA
BRANCH  25  26
ATOM     26  C   UNL     1      86.465  54.613  45.905  0.00  0.00    +0.340 C 
ATOM     27  O   UNL     1      86.432  55.768  46.413  0.00  0.00    -0.245 OA
BRANCH  26  28
ATOM     28  C   UNL     1      86.486  53.421  46.778  0.00  0.00    +0.059 A 
ATOM     29  C   UNL     1      85.752  53.405  47.979  0.00  0.00    -0.048 A 
ATOM     30  C   UNL     1      85.783  52.282  48.812  0.00  0.00    -0.061 A 
ATOM     31  C   UNL     1      86.544  51.165  48.456  0.00  0.00    -0.062 A 
ATOM     32  C   UNL     1      87.274  51.169  47.266  0.00  0.00    -0.061 A 
ATOM     33  C   UNL     1      87.247  52.289  46.428  0.00  0.00    -0.048 A 
ENDBRANCH  26  28
ENDBRANCH  25  26
ENDBRANCH   4  25
TORSDOF 11
ENDMDL
MODEL 2
REMARK VINA RESULT:    -9.259      1.393      2.152
REMARK INTER + INTRA:         -15.930
REMARK INTER:                 -14.310
REMARK INTRA:                  -1.620
REMARK UNBOUND:                -1.259
REMARK  Name = 
REMARK  12 active torsions:
REMARK  status: ('A' for Active; 'I' for Inactive)
REMARK    1  A    between atoms: C_1  and  C_2
REMARK    2  A    between atoms: C_2  and  O_4
REMARK    3  A    between atoms: O_4  and  C_5
REMARK    4  A    between atoms: C_8  and  O_23
REMARK    5  A    between atoms: C_9  and  O_12
REMARK    6  A    between atoms: C_9  and  C_13
REMARK    7  A    between atoms: C_10  and  O_11
REMARK    8  A    between atoms: C_13  and  O_14
REMARK    9  A    between atoms: O_14  and  C_15
REMARK   10  A    between atoms: C_15  and  C_17
REMARK   11  A    between atoms: O_23  and  C_24
REMARK   12  A    between atoms: C_24  and  C_26
REMARK                            x       y       z     vdW  Elec       q    Type
REMARK                         _______ _______ _______ _____ _____    ______ ____
ROOT
ATOM      1  C   UNL     1      84.551  53.949  41.079  0.00  0.00    +0.150 C 
ATOM      2  C   UNL     1      84.924  55.159  41.907  0.00  0.00    -0.042 C 
ATOM      3  C   UNL     1      85.455  55.049  43.131  0.00  0.00    -0.041 C 
ATOM      4  C   UNL     1      85.803  53.701  43.695  0.00  0.00    +0.156 C 
ATOM      5  C   UNL     1      86.407  52.806  42.577  0.00  0.00    +0.170 C 
ATOM      6  C   UNL     1      85.360  52.648  41.415  0.00  0.00    +0.131 C 
ENDROOT
BRANCH   6   7
ATOM      7  O   UNL     1      84.434  51.631  41.741  0.00  0.00    -0.385 OA
ATOM      8  H   UNL     1      83.541  52.005  41.775  0.00  0.00    +0.000 HD
ENDBRANCH   6   7
BRANCH   5   9
ATOM      9  O   UNL     1      87.601  53.391  42.095  0.00  0.00    -0.379 OA
ATOM     10  H   UNL     1      88.171  53.627  42.844  0.00  0.00    +0.000 HD
ENDBRANCH   5   9
BRANCH   1  11
ATOM     11  O   UNL     1      84.687  54.282  39.691  0.00  0.00    -0.455 OA
BRANCH  11  13
ATOM     12  C   UNL     1      82.783  55.738  38.955  0.00  0.00    +0.033 C 
ATOM     13  C   UNL     1      84.247  55.497  39.144  0.00  0.00    +0.305 C 
ATOM     14  O   UNL     1      85.072  56.398  38.824  0.00  0.00    -0.251 OA
ENDBRANCH  11  13
ENDBRANCH   1  11
BRANCH   5  15
ATOM     15  C   UNL     1      86.789  51.419  43.155  0.00  0.00    +0.128 C 
BRANCH  15  16
ATOM     16  O   UNL     1      86.894  50.440  42.120  0.00  0.00    -0.458 OA
BRANCH  16  17
ATOM     17  C   UNL     1      88.095  50.110  41.474  0.00  0.00    +0.339 C 
ATOM     18  O   UNL     1      88.450  50.735  40.434  0.00  0.00    -0.245 OA
BRANCH  17  19
ATOM     19  C   UNL     1      88.945  49.029  42.017  0.00  0.00    +0.059 A 
ATOM     20  C   UNL     1      90.075  49.327  42.805  0.00  0.00    -0.048 A 
ATOM     21  C   UNL     1      90.881  48.297  43.304  0.00  0.00    -0.061 A 
ATOM     22  C   UNL     1      90.571  46.964  43.021  0.00  0.00    -0.062 A 
ATOM     23  C   UNL     1      89.453  46.658  42.239  0.00  0.00    -0.061 A 
ATOM     24  C   UNL     1      88.642  47.682  41.738  0.00  0.00    -0.048 A 
ENDBRANCH  17  19
ENDBRANCH  16  17
ENDBRANCH  15  16
ENDBRANCH   5  15
BRANCH   4  25
ATOM     25  O   UNL     1      86.735  53.881  44.767  0.00  0.00    -0.451 OA
BRANCH  25  26
ATOM     26  C   UNL     1      86.520  53.426  46.076  0.00  0.00    +0.340 C 
ATOM     27  O   UNL     1      87.230  52.494  46.549  0.00  0.00    -0.245 OA
BRANCH  26  28
ATOM     28  C   UNL     1      85.465  54.046  46.904  0.00  0.00    +0.059 A 
ATOM     29  C   UNL     1      84.594  53.244  47.665  0.00  0.00    -0.048 A 
ATOM     30  C   UNL     1      83.587  53.830  48.439  0.00  0.00    -0.061 A 
ATOM     31  C   UNL     1      83.439  55.219  48.461  0.00  0.00    -0.062 A 
ATOM     32  C   UNL     1      84.298  56.025  47.712  0.00  0.00    -0.061 A 
ATOM     33  C   UNL     1      85.308  55.444  46.937  0.00  0.00    -0.048 A 
ENDBRANCH  26  28
ENDBRANCH  25  26
ENDBRANCH   4  25
TORSDOF 11
ENDMDL
MODEL 3
REMARK VINA RESULT:    -9.025      2.179      6.685
REMARK INTER + INTRA:         -15.560
REMARK INTER:                 -12.294
REMARK INTRA:                  -3.266
REMARK UNBOUND:                -1.259
REMARK  Name = 
REMARK  12 active torsions:
REMARK  status: ('A' for Active; 'I' for Inactive)
REMARK    1  A    between atoms: C_1  and  C_2
REMARK    2  A    between atoms: C_2  and  O_4
REMARK    3  A    between atoms: O_4  and  C_5
REMARK    4  A    between atoms: C_8  and  O_23
REMARK    5  A    between atoms: C_9  and  O_12
REMARK    6  A    between atoms: C_9  and  C_13
REMARK    7  A    between atoms: C_10  and  O_11
REMARK    8  A    between atoms: C_13  and  O_14
REMARK    9  A    between atoms: O_14  and  C_15
REMARK   10  A    between atoms: C_15  and  C_17
REMARK   11  A    between atoms: O_23  and  C_24
REMARK   12  A    between atoms: C_24  and  C_26
REMARK                            x       y       z     vdW  Elec       q    Type
REMARK                         _______ _______ _______ _____ _____    ______ ____
ROOT
ATOM      1  C   UNL     1      89.504  49.645  41.227  0.00  0.00    +0.150 C 
ATOM      2  C   UNL     1      89.971  51.065  41.454  0.00  0.00    -0.042 C 
ATOM      3  C   UNL     1      89.127  52.048  41.791  0.00  0.00    -0.041 C 
ATOM      4  C   UNL     1      87.679  51.754  42.063  0.00  0.00    +0.156 C 
ATOM      5  C   UNL     1      87.556  50.416  42.842  0.00  0.00    +0.170 C 
ATOM      6  C   UNL     1      88.189  49.256  41.989  0.00  0.00    +0.131 C 
ENDROOT
BRANCH   6   7
ATOM      7  O   UNL     1      87.251  48.798  41.035  0.00  0.00    -0.385 OA
ATOM      8  H   UNL     1      87.680  48.165  40.439  0.00  0.00    +0.000 HD
ENDBRANCH   6   7
BRANCH   5   9
ATOM      9  O   UNL     1      88.211  50.531  44.090  0.00  0.00    -0.379 OA
ATOM     10  H   UNL     1      89.012  51.068  43.985  0.00  0.00    +0.000 HD
ENDBRANCH   5   9
BRANCH   1  11
ATOM     11  O   UNL     1      90.569  48.749  41.572  0.00  0.00    -0.455 OA
BRANCH  11  13
ATOM     12  C   UNL     1      91.183  48.552  43.995  0.00  0.00    +0.033 C 
ATOM     13  C   UNL     1      90.582  47.984  42.749  0.00  0.00    +0.305 C 
ATOM     14  O   UNL     1      90.075  46.828  42.773  0.00  0.00    -0.251 OA
ENDBRANCH  11  13
ENDBRANCH   1  11
BRANCH   5  15
ATOM     15  C   UNL     1      86.065  50.113  43.146  0.00  0.00    +0.128 C 
BRANCH  15  16
ATOM     16  O   UNL     1      85.751  50.388  44.512  0.00  0.00    -0.458 OA
BRANCH  16  17
ATOM     17  C   UNL     1      84.750  51.282  44.920  0.00  0.00    +0.339 C 
ATOM     18  O   UNL     1      83.557  51.121  44.533  0.00  0.00    -0.245 OA
BRANCH  17  19
ATOM     19  C   UNL     1      85.096  52.414  45.806  0.00  0.00    +0.059 A 
ATOM     20  C   UNL     1      84.095  53.274  46.302  0.00  0.00    -0.048 A 
ATOM     21  C   UNL     1      84.433  54.351  47.130  0.00  0.00    -0.061 A 
ATOM     22  C   UNL     1      85.769  54.580  47.470  0.00  0.00    -0.062 A 
ATOM     23  C   UNL     1      86.770  53.733  46.984  0.00  0.00    -0.061 A 
ATOM     24  C   UNL     1      86.438  52.655  46.156  0.00  0.00    -0.048 A 
ENDBRANCH  17  19
ENDBRANCH  16  17
ENDBRANCH  15  16
ENDBRANCH   5  15
BRANCH   4  25
ATOM     25  O   UNL     1      87.126  52.838  42.815  0.00  0.00    -0.451 OA
BRANCH  25  26
ATOM     26  C   UNL     1      86.205  53.761  42.299  0.00  0.00    +0.340 C 
ATOM     27  O   UNL     1      85.720  53.596  41.144  0.00  0.00    -0.245 OA
BRANCH  26  28
ATOM     28  C   UNL     1      85.796  54.925  43.113  0.00  0.00    +0.059 A 
ATOM     29  C   UNL     1      86.742  55.612  43.896  0.00  0.00    -0.048 A 
ATOM     30  C   UNL     1      86.353  56.705  44.678  0.00  0.00    -0.061 A 
ATOM     31  C   UNL     1      85.020  57.122  44.685  0.00  0.00    -0.062 A 
ATOM     32  C   UNL     1      84.073  56.449  43.911  0.00  0.00    -0.061 A 
ATOM     33  C   UNL     1      84.456  55.355  43.127  0.00  0.00    -0.048 A 
ENDBRANCH  26  28
ENDBRANCH  25  26
ENDBRANCH   4  25
TORSDOF 11
ENDMDL
MODEL 4
REMARK VINA RESULT:    -9.007      1.608      5.372
REMARK INTER + INTRA:         -15.532
REMARK INTER:                 -13.771
REMARK INTRA:                  -1.761
REMARK UNBOUND:                -1.259
REMARK  Name = 
REMARK  12 active torsions:
REMARK  status: ('A' for Active; 'I' for Inactive)
REMARK    1  A    between atoms: C_1  and  C_2
REMARK    2  A    between atoms: C_2  and  O_4
REMARK    3  A    between atoms: O_4  and  C_5
REMARK    4  A    between atoms: C_8  and  O_23
REMARK    5  A    between atoms: C_9  and  O_12
REMARK    6  A    between atoms: C_9  and  C_13
REMARK    7  A    between atoms: C_10  and  O_11
REMARK    8  A    between atoms: C_13  and  O_14
REMARK    9  A    between atoms: O_14  and  C_15
REMARK   10  A    between atoms: C_15  and  C_17
REMARK   11  A    between atoms: O_23  and  C_24
REMARK   12  A    between atoms: C_24  and  C_26
REMARK                            x       y       z     vdW  Elec       q    Type
REMARK                         _______ _______ _______ _____ _____    ______ ____
ROOT
ATOM      1  C   UNL     1      83.852  54.988  40.828  0.00  0.00    +0.150 C 
ATOM      2  C   UNL     1      84.605  53.761  40.363  0.00  0.00    -0.042 C 
ATOM      3  C   UNL     1      85.738  53.356  40.950  0.00  0.00    -0.041 C 
ATOM      4  C   UNL     1      86.258  54.053  42.175  0.00  0.00    +0.156 C 
ATOM      5  C   UNL     1      85.071  54.425  43.107  0.00  0.00    +0.170 C 
ATOM      6  C   UNL     1      84.077  55.367  42.333  0.00  0.00    +0.131 C 
ENDROOT
BRANCH   6   7
ATOM      7  O   UNL     1      84.546  56.700  42.382  0.00  0.00    -0.385 OA
ATOM      8  H   UNL     1      85.399  56.760  41.925  0.00  0.00    +0.000 HD
ENDBRANCH   6   7
BRANCH   5   9
ATOM      9  O   UNL     1      84.413  53.248  43.530  0.00  0.00    -0.379 OA
ATOM     10  H   UNL     1      83.903  52.879  42.792  0.00  0.00    +0.000 HD
ENDBRANCH   5   9
BRANCH   1  11
ATOM     11  O   UNL     1      82.456  54.800  40.559  0.00  0.00    -0.455 OA
BRANCH  11  13
ATOM     12  C   UNL     1      80.313  54.471  41.817  0.00  0.00    +0.033 C 
ATOM     13  C   UNL     1      81.630  53.963  41.325  0.00  0.00    +0.305 C 
ATOM     14  O   UNL     1      81.978  52.778  41.588  0.00  0.00    -0.251 OA
ENDBRANCH  11  13
ENDBRANCH   1  11
BRANCH   5  15
ATOM     15  C   UNL     1      85.599  55.128  44.385  0.00  0.00    +0.128 C 
BRANCH  15  16
ATOM     16  O   UNL     1      84.949  54.627  45.555  0.00  0.00    -0.458 OA
BRANCH  16  17
ATOM     17  C   UNL     1      85.566  54.529  46.811  0.00  0.00    +0.339 C 
ATOM     18  O   UNL     1      85.705  55.557  47.534  0.00  0.00    -0.245 OA
BRANCH  17  19
ATOM     19  C   UNL     1      86.053  53.217  47.287  0.00  0.00    +0.059 A 
ATOM     20  C   UNL     1      85.761  52.770  48.592  0.00  0.00    -0.048 A 
ATOM     21  C   UNL     1      86.237  51.532  49.038  0.00  0.00    -0.061 A 
ATOM     22  C   UNL     1      87.006  50.730  48.191  0.00  0.00    -0.062 A 
ATOM     23  C   UNL     1      87.302  51.164  46.896  0.00  0.00    -0.061 A 
ATOM     24  C   UNL     1      86.829  52.400  46.443  0.00  0.00    -0.048 A 
ENDBRANCH  17  19
ENDBRANCH  16  17
ENDBRANCH  15  16
ENDBRANCH   5  15
BRANCH   4  25
ATOM     25  O   UNL     1      87.178  53.182  42.840  0.00  0.00    -0.451 OA
BRANCH  25  26
ATOM     26  C   UNL     1      88.355  52.693  42.256  0.00  0.00    +0.340 C 
ATOM     27  O   UNL     1      89.082  53.454  41.559  0.00  0.00    -0.245 OA
BRANCH  26  28
ATOM     28  C   UNL     1      88.747  51.283  42.465  0.00  0.00    +0.059 A 
ATOM     29  C   UNL     1      88.116  50.509  43.457  0.00  0.00    -0.048 A 
ATOM     30  C   UNL     1      88.497  49.179  43.664  0.00  0.00    -0.061 A 
ATOM     31  C   UNL     1      89.506  48.609  42.885  0.00  0.00    -0.062 A 
ATOM     32  C   UNL     1      90.138  49.367  41.896  0.00  0.00    -0.061 A 
ATOM     33  C   UNL     1      89.762  50.698  41.685  0.00  0.00    -0.048 A 
ENDBRANCH  26  28
ENDBRANCH  25  26
ENDBRANCH   4  25
TORSDOF 11
ENDMDL
MODEL 5
REMARK VINA RESULT:    -8.975      3.888      7.333
REMARK INTER + INTRA:         -15.481
REMARK INTER:                 -13.914
REMARK INTRA:                  -1.567
REMARK UNBOUND:                -1.259
REMARK  Name = 
REMARK  12 active torsions:
REMARK  status: ('A' for Active; 'I' for Inactive)
REMARK    1  A    between atoms: C_1  and  C_2
REMARK    2  A    between atoms: C_2  and  O_4
REMARK    3  A    between atoms: O_4  and  C_5
REMARK    4  A    between atoms: C_8  and  O_23
REMARK    5  A    between atoms: C_9  and  O_12
REMARK    6  A    between atoms: C_9  and  C_13
REMARK    7  A    between atoms: C_10  and  O_11
REMARK    8  A    between atoms: C_13  and  O_14
REMARK    9  A    between atoms: O_14  and  C_15
REMARK   10  A    between atoms: C_15  and  C_17
REMARK   11  A    between atoms: O_23  and  C_24
REMARK   12  A    between atoms: C_24  and  C_26
REMARK                            x       y       z     vdW  Elec       q    Type
REMARK                         _______ _______ _______ _____ _____    ______ ____
ROOT
ATOM      1  C   UNL     1      86.398  51.559  46.147  0.00  0.00    +0.150 C 
ATOM      2  C   UNL     1      86.941  52.458  45.059  0.00  0.00    -0.042 C 
ATOM      3  C   UNL     1      87.358  51.980  43.881  0.00  0.00    -0.041 C 
ATOM      4  C   UNL     1      87.203  50.523  43.549  0.00  0.00    +0.156 C 
ATOM      5  C   UNL     1      85.836  50.008  44.079  0.00  0.00    +0.170 C 
ATOM      6  C   UNL     1      85.772  50.215  45.637  0.00  0.00    +0.131 C 
ENDROOT
BRANCH   6   7
ATOM      7  O   UNL     1      86.435  49.150  46.288  0.00  0.00    -0.385 OA
ATOM      8  H   UNL     1      87.378  49.359  46.372  0.00  0.00    +0.000 HD
ENDBRANCH   6   7
BRANCH   5   9
ATOM      9  O   UNL     1      84.786  50.707  43.441  0.00  0.00    -0.379 OA
ATOM     10  H   UNL     1      83.937  50.427  43.815  0.00  0.00    +0.000 HD
ENDBRANCH   5   9
BRANCH   1  11
ATOM     11  O   UNL     1      85.443  52.298  46.920  0.00  0.00    -0.455 OA
BRANCH  11  13
ATOM     12  C   UNL     1      85.073  53.845  48.858  0.00  0.00    +0.033 C 
ATOM     13  C   UNL     1      85.602  52.568  48.288  0.00  0.00    +0.305 C 
ATOM     14  O   UNL     1      86.172  51.737  49.048  0.00  0.00    -0.251 OA
ENDBRANCH  11  13
ENDBRANCH   1  11
BRANCH   5  15
ATOM     15  C   UNL     1      85.658  48.509  43.723  0.00  0.00    +0.128 C 
BRANCH  15  16
ATOM     16  O   UNL     1      84.492  47.967  44.344  0.00  0.00    -0.458 OA
BRANCH  16  17
ATOM     17  C   UNL     1      83.560  47.152  43.683  0.00  0.00    +0.339 C 
ATOM     18  O   UNL     1      83.954  46.252  42.888  0.00  0.00    -0.245 OA
BRANCH  17  19
ATOM     19  C   UNL     1      82.115  47.350  43.922  0.00  0.00    +0.059 A 
ATOM     20  C   UNL     1      81.317  46.303  44.427  0.00  0.00    -0.048 A 
ATOM     21  C   UNL     1      79.947  46.496  44.638  0.00  0.00    -0.061 A 
ATOM     22  C   UNL     1      79.360  47.730  44.347  0.00  0.00    -0.062 A 
ATOM     23  C   UNL     1      80.142  48.775  43.846  0.00  0.00    -0.061 A 
ATOM     24  C   UNL     1      81.512  48.589  43.633  0.00  0.00    -0.048 A 
ENDBRANCH  17  19
ENDBRANCH  16  17
ENDBRANCH  15  16
ENDBRANCH   5  15
BRANCH   4  25
ATOM     25  O   UNL     1      87.294  50.365  42.129  0.00  0.00    -0.451 OA
BRANCH  25  26
ATOM     26  C   UNL     1      88.441  49.910  41.464  0.00  0.00    +0.340 C 
ATOM     27  O   UNL     1      88.770  50.408  40.351  0.00  0.00    -0.245 OA
BRANCH  26  28
ATOM     28  C   UNL     1      89.270  48.848  42.073  0.00  0.00    +0.059 A 
ATOM     29  C   UNL     1      88.943  47.493  41.883  0.00  0.00    -0.048 A 
ATOM     30  C   UNL     1      89.720  46.489  42.470  0.00  0.00    -0.061 A 
ATOM     31  C   UNL     1      90.828  46.826  43.251  0.00  0.00    -0.062 A 
ATOM     32  C   UNL     1      91.163  48.168  43.445  0.00  0.00    -0.061 A 
ATOM     33  C   UNL     1      90.391  49.176  42.859  0.00  0.00    -0.048 A 
ENDBRANCH  26  28
ENDBRANCH  25  26
ENDBRANCH   4  25
TORSDOF 11
ENDMDL
MODEL 6
REMARK VINA RESULT:    -8.886      2.846      4.826
REMARK INTER + INTRA:         -15.340
REMARK INTER:                 -14.081
REMARK INTRA:                  -1.259
REMARK UNBOUND:                -1.259
REMARK  Name = 
REMARK  12 active torsions:
REMARK  status: ('A' for Active; 'I' for Inactive)
REMARK    1  A    between atoms: C_1  and  C_2
REMARK    2  A    between atoms: C_2  and  O_4
REMARK    3  A    between atoms: O_4  and  C_5
REMARK    4  A    between atoms: C_8  and  O_23
REMARK    5  A    between atoms: C_9  and  O_12
REMARK    6  A    between atoms: C_9  and  C_13
REMARK    7  A    between atoms: C_10  and  O_11
REMARK    8  A    between atoms: C_13  and  O_14
REMARK    9  A    between atoms: O_14  and  C_15
REMARK   10  A    between atoms: C_15  and  C_17
REMARK   11  A    between atoms: O_23  and  C_24
REMARK   12  A    between atoms: C_24  and  C_26
REMARK                            x       y       z     vdW  Elec       q    Type
REMARK                         _______ _______ _______ _____ _____    ______ ____
ROOT
ATOM      1  C   UNL     1      86.005  55.347  43.275  0.00  0.00    +0.150 C 
ATOM      2  C   UNL     1      84.525  55.215  43.554  0.00  0.00    -0.042 C 
ATOM      3  C   UNL     1      83.869  54.060  43.391  0.00  0.00    -0.041 C 
ATOM      4  C   UNL     1      84.608  52.806  43.020  0.00  0.00    +0.156 C 
ATOM      5  C   UNL     1      85.961  52.752  43.783  0.00  0.00    +0.170 C 
ATOM      6  C   UNL     1      86.821  54.014  43.409  0.00  0.00    +0.131 C 
ENDROOT
BRANCH   6   7
ATOM      7  O   UNL     1      87.492  53.789  42.185  0.00  0.00    -0.385 OA
ATOM      8  H   UNL     1      86.847  53.558  41.500  0.00  0.00    +0.000 HD
ENDBRANCH   6   7
BRANCH   5   9
ATOM      9  O   UNL     1      85.718  52.711  45.176  0.00  0.00    -0.379 OA
ATOM     10  H   UNL     1      85.639  51.787  45.463  0.00  0.00    +0.000 HD
ENDBRANCH   5   9
BRANCH   1  11
ATOM     11  O   UNL     1      86.547  56.357  44.136  0.00  0.00    -0.455 OA
BRANCH  11  13
ATOM     12  C   UNL     1      85.302  57.771  45.790  0.00  0.00    +0.033 C 
ATOM     13  C   UNL     1      85.883  57.558  44.429  0.00  0.00    +0.305 C 
ATOM     14  O   UNL     1      85.784  58.470  43.561  0.00  0.00    -0.251 OA
ENDBRANCH  11  13
ENDBRANCH   1  11
BRANCH   5  15
ATOM     15  C   UNL     1      86.723  51.450  43.423  0.00  0.00    +0.128 C 
BRANCH  15  16
ATOM     16  O   UNL     1      86.620  51.161  42.028  0.00  0.00    -0.458 OA
BRANCH  16  17
ATOM     17  C   UNL     1      87.709  50.793  41.223  0.00  0.00    +0.339 C 
ATOM     18  O   UNL     1      87.970  51.442  40.169  0.00  0.00    -0.245 OA
BRANCH  17  19
ATOM     19  C   UNL     1      88.552  49.643  41.613  0.00  0.00    +0.059 A 
ATOM     20  C   UNL     1      89.901  49.829  41.979  0.00  0.00    -0.048 A 
ATOM     21  C   UNL     1      90.695  48.733  42.335  0.00  0.00    -0.061 A 
ATOM     22  C   UNL     1      90.154  47.444  42.328  0.00  0.00    -0.062 A 
ATOM     23  C   UNL     1      88.818  47.249  41.967  0.00  0.00    -0.061 A 
ATOM     24  C   UNL     1      88.018  48.340  41.611  0.00  0.00    -0.048 A 
ENDBRANCH  17  19
ENDBRANCH  16  17
ENDBRANCH  15  16
ENDBRANCH   5  15
BRANCH   4  25
ATOM     25  O   UNL     1      83.790  51.679  43.347  0.00  0.00    -0.451 OA
BRANCH  25  26
ATOM     26  C   UNL     1      82.651  51.300  42.621  0.00  0.00    +0.340 C 
ATOM     27  O   UNL     1      82.360  51.890  41.544  0.00  0.00    -0.245 OA
BRANCH  26  28
ATOM     28  C   UNL     1      81.796  50.202  43.118  0.00  0.00    +0.059 A 
ATOM     29  C   UNL     1      82.372  49.001  43.572  0.00  0.00    -0.048 A 
ATOM     30  C   UNL     1      81.561  47.957  44.030  0.00  0.00    -0.061 A 
ATOM     31  C   UNL     1      80.172  48.100  44.040  0.00  0.00    -0.062 A 
ATOM     32  C   UNL     1      79.590  49.288  43.594  0.00  0.00    -0.061 A 
ATOM     33  C   UNL     1      80.395  50.336  43.135  0.00  0.00    -0.048 A 
ENDBRANCH  26  28
ENDBRANCH  25  26
ENDBRANCH   4  25
TORSDOF 11
ENDMDL
MODEL 7
REMARK VINA RESULT:    -8.798      3.782      6.953
REMARK INTER + INTRA:         -15.200
REMARK INTER:                 -13.535
REMARK INTRA:                  -1.665
REMARK UNBOUND:                -1.259
REMARK  Name = 
REMARK  12 active torsions:
REMARK  status: ('A' for Active; 'I' for Inactive)
REMARK    1  A    between atoms: C_1  and  C_2
REMARK    2  A    between atoms: C_2  and  O_4
REMARK    3  A    between atoms: O_4  and  C_5
REMARK    4  A    between atoms: C_8  and  O_23
REMARK    5  A    between atoms: C_9  and  O_12
REMARK    6  A    between atoms: C_9  and  C_13
REMARK    7  A    between atoms: C_10  and  O_11
REMARK    8  A    between atoms: C_13  and  O_14
REMARK    9  A    between atoms: O_14  and  C_15
REMARK   10  A    between atoms: C_15  and  C_17
REMARK   11  A    between atoms: O_23  and  C_24
REMARK   12  A    between atoms: C_24  and  C_26
REMARK                            x       y       z     vdW  Elec       q    Type
REMARK                         _______ _______ _______ _____ _____    ______ ____
ROOT
ATOM      1  C   UNL     1      85.992  53.052  42.457  0.00  0.00    +0.150 C 
ATOM      2  C   UNL     1      84.638  52.589  41.969  0.00  0.00    -0.042 C 
ATOM      3  C   UNL     1      84.021  51.519  42.486  0.00  0.00    -0.041 C 
ATOM      4  C   UNL     1      84.611  50.789  43.659  0.00  0.00    +0.156 C 
ATOM      5  C   UNL     1      85.217  51.812  44.660  0.00  0.00    +0.170 C 
ATOM      6  C   UNL     1      86.330  52.652  43.936  0.00  0.00    +0.131 C 
ENDROOT
BRANCH   6   7
ATOM      7  O   UNL     1      87.545  51.929  43.926  0.00  0.00    -0.385 OA
ATOM      8  H   UNL     1      87.810  51.755  43.010  0.00  0.00    +0.000 HD
ENDBRANCH   6   7
BRANCH   5   9
ATOM      9  O   UNL     1      84.195  52.657  45.151  0.00  0.00    -0.379 OA
ATOM     10  H   UNL     1      84.590  53.473  45.498  0.00  0.00    +0.000 HD
ENDBRANCH   5   9
BRANCH   1  11
ATOM     11  O   UNL     1      86.082  54.473  42.286  0.00  0.00    -0.455 OA
BRANCH  11  13
ATOM     12  C   UNL     1      84.163  55.691  43.343  0.00  0.00    +0.033 C 
ATOM     13  C   UNL     1      84.960  55.303  42.139  0.00  0.00    +0.305 C 
ATOM     14  O   UNL     1      84.626  55.742  41.004  0.00  0.00    -0.251 OA
ENDBRANCH  11  13
ENDBRANCH   1  11
BRANCH   5  15
ATOM     15  C   UNL     1      85.810  51.068  45.886  0.00  0.00    +0.128 C 
BRANCH  15  16
ATOM     16  O   UNL     1      86.542  51.962  46.727  0.00  0.00    -0.458 OA
BRANCH  16  17
ATOM     17  C   UNL     1      86.040  52.498  47.923  0.00  0.00    +0.339 C 
ATOM     18  O   UNL     1      86.172  51.864  49.008  0.00  0.00    -0.245 OA
BRANCH  17  19
ATOM     19  C   UNL     1      85.359  53.810  47.907  0.00  0.00    +0.059 A 
ATOM     20  C   UNL     1      84.106  53.978  48.532  0.00  0.00    -0.048 A 
ATOM     21  C   UNL     1      83.462  55.221  48.501  0.00  0.00    -0.061 A 
ATOM     22  C   UNL     1      84.058  56.303  47.849  0.00  0.00    -0.062 A 
ATOM     23  C   UNL     1      85.300  56.147  47.227  0.00  0.00    -0.061 A 
ATOM     24  C   UNL     1      85.950  54.908  47.254  0.00  0.00    -0.048 A 
ENDBRANCH  17  19
ENDBRANCH  16  17
ENDBRANCH  15  16
ENDBRANCH   5  15
BRANCH   4  25
ATOM     25  O   UNL     1      83.581  50.013  44.280  0.00  0.00    -0.451 OA
BRANCH  25  26
ATOM     26  C   UNL     1      83.356  48.655  44.014  0.00  0.00    +0.340 C 
ATOM     27  O   UNL     1      84.324  47.892  43.740  0.00  0.00    -0.245 OA
BRANCH  26  28
ATOM     28  C   UNL     1      81.980  48.116  44.062  0.00  0.00    +0.059 A 
ATOM     29  C   UNL     1      80.879  48.986  44.165  0.00  0.00    -0.048 A 
ATOM     30  C   UNL     1      79.578  48.475  44.224  0.00  0.00    -0.061 A 
ATOM     31  C   UNL     1      79.363  47.096  44.180  0.00  0.00    -0.062 A 
ATOM     32  C   UNL     1      80.449  46.223  44.075  0.00  0.00    -0.061 A 
ATOM     33  C   UNL     1      81.752  46.728  44.016  0.00  0.00    -0.048 A 
ENDBRANCH  26  28
ENDBRANCH  25  26
ENDBRANCH   4  25
TORSDOF 11
ENDMDL
MODEL 8
REMARK VINA RESULT:    -8.796      2.829      3.950
REMARK INTER + INTRA:         -15.198
REMARK INTER:                 -13.840
REMARK INTRA:                  -1.357
REMARK UNBOUND:                -1.259
REMARK  Name = 
REMARK  12 active torsions:
REMARK  status: ('A' for Active; 'I' for Inactive)
REMARK    1  A    between atoms: C_1  and  C_2
REMARK    2  A    between atoms: C_2  and  O_4
REMARK    3  A    between atoms: O_4  and  C_5
REMARK    4  A    between atoms: C_8  and  O_23
REMARK    5  A    between atoms: C_9  and  O_12
REMARK    6  A    between atoms: C_9  and  C_13
REMARK    7  A    between atoms: C_10  and  O_11
REMARK    8  A    between atoms: C_13  and  O_14
REMARK    9  A    between atoms: O_14  and  C_15
REMARK   10  A    between atoms: C_15  and  C_17
REMARK   11  A    between atoms: O_23  and  C_24
REMARK   12  A    between atoms: C_24  and  C_26
REMARK                            x       y       z     vdW  Elec       q    Type
REMARK                         _______ _______ _______ _____ _____    ______ ____
ROOT
ATOM      1  C   UNL     1      82.927  54.450  41.389  0.00  0.00    +0.150 C 
ATOM      2  C   UNL     1      83.528  55.538  42.251  0.00  0.00    -0.042 C 
ATOM      3  C   UNL     1      84.301  55.264  43.309  0.00  0.00    -0.041 C 
ATOM      4  C   UNL     1      84.692  53.848  43.625  0.00  0.00    +0.156 C 
ATOM      5  C   UNL     1      84.998  53.084  42.307  0.00  0.00    +0.170 C 
ATOM      6  C   UNL     1      83.721  53.098  41.389  0.00  0.00    +0.131 C 
ENDROOT
BRANCH   6   7
ATOM      7  O   UNL     1      82.835  52.071  41.788  0.00  0.00    -0.385 OA
ATOM      8  H   UNL     1      81.938  52.282  41.485  0.00  0.00    +0.000 HD
ENDBRANCH   6   7
BRANCH   5   9
ATOM      9  O   UNL     1      86.090  53.694  41.648  0.00  0.00    -0.379 OA
ATOM     10  H   UNL     1      86.149  53.357  40.740  0.00  0.00    +0.000 HD
ENDBRANCH   5   9
BRANCH   1  11
ATOM     11  O   UNL     1      82.782  54.950  40.053  0.00  0.00    -0.455 OA
BRANCH  11  13
ATOM     12  C   UNL     1      83.578  56.091  37.968  0.00  0.00    +0.033 C 
ATOM     13  C   UNL     1      83.839  55.513  39.322  0.00  0.00    +0.305 C 
ATOM     14  O   UNL     1      85.007  55.553  39.801  0.00  0.00    -0.251 OA
ENDBRANCH  11  13
ENDBRANCH   1  11
BRANCH   5  15
ATOM     15  C   UNL     1      85.423  51.626  42.623  0.00  0.00    +0.128 C 
BRANCH  15  16
ATOM     16  O   UNL     1      84.570  51.043  43.610  0.00  0.00    -0.458 OA
BRANCH  16  17
ATOM     17  C   UNL     1      84.551  49.674  43.916  0.00  0.00    +0.339 C 
ATOM     18  O   UNL     1      85.628  49.065  44.175  0.00  0.00    -0.245 OA
BRANCH  17  19
ATOM     19  C   UNL     1      83.264  48.946  43.937  0.00  0.00    +0.059 A 
ATOM     20  C   UNL     1      83.199  47.586  43.573  0.00  0.00    -0.048 A 
ATOM     21  C   UNL     1      81.974  46.909  43.583  0.00  0.00    -0.061 A 
ATOM     22  C   UNL     1      80.805  47.580  43.954  0.00  0.00    -0.062 A 
ATOM     23  C   UNL     1      80.859  48.929  44.316  0.00  0.00    -0.061 A 
ATOM     24  C   UNL     1      82.080  49.612  44.309  0.00  0.00    -0.048 A 
ENDBRANCH  17  19
ENDBRANCH  16  17
ENDBRANCH  15  16
ENDBRANCH   5  15
BRANCH   4  25
ATOM     25  O   UNL     1      85.837  53.870  44.482  0.00  0.00    -0.451 OA
BRANCH  25  26
ATOM     26  C   UNL     1      86.011  54.781  45.533  0.00  0.00    +0.340 C 
ATOM     27  O   UNL     1      86.775  55.777  45.391  0.00  0.00    -0.245 OA
BRANCH  26  28
ATOM     28  C   UNL     1      85.291  54.578  46.808  0.00  0.00    +0.059 A 
ATOM     29  C   UNL     1      84.307  55.494  47.223  0.00  0.00    -0.048 A 
ATOM     30  C   UNL     1      83.635  55.308  48.436  0.00  0.00    -0.061 A 
ATOM     31  C   UNL     1      83.937  54.209  49.244  0.00  0.00    -0.062 A 
ATOM     32  C   UNL     1      84.911  53.293  48.841  0.00  0.00    -0.061 A 
ATOM     33  C   UNL     1      85.586  53.473  47.629  0.00  0.00    -0.048 A 
ENDBRANCH  26  28
ENDBRANCH  25  26
ENDBRANCH   4  25
TORSDOF 11
ENDMDL
MODEL 9
REMARK VINA RESULT:    -8.781      2.733      5.664
REMARK INTER + INTRA:         -15.173
REMARK INTER:                 -14.311
REMARK INTRA:                  -0.861
REMARK UNBOUND:                -1.259
REMARK  Name = 
REMARK  12 active torsions:
REMARK  status: ('A' for Active; 'I' for Inactive)
REMARK    1  A    between atoms: C_1  and  C_2
REMARK    2  A    between atoms: C_2  and  O_4
REMARK    3  A    between atoms: O_4  and  C_5
REMARK    4  A    between atoms: C_8  and  O_23
REMARK    5  A    between atoms: C_9  and  O_12
REMARK    6  A    between atoms: C_9  and  C_13
REMARK    7  A    between atoms: C_10  and  O_11
REMARK    8  A    between atoms: C_13  and  O_14
REMARK    9  A    between atoms: O_14  and  C_15
REMARK   10  A    between atoms: C_15  and  C_17
REMARK   11  A    between atoms: O_23  and  C_24
REMARK   12  A    between atoms: C_24  and  C_26
REMARK                            x       y       z     vdW  Elec       q    Type
REMARK                         _______ _______ _______ _____ _____    ______ ____
ROOT
ATOM      1  C   UNL     1      85.359  55.854  43.395  0.00  0.00    +0.150 C 
ATOM      2  C   UNL     1      83.928  55.745  42.918  0.00  0.00    -0.042 C 
ATOM      3  C   UNL     1      83.492  54.697  42.208  0.00  0.00    -0.041 C 
ATOM      4  C   UNL     1      84.392  53.523  41.944  0.00  0.00    +0.156 C 
ATOM      5  C   UNL     1      85.238  53.218  43.211  0.00  0.00    +0.170 C 
ATOM      6  C   UNL     1      86.097  54.482  43.580  0.00  0.00    +0.131 C 
ENDROOT
BRANCH   6   7
ATOM      7  O   UNL     1      87.271  54.509  42.792  0.00  0.00    -0.385 OA
ATOM      8  H   UNL     1      88.017  54.809  43.332  0.00  0.00    +0.000 HD
ENDBRANCH   6   7
BRANCH   5   9
ATOM      9  O   UNL     1      84.382  52.869  44.281  0.00  0.00    -0.379 OA
ATOM     10  H   UNL     1      84.169  51.924  44.230  0.00  0.00    +0.000 HD
ENDBRANCH   5   9
BRANCH   1  11
ATOM     11  O   UNL     1      85.381  56.605  44.616  0.00  0.00    -0.455 OA
BRANCH  11  13
ATOM     12  C   UNL     1      84.570  58.701  45.727  0.00  0.00    +0.033 C 
ATOM     13  C   UNL     1      85.352  58.008  44.658  0.00  0.00    +0.305 C 
ATOM     14  O   UNL     1      85.995  58.693  43.814  0.00  0.00    -0.251 OA
ENDBRANCH  11  13
ENDBRANCH   1  11
BRANCH   5  15
ATOM     15  C   UNL     1      86.156  51.994  42.956  0.00  0.00    +0.128 C 
BRANCH  15  16
ATOM     16  O   UNL     1      87.291  52.010  43.823  0.00  0.00    -0.458 OA
BRANCH  16  17
ATOM     17  C   UNL     1      87.566  51.012  44.770  0.00  0.00    +0.339 C 
ATOM     18  O   UNL     1      88.154  49.948  44.420  0.00  0.00    -0.245 OA
BRANCH  17  19
ATOM     19  C   UNL     1      87.167  51.209  46.179  0.00  0.00    +0.059 A 
ATOM     20  C   UNL     1      86.427  52.346  46.567  0.00  0.00    -0.048 A 
ATOM     21  C   UNL     1      86.065  52.531  47.906  0.00  0.00    -0.061 A 
ATOM     22  C   UNL     1      86.435  51.589  48.869  0.00  0.00    -0.062 A 
ATOM     23  C   UNL     1      87.169  50.458  48.496  0.00  0.00    -0.061 A 
ATOM     24  C   UNL     1      87.534  50.267  47.159  0.00  0.00    -0.048 A 
ENDBRANCH  17  19
ENDBRANCH  16  17
ENDBRANCH  15  16
ENDBRANCH   5  15
BRANCH   4  25
ATOM     25  O   UNL     1      83.583  52.398  41.585  0.00  0.00    -0.451 OA
BRANCH  25  26
ATOM     26  C   UNL     1      82.232  52.262  41.935  0.00  0.00    +0.340 C 
ATOM     27  O   UNL     1      81.391  53.132  41.575  0.00  0.00    -0.245 OA
BRANCH  26  28
ATOM     28  C   UNL     1      81.793  51.090  42.722  0.00  0.00    +0.059 A 
ATOM     29  C   UNL     1      82.741  50.236  43.317  0.00  0.00    -0.048 A 
ATOM     30  C   UNL     1      82.325  49.120  44.050  0.00  0.00    -0.061 A 
ATOM     31  C   UNL     1      80.963  48.845  44.198  0.00  0.00    -0.062 A 
ATOM     32  C   UNL     1      80.014  49.687  43.614  0.00  0.00    -0.061 A 
ATOM     33  C   UNL     1      80.424  50.805  42.880  0.00  0.00    -0.048 A 
ENDBRANCH  26  28
ENDBRANCH  25  26
ENDBRANCH   4  25
TORSDOF 11
ENDMDL
