MODEL 1
REMARK VINA RESULT:    -7.723      0.000      0.000
REMARK INTER + INTRA:         -13.208
REMARK INTER:                 -11.788
REMARK INTRA:                  -1.420
REMARK UNBOUND:                -1.648
REMARK  Name = 
REMARK  11 active torsions:
REMARK  status: ('A' for Active; 'I' for Inactive)
REMARK    1  A    between atoms: O_1  and  C_2
REMARK    2  A    between atoms: C_6  and  C_12
REMARK    3  A    between atoms: C_7  and  O_8
REMARK    4  A    between atoms: O_8  and  C_9
REMARK    5  A    between atoms: C_9  and  C_11
REMARK    6  A    between atoms: C_12  and  O_13
REMARK    7  A    between atoms: C_12  and  O_17
REMARK    8  A    between atoms: O_13  and  C_14
REMARK    9  A    between atoms: C_14  and  C_16
REMARK   10  A    between atoms: O_17  and  C_18
REMARK   11  A    between atoms: C_18  and  C_20
REMARK                            x       y       z     vdW  Elec       q    Type
REMARK                         _______ _______ _______ _____ _____    ______ ____
ROOT
ATOM      1  C   UNL     1      86.256  54.522  43.136  0.00  0.00    +0.276 C 
ENDROOT
BRANCH   1   6
ATOM      2  C   UNL     1      84.874  55.023  46.771  0.00  0.00    +0.115 C 
ATOM      3  C   UNL     1      84.259  53.658  46.922  0.00  0.00    -0.052 C 
ATOM      4  C   UNL     1      84.500  52.701  46.023  0.00  0.00    -0.063 C 
ATOM      5  C   UNL     1      85.258  52.998  44.797  0.00  0.00    -0.052 C 
ATOM      6  C   UNL     1      85.551  54.263  44.449  0.00  0.00    +0.053 C 
ATOM      7  C   UNL     1      85.006  55.418  45.279  0.00  0.00    +0.160 C 
BRANCH   2   8
ATOM      8  O   UNL     1      84.079  55.956  47.454  0.00  0.00    -0.384 OA
ATOM      9  H   UNL     1      84.107  56.807  46.988  0.00  0.00    +0.000 HD
ENDBRANCH   2   8
BRANCH   7  10
ATOM     10  O   UNL     1      85.875  56.548  45.163  0.00  0.00    -0.454 OA
BRANCH  10  11
ATOM     11  C   UNL     1      85.458  57.814  44.739  0.00  0.00    +0.305 C 
ATOM     12  O   UNL     1      85.797  58.266  43.612  0.00  0.00    -0.251 OA
ATOM     13  C   UNL     1      84.652  58.664  45.661  0.00  0.00    +0.033 C 
ENDBRANCH  10  11
ENDBRANCH   7  10
ENDBRANCH   1   6
BRANCH   1  14
ATOM     14  O   UNL     1      85.360  55.200  42.257  0.00  0.00    -0.421 OA
BRANCH  14  15
ATOM     15  C   UNL     1      84.711  54.563  41.195  0.00  0.00    +0.307 C 
ATOM     16  O   UNL     1      85.220  54.547  40.041  0.00  0.00    -0.251 OA
ATOM     17  C   UNL     1      83.375  53.942  41.420  0.00  0.00    +0.033 C 
ENDBRANCH  14  15
ENDBRANCH   1  14
BRANCH   1  18
ATOM     18  O   UNL     1      86.657  53.287  42.542  0.00  0.00    -0.417 OA
BRANCH  18  19
ATOM     19  C   UNL     1      87.991  52.952  42.282  0.00  0.00    +0.342 C 
ATOM     20  O   UNL     1      88.782  53.816  41.811  0.00  0.00    -0.245 OA
BRANCH  19  21
ATOM     21  C   UNL     1      88.471  51.580  42.557  0.00  0.00    +0.059 A 
ATOM     22  C   UNL     1      89.426  50.980  41.716  0.00  0.00    -0.048 A 
ATOM     23  C   UNL     1      89.879  49.682  41.972  0.00  0.00    -0.061 A 
ATOM     24  C   UNL     1      89.385  48.971  43.068  0.00  0.00    -0.062 A 
ATOM     25  C   UNL     1      88.436  49.556  43.910  0.00  0.00    -0.061 A 
ATOM     26  C   UNL     1      87.979  50.854  43.657  0.00  0.00    -0.048 A 
ENDBRANCH  19  21
ENDBRANCH  18  19
ENDBRANCH   1  18
TORSDOF 9
ENDMDL
MODEL 2
REMARK VINA RESULT:    -7.636      3.960      7.259
REMARK INTER + INTRA:         -13.078
REMARK INTER:                 -11.281
REMARK INTRA:                  -1.797
REMARK UNBOUND:                -1.648
REMARK  Name = 
REMARK  11 active torsions:
REMARK  status: ('A' for Active; 'I' for Inactive)
REMARK    1  A    between atoms: O_1  and  C_2
REMARK    2  A    between atoms: C_6  and  C_12
REMARK    3  A    between atoms: C_7  and  O_8
REMARK    4  A    between atoms: O_8  and  C_9
REMARK    5  A    between atoms: C_9  and  C_11
REMARK    6  A    between atoms: C_12  and  O_13
REMARK    7  A    between atoms: C_12  and  O_17
REMARK    8  A    between atoms: O_13  and  C_14
REMARK    9  A    between atoms: C_14  and  C_16
REMARK   10  A    between atoms: O_17  and  C_18
REMARK   11  A    between atoms: C_18  and  C_20
REMARK                            x       y       z     vdW  Elec       q    Type
REMARK                         _______ _______ _______ _____ _____    ______ ____
ROOT
ATOM      1  C   UNL     1      87.240  48.839  42.681  0.00  0.00    +0.276 C 
ENDROOT
BRANCH   1   6
ATOM      2  C   UNL     1      85.418  45.904  44.536  0.00  0.00    +0.115 C 
ATOM      3  C   UNL     1      86.133  44.777  43.841  0.00  0.00    -0.052 C 
ATOM      4  C   UNL     1      87.193  45.020  43.067  0.00  0.00    -0.063 C 
ATOM      5  C   UNL     1      87.602  46.402  42.767  0.00  0.00    -0.052 C 
ATOM      6  C   UNL     1      86.816  47.445  43.087  0.00  0.00    +0.053 C 
ATOM      7  C   UNL     1      85.435  47.194  43.679  0.00  0.00    +0.160 C 
BRANCH   2   8
ATOM      8  O   UNL     1      84.097  45.510  44.797  0.00  0.00    -0.384 OA
ATOM      9  H   UNL     1      84.088  44.590  45.105  0.00  0.00    +0.000 HD
ENDBRANCH   2   8
BRANCH   7  10
ATOM     10  O   UNL     1      85.048  48.307  44.489  0.00  0.00    -0.454 OA
BRANCH  10  11
ATOM     11  C   UNL     1      83.823  48.971  44.370  0.00  0.00    +0.305 C 
ATOM     12  O   UNL     1      82.736  48.333  44.367  0.00  0.00    -0.251 OA
ATOM     13  C   UNL     1      83.809  50.450  44.182  0.00  0.00    +0.033 C 
ENDBRANCH  10  11
ENDBRANCH   7  10
ENDBRANCH   1   6
BRANCH   1  14
ATOM     14  O   UNL     1      88.119  48.747  41.562  0.00  0.00    -0.421 OA
BRANCH  14  15
ATOM     15  C   UNL     1      89.380  49.349  41.535  0.00  0.00    +0.307 C 
ATOM     16  O   UNL     1      89.530  50.515  41.075  0.00  0.00    -0.251 OA
ATOM     17  C   UNL     1      90.569  48.584  42.006  0.00  0.00    +0.033 C 
ENDBRANCH  14  15
ENDBRANCH   1  14
BRANCH   1  18
ATOM     18  O   UNL     1      87.917  49.482  43.762  0.00  0.00    -0.417 OA
BRANCH  18  19
ATOM     19  C   UNL     1      87.576  50.753  44.241  0.00  0.00    +0.342 C 
ATOM     20  O   UNL     1      87.556  51.741  43.456  0.00  0.00    -0.245 OA
BRANCH  19  21
ATOM     21  C   UNL     1      87.244  50.934  45.670  0.00  0.00    +0.059 A 
ATOM     22  C   UNL     1      86.535  52.072  46.095  0.00  0.00    -0.048 A 
ATOM     23  C   UNL     1      86.221  52.247  47.447  0.00  0.00    -0.061 A 
ATOM     24  C   UNL     1      86.611  51.291  48.387  0.00  0.00    -0.062 A 
ATOM     25  C   UNL     1      87.317  50.156  47.977  0.00  0.00    -0.061 A 
ATOM     26  C   UNL     1      87.634  49.977  46.626  0.00  0.00    -0.048 A 
ENDBRANCH  19  21
ENDBRANCH  18  19
ENDBRANCH   1  18
TORSDOF 9
ENDMDL
MODEL 3
REMARK VINA RESULT:    -7.584      3.490      7.410
REMARK INTER + INTRA:         -13.001
REMARK INTER:                 -11.311
REMARK INTRA:                  -1.689
REMARK UNBOUND:                -1.648
REMARK  Name = 
REMARK  11 active torsions:
REMARK  status: ('A' for Active; 'I' for Inactive)
REMARK    1  A    between atoms: O_1  and  C_2
REMARK    2  A    between atoms: C_6  and  C_12
REMARK    3  A    between atoms: C_7  and  O_8
REMARK    4  A    between atoms: O_8  and  C_9
REMARK    5  A    between atoms: C_9  and  C_11
REMARK    6  A    between atoms: C_12  and  O_13
REMARK    7  A    between atoms: C_12  and  O_17
REMARK    8  A    between atoms: O_13  and  C_14
REMARK    9  A    between atoms: C_14  and  C_16
REMARK   10  A    between atoms: O_17  and  C_18
REMARK   11  A    between atoms: C_18  and  C_20
REMARK                            x       y       z     vdW  Elec       q    Type
REMARK                         _______ _______ _______ _____ _____    ______ ____
ROOT
ATOM      1  C   UNL     1      87.881  50.272  41.685  0.00  0.00    +0.276 C 
ENDROOT
BRANCH   1   6
ATOM      2  C   UNL     1      89.234  46.757  42.775  0.00  0.00    +0.115 C 
ATOM      3  C   UNL     1      90.650  47.184  43.052  0.00  0.00    -0.052 C 
ATOM      4  C   UNL     1      90.976  48.477  43.077  0.00  0.00    -0.063 C 
ATOM      5  C   UNL     1      89.994  49.507  42.701  0.00  0.00    -0.052 C 
ATOM      6  C   UNL     1      88.821  49.174  42.133  0.00  0.00    +0.053 C 
ATOM      7  C   UNL     1      88.541  47.720  41.779  0.00  0.00    +0.160 C 
BRANCH   2   8
ATOM      8  O   UNL     1      89.247  45.451  42.261  0.00  0.00    -0.384 OA
ATOM      9  H   UNL     1      88.400  45.018  42.456  0.00  0.00    +0.000 HD
ENDBRANCH   2   8
BRANCH   7  10
ATOM     10  O   UNL     1      87.130  47.483  41.793  0.00  0.00    -0.454 OA
BRANCH  10  11
ATOM     11  C   UNL     1      86.450  46.885  42.858  0.00  0.00    +0.305 C 
ATOM     12  O   UNL     1      86.207  45.648  42.862  0.00  0.00    -0.251 OA
ATOM     13  C   UNL     1      85.950  47.737  43.975  0.00  0.00    +0.033 C 
ENDBRANCH  10  11
ENDBRANCH   7  10
ENDBRANCH   1   6
BRANCH   1  14
ATOM     14  O   UNL     1      88.318  50.766  40.421  0.00  0.00    -0.421 OA
BRANCH  14  15
ATOM     15  C   UNL     1      88.523  52.126  40.165  0.00  0.00    +0.307 C 
ATOM     16  O   UNL     1      87.593  52.844  39.707  0.00  0.00    -0.251 OA
ATOM     17  C   UNL     1      89.872  52.718  40.388  0.00  0.00    +0.033 C 
ENDBRANCH  14  15
ENDBRANCH   1  14
BRANCH   1  18
ATOM     18  O   UNL     1      87.884  51.338  42.635  0.00  0.00    -0.417 OA
BRANCH  18  19
ATOM     19  C   UNL     1      86.781  51.664  43.435  0.00  0.00    +0.342 C 
ATOM     20  O   UNL     1      85.721  52.100  42.905  0.00  0.00    -0.245 OA
BRANCH  19  21
ATOM     21  C   UNL     1      86.863  51.498  44.901  0.00  0.00    +0.059 A 
ATOM     22  C   UNL     1      87.625  50.453  45.456  0.00  0.00    -0.048 A 
ATOM     23  C   UNL     1      87.702  50.292  46.843  0.00  0.00    -0.061 A 
ATOM     24  C   UNL     1      87.022  51.169  47.690  0.00  0.00    -0.062 A 
ATOM     25  C   UNL     1      86.261  52.210  47.151  0.00  0.00    -0.061 A 
ATOM     26  C   UNL     1      86.179  52.375  45.764  0.00  0.00    -0.048 A 
ENDBRANCH  19  21
ENDBRANCH  18  19
ENDBRANCH   1  18
TORSDOF 9
ENDMDL
MODEL 4
REMARK VINA RESULT:    -7.516      1.641      5.410
REMARK INTER + INTRA:         -12.899
REMARK INTER:                 -11.256
REMARK INTRA:                  -1.642
REMARK UNBOUND:                -1.648
REMARK  Name = 
REMARK  11 active torsions:
REMARK  status: ('A' for Active; 'I' for Inactive)
REMARK    1  A    between atoms: O_1  and  C_2
REMARK    2  A    between atoms: C_6  and  C_12
REMARK    3  A    between atoms: C_7  and  O_8
REMARK    4  A    between atoms: O_8  and  C_9
REMARK    5  A    between atoms: C_9  and  C_11
REMARK    6  A    between atoms: C_12  and  O_13
REMARK    7  A    between atoms: C_12  and  O_17
REMARK    8  A    between atoms: O_13  and  C_14
REMARK    9  A    between atoms: C_14  and  C_16
REMARK   10  A    between atoms: O_17  and  C_18
REMARK   11  A    between atoms: C_18  and  C_20
REMARK                            x       y       z     vdW  Elec       q    Type
REMARK                         _______ _______ _______ _____ _____    ______ ____
ROOT
ATOM      1  C   UNL     1      86.281  55.566  43.864  0.00  0.00    +0.276 C 
ENDROOT
BRANCH   1   6
ATOM      2  C   UNL     1      86.662  51.969  45.379  0.00  0.00    +0.115 C 
ATOM      3  C   UNL     1      86.402  52.347  46.812  0.00  0.00    -0.052 C 
ATOM      4  C   UNL     1      85.954  53.564  47.123  0.00  0.00    -0.063 C 
ATOM      5  C   UNL     1      85.832  54.606  46.090  0.00  0.00    -0.052 C 
ATOM      6  C   UNL     1      86.355  54.433  44.863  0.00  0.00    +0.053 C 
ATOM      7  C   UNL     1      87.171  53.183  44.561  0.00  0.00    +0.160 C 
BRANCH   2   8
ATOM      8  O   UNL     1      87.606  50.931  45.348  0.00  0.00    -0.384 OA
ATOM      9  H   UNL     1      87.268  50.172  45.848  0.00  0.00    +0.000 HD
ENDBRANCH   2   8
BRANCH   7  10
ATOM     10  O   UNL     1      87.094  52.881  43.166  0.00  0.00    -0.454 OA
BRANCH  10  11
ATOM     11  C   UNL     1      88.210  52.731  42.336  0.00  0.00    +0.305 C 
ATOM     12  O   UNL     1      88.770  53.733  41.814  0.00  0.00    -0.251 OA
ATOM     13  C   UNL     1      88.703  51.362  42.016  0.00  0.00    +0.033 C 
ENDBRANCH  10  11
ENDBRANCH   7  10
ENDBRANCH   1   6
BRANCH   1  14
ATOM     14  O   UNL     1      86.687  56.773  44.505  0.00  0.00    -0.421 OA
BRANCH  14  15
ATOM     15  C   UNL     1      85.909  57.935  44.499  0.00  0.00    +0.307 C 
ATOM     16  O   UNL     1      85.885  58.693  43.491  0.00  0.00    -0.251 OA
ATOM     17  C   UNL     1      85.142  58.309  45.721  0.00  0.00    +0.033 C 
ENDBRANCH  14  15
ENDBRANCH   1  14
BRANCH   1  18
ATOM     18  O   UNL     1      84.943  55.712  43.385  0.00  0.00    -0.417 OA
BRANCH  18  19
ATOM     19  C   UNL     1      84.475  55.117  42.207  0.00  0.00    +0.342 C 
ATOM     20  O   UNL     1      84.960  55.454  41.090  0.00  0.00    -0.245 OA
BRANCH  19  21
ATOM     21  C   UNL     1      83.409  54.095  42.274  0.00  0.00    +0.059 A 
ATOM     22  C   UNL     1      83.610  52.907  43.000  0.00  0.00    -0.048 A 
ATOM     23  C   UNL     1      82.604  51.937  43.063  0.00  0.00    -0.061 A 
ATOM     24  C   UNL     1      81.390  52.142  42.404  0.00  0.00    -0.062 A 
ATOM     25  C   UNL     1      81.180  53.317  41.679  0.00  0.00    -0.061 A 
ATOM     26  C   UNL     1      82.182  54.290  41.612  0.00  0.00    -0.048 A 
ENDBRANCH  19  21
ENDBRANCH  18  19
ENDBRANCH   1  18
TORSDOF 9
ENDMDL
MODEL 5
REMARK VINA RESULT:    -7.506      3.013      6.506
REMARK INTER + INTRA:         -12.884
REMARK INTER:                 -11.348
REMARK INTRA:                  -1.536
REMARK UNBOUND:                -1.648
REMARK  Name = 
REMARK  11 active torsions:
REMARK  status: ('A' for Active; 'I' for Inactive)
REMARK    1  A    between atoms: O_1  and  C_2
REMARK    2  A    between atoms: C_6  and  C_12
REMARK    3  A    between atoms: C_7  and  O_8
REMARK    4  A    between atoms: O_8  and  C_9
REMARK    5  A    between atoms: C_9  and  C_11
REMARK    6  A    between atoms: C_12  and  O_13
REMARK    7  A    between atoms: C_12  and  O_17
REMARK    8  A    between atoms: O_13  and  C_14
REMARK    9  A    between atoms: C_14  and  C_16
REMARK   10  A    between atoms: O_17  and  C_18
REMARK   11  A    between atoms: C_18  and  C_20
REMARK                            x       y       z     vdW  Elec       q    Type
REMARK                         _______ _______ _______ _____ _____    ______ ____
ROOT
ATOM      1  C   UNL     1      87.166  52.707  41.578  0.00  0.00    +0.276 C 
ENDROOT
BRANCH   1   6
ATOM      2  C   UNL     1      87.397  50.181  44.568  0.00  0.00    +0.115 C 
ATOM      3  C   UNL     1      87.296  51.197  45.673  0.00  0.00    -0.052 C 
ATOM      4  C   UNL     1      86.972  52.463  45.404  0.00  0.00    -0.063 C 
ATOM      5  C   UNL     1      86.842  52.925  44.012  0.00  0.00    -0.052 C 
ATOM      6  C   UNL     1      87.239  52.154  42.984  0.00  0.00    +0.053 C 
ATOM      7  C   UNL     1      87.926  50.823  43.261  0.00  0.00    +0.160 C 
BRANCH   2   8
ATOM      8  O   UNL     1      88.250  49.146  44.981  0.00  0.00    -0.384 OA
ATOM      9  H   UNL     1      87.740  48.328  45.085  0.00  0.00    +0.000 HD
ENDBRANCH   2   8
BRANCH   7  10
ATOM     10  O   UNL     1      87.702  49.928  42.168  0.00  0.00    -0.454 OA
BRANCH  10  11
ATOM     11  C   UNL     1      88.642  48.997  41.716  0.00  0.00    +0.305 C 
ATOM     12  O   UNL     1      88.286  47.856  41.316  0.00  0.00    -0.251 OA
ATOM     13  C   UNL     1      90.092  49.340  41.767  0.00  0.00    +0.033 C 
ENDBRANCH  10  11
ENDBRANCH   7  10
ENDBRANCH   1   6
BRANCH   1  14
ATOM     14  O   UNL     1      88.459  53.172  41.197  0.00  0.00    -0.421 OA
BRANCH  14  15
ATOM     15  C   UNL     1      89.137  52.695  40.071  0.00  0.00    +0.307 C 
ATOM     16  O   UNL     1      88.688  51.717  39.412  0.00  0.00    -0.251 OA
ATOM     17  C   UNL     1      90.434  53.316  39.678  0.00  0.00    +0.033 C 
ENDBRANCH  14  15
ENDBRANCH   1  14
BRANCH   1  18
ATOM     18  O   UNL     1      86.238  53.792  41.524  0.00  0.00    -0.417 OA
BRANCH  18  19
ATOM     19  C   UNL     1      85.142  53.830  40.654  0.00  0.00    +0.342 C 
ATOM     20  O   UNL     1      85.305  54.151  39.443  0.00  0.00    -0.245 OA
BRANCH  19  21
ATOM     21  C   UNL     1      83.793  53.495  41.157  0.00  0.00    +0.059 A 
ATOM     22  C   UNL     1      82.720  54.382  40.955  0.00  0.00    -0.048 A 
ATOM     23  C   UNL     1      81.443  54.070  41.433  0.00  0.00    -0.061 A 
ATOM     24  C   UNL     1      81.224  52.872  42.116  0.00  0.00    -0.062 A 
ATOM     25  C   UNL     1      82.282  51.983  42.323  0.00  0.00    -0.061 A 
ATOM     26  C   UNL     1      83.561  52.291  41.848  0.00  0.00    -0.048 A 
ENDBRANCH  19  21
ENDBRANCH  18  19
ENDBRANCH   1  18
TORSDOF 9
ENDMDL
MODEL 6
REMARK VINA RESULT:    -7.503      2.790      6.126
REMARK INTER + INTRA:         -12.879
REMARK INTER:                 -11.241
REMARK INTRA:                  -1.638
REMARK UNBOUND:                -1.648
REMARK  Name = 
REMARK  11 active torsions:
REMARK  status: ('A' for Active; 'I' for Inactive)
REMARK    1  A    between atoms: O_1  and  C_2
REMARK    2  A    between atoms: C_6  and  C_12
REMARK    3  A    between atoms: C_7  and  O_8
REMARK    4  A    between atoms: O_8  and  C_9
REMARK    5  A    between atoms: C_9  and  C_11
REMARK    6  A    between atoms: C_12  and  O_13
REMARK    7  A    between atoms: C_12  and  O_17
REMARK    8  A    between atoms: O_13  and  C_14
REMARK    9  A    between atoms: C_14  and  C_16
REMARK   10  A    between atoms: O_17  and  C_18
REMARK   11  A    between atoms: C_18  and  C_20
REMARK                            x       y       z     vdW  Elec       q    Type
REMARK                         _______ _______ _______ _____ _____    ______ ____
ROOT
ATOM      1  C   UNL     1      86.546  51.006  43.223  0.00  0.00    +0.276 C 
ENDROOT
BRANCH   1   6
ATOM      2  C   UNL     1      85.316  53.775  40.733  0.00  0.00    +0.115 C 
ATOM      3  C   UNL     1      83.842  53.509  40.880  0.00  0.00    -0.052 C 
ATOM      4  C   UNL     1      83.390  52.694  41.834  0.00  0.00    -0.063 C 
ATOM      5  C   UNL     1      84.327  51.932  42.675  0.00  0.00    -0.052 C 
ATOM      6  C   UNL     1      85.638  51.873  42.379  0.00  0.00    +0.053 C 
ATOM      7  C   UNL     1      86.151  52.523  41.101  0.00  0.00    +0.160 C 
BRANCH   2   8
ATOM      8  O   UNL     1      85.577  54.163  39.410  0.00  0.00    -0.384 OA
ATOM      9  H   UNL     1      86.273  53.598  39.039  0.00  0.00    +0.000 HD
ENDBRANCH   2   8
BRANCH   7  10
ATOM     10  O   UNL     1      87.521  52.899  41.267  0.00  0.00    -0.454 OA
BRANCH  10  11
ATOM     11  C   UNL     1      88.560  52.443  40.450  0.00  0.00    +0.305 C 
ATOM     12  O   UNL     1      88.353  51.576  39.557  0.00  0.00    -0.251 OA
ATOM     13  C   UNL     1      89.944  52.946  40.680  0.00  0.00    +0.033 C 
ENDBRANCH  10  11
ENDBRANCH   7  10
ENDBRANCH   1   6
BRANCH   1  14
ATOM     14  O   UNL     1      86.629  49.712  42.630  0.00  0.00    -0.421 OA
BRANCH  14  15
ATOM     15  C   UNL     1      87.812  49.197  42.092  0.00  0.00    +0.307 C 
ATOM     16  O   UNL     1      87.785  48.405  41.110  0.00  0.00    -0.251 OA
ATOM     17  C   UNL     1      89.117  49.548  42.720  0.00  0.00    +0.033 C 
ENDBRANCH  14  15
ENDBRANCH   1  14
BRANCH   1  18
ATOM     18  O   UNL     1      86.021  50.887  44.546  0.00  0.00    -0.417 OA
BRANCH  18  19
ATOM     19  C   UNL     1      86.741  51.230  45.697  0.00  0.00    +0.342 C 
ATOM     20  O   UNL     1      87.647  50.464  46.129  0.00  0.00    -0.245 OA
BRANCH  19  21
ATOM     21  C   UNL     1      86.435  52.490  46.406  0.00  0.00    +0.059 A 
ATOM     22  C   UNL     1      86.622  53.729  45.765  0.00  0.00    -0.048 A 
ATOM     23  C   UNL     1      86.336  54.923  46.435  0.00  0.00    -0.061 A 
ATOM     24  C   UNL     1      85.860  54.894  47.748  0.00  0.00    -0.062 A 
ATOM     25  C   UNL     1      85.671  53.670  48.395  0.00  0.00    -0.061 A 
ATOM     26  C   UNL     1      85.957  52.473  47.730  0.00  0.00    -0.048 A 
ENDBRANCH  19  21
ENDBRANCH  18  19
ENDBRANCH   1  18
TORSDOF 9
ENDMDL
MODEL 7
REMARK VINA RESULT:    -7.427      1.942      5.980
REMARK INTER + INTRA:         -12.766
REMARK INTER:                 -11.036
REMARK INTRA:                  -1.730
REMARK UNBOUND:                -1.648
REMARK  Name = 
REMARK  11 active torsions:
REMARK  status: ('A' for Active; 'I' for Inactive)
REMARK    1  A    between atoms: O_1  and  C_2
REMARK    2  A    between atoms: C_6  and  C_12
REMARK    3  A    between atoms: C_7  and  O_8
REMARK    4  A    between atoms: O_8  and  C_9
REMARK    5  A    between atoms: C_9  and  C_11
REMARK    6  A    between atoms: C_12  and  O_13
REMARK    7  A    between atoms: C_12  and  O_17
REMARK    8  A    between atoms: O_13  and  C_14
REMARK    9  A    between atoms: C_14  and  C_16
REMARK   10  A    between atoms: O_17  and  C_18
REMARK   11  A    between atoms: C_18  and  C_20
REMARK                            x       y       z     vdW  Elec       q    Type
REMARK                         _______ _______ _______ _____ _____    ______ ____
ROOT
ATOM      1  C   UNL     1      86.539  53.137  42.299  0.00  0.00    +0.276 C 
ENDROOT
BRANCH   1   6
ATOM      2  C   UNL     1      88.668  49.966  43.186  0.00  0.00    +0.115 C 
ATOM      3  C   UNL     1      89.733  50.163  42.141  0.00  0.00    -0.052 C 
ATOM      4  C   UNL     1      89.801  51.300  41.447  0.00  0.00    -0.063 C 
ATOM      5  C   UNL     1      88.758  52.330  41.589  0.00  0.00    -0.052 C 
ATOM      6  C   UNL     1      87.617  52.076  42.254  0.00  0.00    +0.053 C 
ATOM      7  C   UNL     1      87.350  50.675  42.786  0.00  0.00    +0.160 C 
BRANCH   2   8
ATOM      8  O   UNL     1      88.449  48.590  43.356  0.00  0.00    -0.384 OA
ATOM      9  H   UNL     1      89.269  48.107  43.170  0.00  0.00    +0.000 HD
ENDBRANCH   2   8
BRANCH   7  10
ATOM     10  O   UNL     1      86.485  50.746  43.923  0.00  0.00    -0.454 OA
BRANCH  10  11
ATOM     11  C   UNL     1      86.922  50.619  45.245  0.00  0.00    +0.305 C 
ATOM     12  O   UNL     1      86.807  49.527  45.865  0.00  0.00    -0.251 OA
ATOM     13  C   UNL     1      87.475  51.811  45.949  0.00  0.00    +0.033 C 
ENDBRANCH  10  11
ENDBRANCH   7  10
ENDBRANCH   1   6
BRANCH   1  14
ATOM     14  O   UNL     1      86.209  53.516  40.964  0.00  0.00    -0.421 OA
BRANCH  14  15
ATOM     15  C   UNL     1      84.891  53.642  40.513  0.00  0.00    +0.307 C 
ATOM     16  O   UNL     1      84.641  54.125  39.375  0.00  0.00    -0.251 OA
ATOM     17  C   UNL     1      83.769  53.249  41.412  0.00  0.00    +0.033 C 
ENDBRANCH  14  15
ENDBRANCH   1  14
BRANCH   1  18
ATOM     18  O   UNL     1      87.006  54.282  43.014  0.00  0.00    -0.417 OA
BRANCH  18  19
ATOM     19  C   UNL     1      86.156  55.199  43.644  0.00  0.00    +0.342 C 
ATOM     20  O   UNL     1      85.732  56.207  43.013  0.00  0.00    -0.245 OA
BRANCH  19  21
ATOM     21  C   UNL     1      85.759  54.984  45.052  0.00  0.00    +0.059 A 
ATOM     22  C   UNL     1      84.742  54.067  45.371  0.00  0.00    -0.048 A 
ATOM     23  C   UNL     1      84.362  53.864  46.701  0.00  0.00    -0.061 A 
ATOM     24  C   UNL     1      84.994  54.572  47.726  0.00  0.00    -0.062 A 
ATOM     25  C   UNL     1      86.006  55.486  47.422  0.00  0.00    -0.061 A 
ATOM     26  C   UNL     1      86.388  55.694  46.093  0.00  0.00    -0.048 A 
ENDBRANCH  19  21
ENDBRANCH  18  19
ENDBRANCH   1  18
TORSDOF 9
ENDMDL
MODEL 8
REMARK VINA RESULT:    -7.327      2.478      5.476
REMARK INTER + INTRA:         -12.616
REMARK INTER:                 -10.804
REMARK INTRA:                  -1.812
REMARK UNBOUND:                -1.648
REMARK  Name = 
REMARK  11 active torsions:
REMARK  status: ('A' for Active; 'I' for Inactive)
REMARK    1  A    between atoms: O_1  and  C_2
REMARK    2  A    between atoms: C_6  and  C_12
REMARK    3  A    between atoms: C_7  and  O_8
REMARK    4  A    between atoms: O_8  and  C_9
REMARK    5  A    between atoms: C_9  and  C_11
REMARK    6  A    between atoms: C_12  and  O_13
REMARK    7  A    between atoms: C_12  and  O_17
REMARK    8  A    between atoms: O_13  and  C_14
REMARK    9  A    between atoms: C_14  and  C_16
REMARK   10  A    between atoms: O_17  and  C_18
REMARK   11  A    between atoms: C_18  and  C_20
REMARK                            x       y       z     vdW  Elec       q    Type
REMARK                         _______ _______ _______ _____ _____    ______ ____
ROOT
ATOM      1  C   UNL     1      84.318  52.663  43.587  0.00  0.00    +0.276 C 
ENDROOT
BRANCH   1   6
ATOM      2  C   UNL     1      84.641  54.759  40.289  0.00  0.00    +0.115 C 
ATOM      3  C   UNL     1      83.169  54.879  40.004  0.00  0.00    -0.052 C 
ATOM      4  C   UNL     1      82.268  54.506  40.915  0.00  0.00    -0.063 C 
ATOM      5  C   UNL     1      82.690  53.845  42.160  0.00  0.00    -0.052 C 
ATOM      6  C   UNL     1      83.954  53.415  42.326  0.00  0.00    +0.053 C 
ATOM      7  C   UNL     1      84.944  53.523  41.174  0.00  0.00    +0.160 C 
BRANCH   2   8
ATOM      8  O   UNL     1      85.332  54.666  39.071  0.00  0.00    -0.384 OA
ATOM      9  H   UNL     1      84.850  54.078  38.469  0.00  0.00    +0.000 HD
ENDBRANCH   2   8
BRANCH   7  10
ATOM     10  O   UNL     1      86.275  53.622  41.688  0.00  0.00    -0.454 OA
BRANCH  10  11
ATOM     11  C   UNL     1      87.334  52.809  41.274  0.00  0.00    +0.305 C 
ATOM     12  O   UNL     1      87.635  52.705  40.054  0.00  0.00    -0.251 OA
ATOM     13  C   UNL     1      88.077  52.007  42.287  0.00  0.00    +0.033 C 
ENDBRANCH  10  11
ENDBRANCH   7  10
ENDBRANCH   1   6
BRANCH   1  14
ATOM     14  O   UNL     1      83.237  51.802  43.939  0.00  0.00    -0.421 OA
BRANCH  14  15
ATOM     15  C   UNL     1      83.303  50.411  43.814  0.00  0.00    +0.307 C 
ATOM     16  O   UNL     1      82.364  49.765  43.272  0.00  0.00    -0.251 OA
ATOM     17  C   UNL     1      84.473  49.679  44.377  0.00  0.00    +0.033 C 
ENDBRANCH  14  15
ENDBRANCH   1  14
BRANCH   1  18
ATOM     18  O   UNL     1      84.556  53.582  44.655  0.00  0.00    -0.417 OA
BRANCH  18  19
ATOM     19  C   UNL     1      85.798  53.728  45.286  0.00  0.00    +0.342 C 
ATOM     20  O   UNL     1      86.557  54.689  44.977  0.00  0.00    -0.245 OA
BRANCH  19  21
ATOM     21  C   UNL     1      86.218  52.751  46.313  0.00  0.00    +0.059 A 
ATOM     22  C   UNL     1      87.168  51.761  46.004  0.00  0.00    -0.048 A 
ATOM     23  C   UNL     1      87.565  50.834  46.973  0.00  0.00    -0.061 A 
ATOM     24  C   UNL     1      87.020  50.886  48.258  0.00  0.00    -0.062 A 
ATOM     25  C   UNL     1      86.075  51.865  48.577  0.00  0.00    -0.061 A 
ATOM     26  C   UNL     1      85.674  52.793  47.611  0.00  0.00    -0.048 A 
ENDBRANCH  19  21
ENDBRANCH  18  19
ENDBRANCH   1  18
TORSDOF 9
ENDMDL
MODEL 9
REMARK VINA RESULT:    -7.256      2.791      6.317
REMARK INTER + INTRA:         -12.509
REMARK INTER:                 -10.861
REMARK INTRA:                  -1.648
REMARK UNBOUND:                -1.648
REMARK  Name = 
REMARK  11 active torsions:
REMARK  status: ('A' for Active; 'I' for Inactive)
REMARK    1  A    between atoms: O_1  and  C_2
REMARK    2  A    between atoms: C_6  and  C_12
REMARK    3  A    between atoms: C_7  and  O_8
REMARK    4  A    between atoms: O_8  and  C_9
REMARK    5  A    between atoms: C_9  and  C_11
REMARK    6  A    between atoms: C_12  and  O_13
REMARK    7  A    between atoms: C_12  and  O_17
REMARK    8  A    between atoms: O_13  and  C_14
REMARK    9  A    between atoms: C_14  and  C_16
REMARK   10  A    between atoms: O_17  and  C_18
REMARK   11  A    between atoms: C_18  and  C_20
REMARK                            x       y       z     vdW  Elec       q    Type
REMARK                         _______ _______ _______ _____ _____    ______ ____
ROOT
ATOM      1  C   UNL     1      85.031  50.503  44.413  0.00  0.00    +0.276 C 
ENDROOT
BRANCH   1   6
ATOM      2  C   UNL     1      83.241  52.809  41.794  0.00  0.00    +0.115 C 
ATOM      3  C   UNL     1      81.932  52.068  41.765  0.00  0.00    -0.052 C 
ATOM      4  C   UNL     1      81.671  51.113  42.658  0.00  0.00    -0.063 C 
ATOM      5  C   UNL     1      82.707  50.668  43.605  0.00  0.00    -0.052 C 
ATOM      6  C   UNL     1      83.988  51.056  43.467  0.00  0.00    +0.053 C 
ATOM      7  C   UNL     1      84.398  51.888  42.259  0.00  0.00    +0.160 C 
BRANCH   2   8
ATOM      8  O   UNL     1      83.506  53.313  40.512  0.00  0.00    -0.384 OA
ATOM      9  H   UNL     1      84.341  52.942  40.185  0.00  0.00    +0.000 HD
ENDBRANCH   2   8
BRANCH   7  10
ATOM     10  O   UNL     1      85.538  52.687  42.587  0.00  0.00    -0.454 OA
BRANCH  10  11
ATOM     11  C   UNL     1      86.680  52.784  41.786  0.00  0.00    +0.305 C 
ATOM     12  O   UNL     1      86.620  53.278  40.627  0.00  0.00    -0.251 OA
ATOM     13  C   UNL     1      87.972  52.237  42.287  0.00  0.00    +0.033 C 
ENDBRANCH  10  11
ENDBRANCH   7  10
ENDBRANCH   1   6
BRANCH   1  14
ATOM     14  O   UNL     1      84.710  49.147  44.713  0.00  0.00    -0.421 OA
BRANCH  14  15
ATOM     15  C   UNL     1      85.553  48.078  44.397  0.00  0.00    +0.307 C 
ATOM     16  O   UNL     1      85.322  46.919  44.838  0.00  0.00    -0.251 OA
ATOM     17  C   UNL     1      86.769  48.324  43.571  0.00  0.00    +0.033 C 
ENDBRANCH  14  15
ENDBRANCH   1  14
BRANCH   1  18
ATOM     18  O   UNL     1      85.050  51.264  45.622  0.00  0.00    -0.417 OA
BRANCH  18  19
ATOM     19  C   UNL     1      86.037  52.210  45.925  0.00  0.00    +0.342 C 
ATOM     20  O   UNL     1      87.255  51.939  45.732  0.00  0.00    -0.245 OA
BRANCH  19  21
ATOM     21  C   UNL     1      85.649  53.525  46.476  0.00  0.00    +0.059 A 
ATOM     22  C   UNL     1      84.371  53.712  47.035  0.00  0.00    -0.048 A 
ATOM     23  C   UNL     1      84.000  54.956  47.554  0.00  0.00    -0.061 A 
ATOM     24  C   UNL     1      84.898  56.026  47.521  0.00  0.00    -0.062 A 
ATOM     25  C   UNL     1      86.169  55.853  46.968  0.00  0.00    -0.061 A 
ATOM     26  C   UNL     1      86.545  54.610  46.447  0.00  0.00    -0.048 A 
ENDBRANCH  19  21
ENDBRANCH  18  19
ENDBRANCH   1  18
TORSDOF 9
ENDMDL
