MODEL 1
REMARK VINA RESULT:    -8.120      0.000      0.000
REMARK INTER + INTRA:         -13.126
REMARK INTER:                 -12.362
REMARK INTRA:                  -0.763
REMARK UNBOUND:                -1.208
REMARK  Name = 
REMARK  10 active torsions:
REMARK  status: ('A' for Active; 'I' for Inactive)
REMARK    1  A    between atoms: C_1  and  C_2
REMARK    2  A    between atoms: C_2  and  O_4
REMARK    3  A    between atoms: O_4  and  C_5
REMARK    4  A    between atoms: C_6  and  O_7
REMARK    5  A    between atoms: O_7  and  C_8
REMARK    6  A    between atoms: C_8  and  C_10
REMARK    7  A    between atoms: C_15  and  C_16
REMARK    8  A    between atoms: C_16  and  O_17
REMARK    9  A    between atoms: O_17  and  C_18
REMARK   10  A    between atoms: C_18  and  C_20
REMARK                            x       y       z     vdW  Elec       q    Type
REMARK                         _______ _______ _______ _____ _____    ______ ____
ROOT
ATOM      1  C   UNL     1      84.312  54.727  41.565  0.00  0.00    +0.177 C 
ATOM      2  C   UNL     1      84.330  53.185  41.430  0.00  0.00    +0.171 C 
ATOM      3  C   UNL     1      85.706  52.556  41.712  0.00  0.00    +0.128 C 
ATOM      4  O   UNL     1      86.789  53.409  41.413  0.00  0.00    -0.362 OA
ATOM      5  C   UNL     1      86.542  53.156  42.781  0.00  0.00    +0.118 C 
ATOM      6  C   UNL     1      85.989  54.375  43.539  0.00  0.00    +0.124 C 
ATOM      7  C   UNL     1      84.889  55.169  42.924  0.00  0.00    +0.172 C 
ATOM      8  O   UNL     1      86.238  55.581  42.849  0.00  0.00    -0.354 OA
ENDROOT
BRANCH   1   9
ATOM      9  O   UNL     1      85.038  55.347  40.500  0.00  0.00    -0.455 OA
BRANCH   9  11
ATOM     10  C   UNL     1      82.993  55.581  39.090  0.00  0.00    +0.033 C 
ATOM     11  C   UNL     1      84.435  55.855  39.344  0.00  0.00    +0.304 C 
ATOM     12  O   UNL     1      85.109  56.492  38.491  0.00  0.00    -0.251 OA
ENDBRANCH   9  11
ENDBRANCH   1   9
BRANCH   2  13
ATOM     13  O   UNL     1      83.389  52.605  42.332  0.00  0.00    -0.455 OA
BRANCH  13  14
ATOM     14  C   UNL     1      82.047  52.373  42.010  0.00  0.00    +0.304 C 
ATOM     15  O   UNL     1      81.318  53.302  41.568  0.00  0.00    -0.251 OA
ATOM     16  C   UNL     1      81.490  50.996  42.139  0.00  0.00    +0.033 C 
ENDBRANCH  13  14
ENDBRANCH   2  13
BRANCH   7  17
ATOM     17  C   UNL     1      84.064  56.083  43.830  0.00  0.00    +0.128 C 
BRANCH  17  18
ATOM     18  O   UNL     1      84.898  57.125  44.324  0.00  0.00    -0.458 OA
BRANCH  18  19
ATOM     19  C   UNL     1      84.969  57.467  45.679  0.00  0.00    +0.339 C 
ATOM     20  O   UNL     1      85.139  58.670  46.019  0.00  0.00    -0.245 OA
BRANCH  19  21
ATOM     21  C   UNL     1      84.848  56.410  46.706  0.00  0.00    +0.059 A 
ATOM     22  C   UNL     1      83.661  56.262  47.449  0.00  0.00    -0.048 A 
ATOM     23  C   UNL     1      83.555  55.261  48.420  0.00  0.00    -0.061 A 
ATOM     24  C   UNL     1      84.628  54.401  48.660  0.00  0.00    -0.062 A 
ATOM     25  C   UNL     1      85.810  54.539  47.930  0.00  0.00    -0.061 A 
ATOM     26  C   UNL     1      85.923  55.537  46.958  0.00  0.00    -0.048 A 
ENDBRANCH  19  21
ENDBRANCH  18  19
ENDBRANCH  17  18
ENDBRANCH   7  17
TORSDOF 8
ENDMDL
MODEL 2
REMARK VINA RESULT:    -7.948      1.723      4.010
REMARK INTER + INTRA:         -12.873
REMARK INTER:                 -11.370
REMARK INTRA:                  -1.504
REMARK UNBOUND:                -1.208
REMARK  Name = 
REMARK  10 active torsions:
REMARK  status: ('A' for Active; 'I' for Inactive)
REMARK    1  A    between atoms: C_1  and  C_2
REMARK    2  A    between atoms: C_2  and  O_4
REMARK    3  A    between atoms: O_4  and  C_5
REMARK    4  A    between atoms: C_6  and  O_7
REMARK    5  A    between atoms: O_7  and  C_8
REMARK    6  A    between atoms: C_8  and  C_10
REMARK    7  A    between atoms: C_15  and  C_16
REMARK    8  A    between atoms: C_16  and  O_17
REMARK    9  A    between atoms: O_17  and  C_18
REMARK   10  A    between atoms: C_18  and  C_20
REMARK                            x       y       z     vdW  Elec       q    Type
REMARK                         _______ _______ _______ _____ _____    ______ ____
ROOT
ATOM      1  C   UNL     1      85.023  54.074  43.327  0.00  0.00    +0.177 C 
ATOM      2  C   UNL     1      85.868  53.219  42.352  0.00  0.00    +0.171 C 
ATOM      3  C   UNL     1      85.230  53.054  40.961  0.00  0.00    +0.128 C 
ATOM      4  O   UNL     1      83.821  53.111  40.977  0.00  0.00    -0.362 OA
ATOM      5  C   UNL     1      84.492  54.209  40.391  0.00  0.00    +0.118 C 
ATOM      6  C   UNL     1      84.401  55.498  41.225  0.00  0.00    +0.124 C 
ATOM      7  C   UNL     1      84.649  55.428  42.692  0.00  0.00    +0.172 C 
ATOM      8  O   UNL     1      83.341  55.449  42.157  0.00  0.00    -0.354 OA
ENDROOT
BRANCH   1   9
ATOM      9  O   UNL     1      83.840  53.379  43.731  0.00  0.00    -0.455 OA
BRANCH   9  11
ATOM     10  C   UNL     1      84.553  51.995  45.681  0.00  0.00    +0.033 C 
ATOM     11  C   UNL     1      83.854  52.135  44.372  0.00  0.00    +0.304 C 
ATOM     12  O   UNL     1      83.330  51.124  43.833  0.00  0.00    -0.251 OA
ENDBRANCH   9  11
ENDBRANCH   1   9
BRANCH   2  13
ATOM     13  O   UNL     1      87.156  53.809  42.176  0.00  0.00    -0.455 OA
BRANCH  13  14
ATOM     14  C   UNL     1      88.334  53.068  42.022  0.00  0.00    +0.304 C 
ATOM     15  O   UNL     1      89.364  53.590  41.515  0.00  0.00    -0.251 OA
ATOM     16  C   UNL     1      88.385  51.662  42.514  0.00  0.00    +0.033 C 
ENDBRANCH  13  14
ENDBRANCH   2  13
BRANCH   7  17
ATOM     17  C   UNL     1      84.982  56.723  43.432  0.00  0.00    +0.128 C 
BRANCH  17  18
ATOM     18  O   UNL     1      85.715  56.410  44.611  0.00  0.00    -0.458 OA
BRANCH  18  19
ATOM     19  C   UNL     1      85.366  56.894  45.877  0.00  0.00    +0.339 C 
ATOM     20  O   UNL     1      85.321  58.137  46.088  0.00  0.00    -0.245 OA
BRANCH  19  21
ATOM     21  C   UNL     1      85.054  55.940  46.962  0.00  0.00    +0.059 A 
ATOM     22  C   UNL     1      86.014  55.006  47.398  0.00  0.00    -0.048 A 
ATOM     23  C   UNL     1      85.709  54.107  48.424  0.00  0.00    -0.061 A 
ATOM     24  C   UNL     1      84.448  54.128  49.024  0.00  0.00    -0.062 A 
ATOM     25  C   UNL     1      83.488  55.048  48.599  0.00  0.00    -0.061 A 
ATOM     26  C   UNL     1      83.786  55.951  47.574  0.00  0.00    -0.048 A 
ENDBRANCH  19  21
ENDBRANCH  18  19
ENDBRANCH  17  18
ENDBRANCH   7  17
TORSDOF 8
ENDMDL
MODEL 3
REMARK VINA RESULT:    -7.767      2.062      4.211
REMARK INTER + INTRA:         -12.608
REMARK INTER:                 -10.954
REMARK INTRA:                  -1.654
REMARK UNBOUND:                -1.208
REMARK  Name = 
REMARK  10 active torsions:
REMARK  status: ('A' for Active; 'I' for Inactive)
REMARK    1  A    between atoms: C_1  and  C_2
REMARK    2  A    between atoms: C_2  and  O_4
REMARK    3  A    between atoms: O_4  and  C_5
REMARK    4  A    between atoms: C_6  and  O_7
REMARK    5  A    between atoms: O_7  and  C_8
REMARK    6  A    between atoms: C_8  and  C_10
REMARK    7  A    between atoms: C_15  and  C_16
REMARK    8  A    between atoms: C_16  and  O_17
REMARK    9  A    between atoms: O_17  and  C_18
REMARK   10  A    between atoms: C_18  and  C_20
REMARK                            x       y       z     vdW  Elec       q    Type
REMARK                         _______ _______ _______ _____ _____    ______ ____
ROOT
ATOM      1  C   UNL     1      84.741  53.683  43.253  0.00  0.00    +0.177 C 
ATOM      2  C   UNL     1      85.531  53.277  41.985  0.00  0.00    +0.171 C 
ATOM      3  C   UNL     1      84.910  53.798  40.676  0.00  0.00    +0.128 C 
ATOM      4  O   UNL     1      83.511  53.963  40.742  0.00  0.00    -0.362 OA
ATOM      5  C   UNL     1      84.285  55.144  40.688  0.00  0.00    +0.118 C 
ATOM      6  C   UNL     1      84.287  55.936  42.008  0.00  0.00    +0.124 C 
ATOM      7  C   UNL     1      84.496  55.204  43.288  0.00  0.00    +0.172 C 
ATOM      8  O   UNL     1      83.207  55.571  42.841  0.00  0.00    -0.354 OA
ENDROOT
BRANCH   1   9
ATOM      9  O   UNL     1      83.495  52.985  43.330  0.00  0.00    -0.455 OA
BRANCH   9  11
ATOM     10  C   UNL     1      84.053  50.964  44.683  0.00  0.00    +0.033 C 
ATOM     11  C   UNL     1      83.392  51.601  43.509  0.00  0.00    +0.304 C 
ATOM     12  O   UNL     1      82.795  50.882  42.663  0.00  0.00    -0.251 OA
ENDBRANCH   9  11
ENDBRANCH   1   9
BRANCH   2  13
ATOM     13  O   UNL     1      86.868  53.771  42.064  0.00  0.00    -0.455 OA
BRANCH  13  14
ATOM     14  C   UNL     1      87.994  52.947  42.167  0.00  0.00    +0.304 C 
ATOM     15  O   UNL     1      89.102  53.301  41.680  0.00  0.00    -0.251 OA
ATOM     16  C   UNL     1      87.894  51.659  42.911  0.00  0.00    +0.033 C 
ENDBRANCH  13  14
ENDBRANCH   2  13
BRANCH   7  17
ATOM     17  C   UNL     1      84.924  56.006  44.517  0.00  0.00    +0.128 C 
BRANCH  17  18
ATOM     18  O   UNL     1      84.680  55.231  45.686  0.00  0.00    -0.458 OA
BRANCH  18  19
ATOM     19  C   UNL     1      85.618  55.087  46.714  0.00  0.00    +0.339 C 
ATOM     20  O   UNL     1      86.132  56.107  47.249  0.00  0.00    -0.245 OA
BRANCH  19  21
ATOM     21  C   UNL     1      86.003  53.732  47.165  0.00  0.00    +0.059 A 
ATOM     22  C   UNL     1      85.610  53.257  48.431  0.00  0.00    -0.048 A 
ATOM     23  C   UNL     1      85.980  51.976  48.851  0.00  0.00    -0.061 A 
ATOM     24  C   UNL     1      86.745  51.158  48.016  0.00  0.00    -0.062 A 
ATOM     25  C   UNL     1      87.142  51.619  46.760  0.00  0.00    -0.061 A 
ATOM     26  C   UNL     1      86.775  52.899  46.333  0.00  0.00    -0.048 A 
ENDBRANCH  19  21
ENDBRANCH  18  19
ENDBRANCH  17  18
ENDBRANCH   7  17
TORSDOF 8
ENDMDL
MODEL 4
REMARK VINA RESULT:    -7.687      2.265      4.500
REMARK INTER + INTRA:         -12.490
REMARK INTER:                 -11.229
REMARK INTRA:                  -1.261
REMARK UNBOUND:                -1.208
REMARK  Name = 
REMARK  10 active torsions:
REMARK  status: ('A' for Active; 'I' for Inactive)
REMARK    1  A    between atoms: C_1  and  C_2
REMARK    2  A    between atoms: C_2  and  O_4
REMARK    3  A    between atoms: O_4  and  C_5
REMARK    4  A    between atoms: C_6  and  O_7
REMARK    5  A    between atoms: O_7  and  C_8
REMARK    6  A    between atoms: C_8  and  C_10
REMARK    7  A    between atoms: C_15  and  C_16
REMARK    8  A    between atoms: C_16  and  O_17
REMARK    9  A    between atoms: O_17  and  C_18
REMARK   10  A    between atoms: C_18  and  C_20
REMARK                            x       y       z     vdW  Elec       q    Type
REMARK                         _______ _______ _______ _____ _____    ______ ____
ROOT
ATOM      1  C   UNL     1      85.257  54.295  42.537  0.00  0.00    +0.177 C 
ATOM      2  C   UNL     1      84.602  55.573  41.958  0.00  0.00    +0.171 C 
ATOM      3  C   UNL     1      83.521  55.288  40.899  0.00  0.00    +0.128 C 
ATOM      4  O   UNL     1      83.733  54.090  40.185  0.00  0.00    -0.362 OA
ATOM      5  C   UNL     1      82.649  54.103  41.093  0.00  0.00    +0.118 C 
ATOM      6  C   UNL     1      82.881  53.225  42.335  0.00  0.00    +0.124 C 
ATOM      7  C   UNL     1      84.188  53.308  43.044  0.00  0.00    +0.172 C 
ATOM      8  O   UNL     1      83.903  52.274  42.124  0.00  0.00    -0.354 OA
ENDROOT
BRANCH   1   9
ATOM      9  O   UNL     1      86.091  53.658  41.565  0.00  0.00    -0.455 OA
BRANCH   9  11
ATOM     10  C   UNL     1      87.536  51.624  41.531  0.00  0.00    +0.033 C 
ATOM     11  C   UNL     1      87.318  53.058  41.871  0.00  0.00    +0.304 C 
ATOM     12  O   UNL     1      88.217  53.700  42.478  0.00  0.00    -0.251 OA
ENDBRANCH   9  11
ENDBRANCH   1   9
BRANCH   2  13
ATOM     13  O   UNL     1      83.999  56.331  43.007  0.00  0.00    -0.455 OA
BRANCH  13  14
ATOM     14  C   UNL     1      84.683  57.293  43.759  0.00  0.00    +0.304 C 
ATOM     15  O   UNL     1      85.404  58.161  43.196  0.00  0.00    -0.251 OA
ATOM     16  C   UNL     1      84.511  57.325  45.239  0.00  0.00    +0.033 C 
ENDBRANCH  13  14
ENDBRANCH   2  13
BRANCH   7  17
ATOM     17  C   UNL     1      84.266  52.787  44.479  0.00  0.00    +0.128 C 
BRANCH  17  18
ATOM     18  O   UNL     1      84.704  53.839  45.333  0.00  0.00    -0.458 OA
BRANCH  18  19
ATOM     19  C   UNL     1      85.967  53.857  45.933  0.00  0.00    +0.339 C 
ATOM     20  O   UNL     1      86.731  54.848  45.769  0.00  0.00    -0.245 OA
BRANCH  19  21
ATOM     21  C   UNL     1      86.400  52.709  46.758  0.00  0.00    +0.059 A 
ATOM     22  C   UNL     1      87.287  51.746  46.241  0.00  0.00    -0.048 A 
ATOM     23  C   UNL     1      87.690  50.662  47.028  0.00  0.00    -0.061 A 
ATOM     24  C   UNL     1      87.212  50.527  48.334  0.00  0.00    -0.062 A 
ATOM     25  C   UNL     1      86.331  51.475  48.856  0.00  0.00    -0.061 A 
ATOM     26  C   UNL     1      85.925  52.562  48.075  0.00  0.00    -0.048 A 
ENDBRANCH  19  21
ENDBRANCH  18  19
ENDBRANCH  17  18
ENDBRANCH   7  17
TORSDOF 8
ENDMDL
MODEL 5
REMARK VINA RESULT:    -7.686      2.735      6.293
REMARK INTER + INTRA:         -12.488
REMARK INTER:                 -11.216
REMARK INTRA:                  -1.272
REMARK UNBOUND:                -1.208
REMARK  Name = 
REMARK  10 active torsions:
REMARK  status: ('A' for Active; 'I' for Inactive)
REMARK    1  A    between atoms: C_1  and  C_2
REMARK    2  A    between atoms: C_2  and  O_4
REMARK    3  A    between atoms: O_4  and  C_5
REMARK    4  A    between atoms: C_6  and  O_7
REMARK    5  A    between atoms: O_7  and  C_8
REMARK    6  A    between atoms: C_8  and  C_10
REMARK    7  A    between atoms: C_15  and  C_16
REMARK    8  A    between atoms: C_16  and  O_17
REMARK    9  A    between atoms: O_17  and  C_18
REMARK   10  A    between atoms: C_18  and  C_20
REMARK                            x       y       z     vdW  Elec       q    Type
REMARK                         _______ _______ _______ _____ _____    ______ ____
ROOT
ATOM      1  C   UNL     1      84.919  54.005  42.852  0.00  0.00    +0.177 C 
ATOM      2  C   UNL     1      84.205  55.270  42.316  0.00  0.00    +0.171 C 
ATOM      3  C   UNL     1      84.235  56.459  43.293  0.00  0.00    +0.128 C 
ATOM      4  O   UNL     1      84.292  56.074  44.648  0.00  0.00    -0.362 OA
ATOM      5  C   UNL     1      85.458  56.661  44.108  0.00  0.00    +0.118 C 
ATOM      6  C   UNL     1      86.620  55.668  43.936  0.00  0.00    +0.124 C 
ATOM      7  C   UNL     1      86.348  54.337  43.326  0.00  0.00    +0.172 C 
ATOM      8  O   UNL     1      86.445  54.511  44.725  0.00  0.00    -0.354 OA
ENDROOT
BRANCH   1   9
ATOM      9  O   UNL     1      84.176  53.408  43.919  0.00  0.00    -0.455 OA
BRANCH   9  11
ATOM     10  C   UNL     1      84.841  51.069  44.480  0.00  0.00    +0.033 C 
ATOM     11  C   UNL     1      83.844  52.049  43.965  0.00  0.00    +0.304 C 
ATOM     12  O   UNL     1      82.735  51.640  43.527  0.00  0.00    -0.251 OA
ENDBRANCH   9  11
ENDBRANCH   1   9
BRANCH   2  13
ATOM     13  O   UNL     1      84.812  55.691  41.093  0.00  0.00    -0.455 OA
BRANCH  13  14
ATOM     14  C   UNL     1      84.587  55.066  39.861  0.00  0.00    +0.304 C 
ATOM     15  O   UNL     1      85.345  54.144  39.456  0.00  0.00    -0.251 OA
ATOM     16  C   UNL     1      83.403  55.460  39.045  0.00  0.00    +0.033 C 
ENDBRANCH  13  14
ENDBRANCH   2  13
BRANCH   7  17
ATOM     17  C   UNL     1      87.528  53.542  42.767  0.00  0.00    +0.128 C 
BRANCH  17  18
ATOM     18  O   UNL     1      87.034  52.418  42.047  0.00  0.00    -0.458 OA
BRANCH  18  19
ATOM     19  C   UNL     1      87.863  51.536  41.348  0.00  0.00    +0.339 C 
ATOM     20  O   UNL     1      87.921  51.586  40.088  0.00  0.00    -0.245 OA
BRANCH  19  21
ATOM     21  C   UNL     1      88.668  50.544  42.093  0.00  0.00    +0.059 A 
ATOM     22  C   UNL     1      89.835  49.994  41.528  0.00  0.00    -0.048 A 
ATOM     23  C   UNL     1      90.590  49.057  42.240  0.00  0.00    -0.061 A 
ATOM     24  C   UNL     1      90.189  48.657  43.517  0.00  0.00    -0.062 A 
ATOM     25  C   UNL     1      89.034  49.195  44.086  0.00  0.00    -0.061 A 
ATOM     26  C   UNL     1      88.275  50.134  43.381  0.00  0.00    -0.048 A 
ENDBRANCH  19  21
ENDBRANCH  18  19
ENDBRANCH  17  18
ENDBRANCH   7  17
TORSDOF 8
ENDMDL
MODEL 6
REMARK VINA RESULT:    -7.444      3.135      6.564
REMARK INTER + INTRA:         -12.133
REMARK INTER:                 -10.463
REMARK INTRA:                  -1.670
REMARK UNBOUND:                -1.208
REMARK  Name = 
REMARK  10 active torsions:
REMARK  status: ('A' for Active; 'I' for Inactive)
REMARK    1  A    between atoms: C_1  and  C_2
REMARK    2  A    between atoms: C_2  and  O_4
REMARK    3  A    between atoms: O_4  and  C_5
REMARK    4  A    between atoms: C_6  and  O_7
REMARK    5  A    between atoms: O_7  and  C_8
REMARK    6  A    between atoms: C_8  and  C_10
REMARK    7  A    between atoms: C_15  and  C_16
REMARK    8  A    between atoms: C_16  and  O_17
REMARK    9  A    between atoms: O_17  and  C_18
REMARK   10  A    between atoms: C_18  and  C_20
REMARK                            x       y       z     vdW  Elec       q    Type
REMARK                         _______ _______ _______ _____ _____    ______ ____
ROOT
ATOM      1  C   UNL     1      86.210  53.268  42.923  0.00  0.00    +0.177 C 
ATOM      2  C   UNL     1      85.958  54.666  43.539  0.00  0.00    +0.171 C 
ATOM      3  C   UNL     1      85.009  55.547  42.708  0.00  0.00    +0.128 C 
ATOM      4  O   UNL     1      85.041  55.264  41.327  0.00  0.00    -0.362 OA
ATOM      5  C   UNL     1      83.869  54.889  42.023  0.00  0.00    +0.118 C 
ATOM      6  C   UNL     1      83.707  53.367  42.175  0.00  0.00    +0.124 C 
ATOM      7  C   UNL     1      84.880  52.557  42.607  0.00  0.00    +0.172 C 
ATOM      8  O   UNL     1      84.503  52.658  41.249  0.00  0.00    -0.354 OA
ENDROOT
BRANCH   1   9
ATOM      9  O   UNL     1      87.008  53.363  41.739  0.00  0.00    -0.455 OA
BRANCH   9  11
ATOM     10  C   UNL     1      89.369  52.589  41.518  0.00  0.00    +0.033 C 
ATOM     11  C   UNL     1      87.907  52.372  41.330  0.00  0.00    +0.304 C 
ATOM     12  O   UNL     1      87.500  51.326  40.757  0.00  0.00    -0.251 OA
ENDBRANCH   9  11
ENDBRANCH   1   9
BRANCH   2  13
ATOM     13  O   UNL     1      85.400  54.529  44.846  0.00  0.00    -0.455 OA
BRANCH  13  14
ATOM     14  C   UNL     1      86.167  54.472  46.015  0.00  0.00    +0.304 C 
ATOM     15  O   UNL     1      86.801  53.426  46.321  0.00  0.00    -0.251 OA
ATOM     16  C   UNL     1      86.278  55.682  46.879  0.00  0.00    +0.033 C 
ENDBRANCH  13  14
ENDBRANCH   2  13
BRANCH   7  17
ATOM     17  C   UNL     1      84.625  51.157  43.166  0.00  0.00    +0.128 C 
BRANCH  17  18
ATOM     18  O   UNL     1      85.621  50.855  44.137  0.00  0.00    -0.458 OA
BRANCH  18  19
ATOM     19  C   UNL     1      86.138  49.569  44.324  0.00  0.00    +0.339 C 
ATOM     20  O   UNL     1      85.595  48.782  45.147  0.00  0.00    -0.245 OA
BRANCH  19  21
ATOM     21  C   UNL     1      87.325  49.140  43.553  0.00  0.00    +0.059 A 
ATOM     22  C   UNL     1      87.204  48.207  42.506  0.00  0.00    -0.048 A 
ATOM     23  C   UNL     1      88.331  47.805  41.783  0.00  0.00    -0.061 A 
ATOM     24  C   UNL     1      89.588  48.328  42.097  0.00  0.00    -0.062 A 
ATOM     25  C   UNL     1      89.720  49.253  43.134  0.00  0.00    -0.061 A 
ATOM     26  C   UNL     1      88.597  49.659  43.860  0.00  0.00    -0.048 A 
ENDBRANCH  19  21
ENDBRANCH  18  19
ENDBRANCH  17  18
ENDBRANCH   7  17
TORSDOF 8
ENDMDL
MODEL 7
REMARK VINA RESULT:    -7.412      2.149      3.367
REMARK INTER + INTRA:         -12.087
REMARK INTER:                 -10.803
REMARK INTRA:                  -1.283
REMARK UNBOUND:                -1.208
REMARK  Name = 
REMARK  10 active torsions:
REMARK  status: ('A' for Active; 'I' for Inactive)
REMARK    1  A    between atoms: C_1  and  C_2
REMARK    2  A    between atoms: C_2  and  O_4
REMARK    3  A    between atoms: O_4  and  C_5
REMARK    4  A    between atoms: C_6  and  O_7
REMARK    5  A    between atoms: O_7  and  C_8
REMARK    6  A    between atoms: C_8  and  C_10
REMARK    7  A    between atoms: C_15  and  C_16
REMARK    8  A    between atoms: C_16  and  O_17
REMARK    9  A    between atoms: O_17  and  C_18
REMARK   10  A    between atoms: C_18  and  C_20
REMARK                            x       y       z     vdW  Elec       q    Type
REMARK                         _______ _______ _______ _____ _____    ______ ____
ROOT
ATOM      1  C   UNL     1      84.853  53.234  43.545  0.00  0.00    +0.177 C 
ATOM      2  C   UNL     1      84.418  52.916  42.094  0.00  0.00    +0.171 C 
ATOM      3  C   UNL     1      85.594  52.644  41.140  0.00  0.00    +0.128 C 
ATOM      4  O   UNL     1      86.780  53.316  41.502  0.00  0.00    -0.362 OA
ATOM      5  C   UNL     1      86.770  51.913  41.674  0.00  0.00    +0.118 C 
ATOM      6  C   UNL     1      86.748  51.478  43.149  0.00  0.00    +0.124 C 
ATOM      7  C   UNL     1      85.805  52.149  44.086  0.00  0.00    +0.172 C 
ATOM      8  O   UNL     1      87.168  52.515  44.010  0.00  0.00    -0.354 OA
ENDROOT
BRANCH   1   9
ATOM      9  O   UNL     1      85.479  54.518  43.626  0.00  0.00    -0.455 OA
BRANCH   9  11
ATOM     10  C   UNL     1      84.001  56.482  44.057  0.00  0.00    +0.033 C 
ATOM     11  C   UNL     1      84.890  55.697  43.155  0.00  0.00    +0.304 C 
ATOM     12  O   UNL     1      85.059  56.072  41.964  0.00  0.00    -0.251 OA
ENDBRANCH   9  11
ENDBRANCH   1   9
BRANCH   2  13
ATOM     13  O   UNL     1      83.567  51.769  42.080  0.00  0.00    -0.455 OA
BRANCH  13  14
ATOM     14  C   UNL     1      82.169  51.840  42.123  0.00  0.00    +0.304 C 
ATOM     15  O   UNL     1      81.559  52.844  41.667  0.00  0.00    -0.251 OA
ATOM     16  C   UNL     1      81.394  50.688  42.665  0.00  0.00    +0.033 C 
ENDBRANCH  13  14
ENDBRANCH   2  13
BRANCH   7  17
ATOM     17  C   UNL     1      85.475  51.449  45.404  0.00  0.00    +0.128 C 
BRANCH  17  18
ATOM     18  O   UNL     1      86.385  51.891  46.406  0.00  0.00    -0.458 OA
BRANCH  18  19
ATOM     19  C   UNL     1      85.971  52.394  47.643  0.00  0.00    +0.339 C 
ATOM     20  O   UNL     1      86.167  51.725  48.695  0.00  0.00    -0.245 OA
BRANCH  19  21
ATOM     21  C   UNL     1      85.302  53.711  47.710  0.00  0.00    +0.059 A 
ATOM     22  C   UNL     1      85.942  54.868  47.228  0.00  0.00    -0.048 A 
ATOM     23  C   UNL     1      85.302  56.110  47.296  0.00  0.00    -0.061 A 
ATOM     24  C   UNL     1      84.021  56.209  47.845  0.00  0.00    -0.062 A 
ATOM     25  C   UNL     1      83.377  55.068  48.326  0.00  0.00    -0.061 A 
ATOM     26  C   UNL     1      84.011  53.824  48.261  0.00  0.00    -0.048 A 
ENDBRANCH  19  21
ENDBRANCH  18  19
ENDBRANCH  17  18
ENDBRANCH   7  17
TORSDOF 8
ENDMDL
MODEL 8
REMARK VINA RESULT:    -7.402      2.498      4.124
REMARK INTER + INTRA:         -12.071
REMARK INTER:                 -10.374
REMARK INTRA:                  -1.697
REMARK UNBOUND:                -1.208
REMARK  Name = 
REMARK  10 active torsions:
REMARK  status: ('A' for Active; 'I' for Inactive)
REMARK    1  A    between atoms: C_1  and  C_2
REMARK    2  A    between atoms: C_2  and  O_4
REMARK    3  A    between atoms: O_4  and  C_5
REMARK    4  A    between atoms: C_6  and  O_7
REMARK    5  A    between atoms: O_7  and  C_8
REMARK    6  A    between atoms: C_8  and  C_10
REMARK    7  A    between atoms: C_15  and  C_16
REMARK    8  A    between atoms: C_16  and  O_17
REMARK    9  A    between atoms: O_17  and  C_18
REMARK   10  A    between atoms: C_18  and  C_20
REMARK                            x       y       z     vdW  Elec       q    Type
REMARK                         _______ _______ _______ _____ _____    ______ ____
ROOT
ATOM      1  C   UNL     1      86.210  51.851  42.955  0.00  0.00    +0.177 C 
ATOM      2  C   UNL     1      86.927  50.524  43.304  0.00  0.00    +0.171 C 
ATOM      3  C   UNL     1      87.885  50.030  42.205  0.00  0.00    +0.128 C 
ATOM      4  O   UNL     1      87.509  50.432  40.907  0.00  0.00    -0.362 OA
ATOM      5  C   UNL     1      88.661  51.045  41.450  0.00  0.00    +0.118 C 
ATOM      6  C   UNL     1      88.456  52.528  41.801  0.00  0.00    +0.124 C 
ATOM      7  C   UNL     1      87.226  52.933  42.536  0.00  0.00    +0.172 C 
ATOM      8  O   UNL     1      87.339  53.078  41.135  0.00  0.00    -0.354 OA
ENDROOT
BRANCH   1   9
ATOM      9  O   UNL     1      85.245  51.659  41.917  0.00  0.00    -0.455 OA
BRANCH   9  11
ATOM     10  C   UNL     1      82.975  52.015  42.890  0.00  0.00    +0.033 C 
ATOM     11  C   UNL     1      84.016  52.325  41.869  0.00  0.00    +0.304 C 
ATOM     12  O   UNL     1      83.759  53.142  40.944  0.00  0.00    -0.251 OA
ENDBRANCH   9  11
ENDBRANCH   1   9
BRANCH   2  13
ATOM     13  O   UNL     1      87.680  50.678  44.507  0.00  0.00    -0.455 OA
BRANCH  13  14
ATOM     14  C   UNL     1      87.222  50.270  45.766  0.00  0.00    +0.304 C 
ATOM     15  O   UNL     1      86.560  49.205  45.899  0.00  0.00    -0.251 OA
ATOM     16  C   UNL     1      87.571  51.077  46.969  0.00  0.00    +0.033 C 
ENDBRANCH  13  14
ENDBRANCH   2  13
BRANCH   7  17
ATOM     17  C   UNL     1      87.222  54.284  43.251  0.00  0.00    +0.128 C 
BRANCH  17  18
ATOM     18  O   UNL     1      86.060  55.011  42.865  0.00  0.00    -0.458 OA
BRANCH  18  19
ATOM     19  C   UNL     1      85.043  55.355  43.762  0.00  0.00    +0.339 C 
ATOM     20  O   UNL     1      84.003  55.936  43.346  0.00  0.00    -0.245 OA
BRANCH  19  21
ATOM     21  C   UNL     1      85.197  55.036  45.197  0.00  0.00    +0.059 A 
ATOM     22  C   UNL     1      84.649  53.856  45.735  0.00  0.00    -0.048 A 
ATOM     23  C   UNL     1      84.798  53.562  47.094  0.00  0.00    -0.061 A 
ATOM     24  C   UNL     1      85.491  54.441  47.929  0.00  0.00    -0.062 A 
ATOM     25  C   UNL     1      86.038  55.615  47.407  0.00  0.00    -0.061 A 
ATOM     26  C   UNL     1      85.893  55.914  46.049  0.00  0.00    -0.048 A 
ENDBRANCH  19  21
ENDBRANCH  18  19
ENDBRANCH  17  18
ENDBRANCH   7  17
TORSDOF 8
ENDMDL
MODEL 9
REMARK VINA RESULT:    -7.370      1.890      5.680
REMARK INTER + INTRA:         -12.025
REMARK INTER:                 -10.817
REMARK INTRA:                  -1.208
REMARK UNBOUND:                -1.208
REMARK  Name = 
REMARK  10 active torsions:
REMARK  status: ('A' for Active; 'I' for Inactive)
REMARK    1  A    between atoms: C_1  and  C_2
REMARK    2  A    between atoms: C_2  and  O_4
REMARK    3  A    between atoms: O_4  and  C_5
REMARK    4  A    between atoms: C_6  and  O_7
REMARK    5  A    between atoms: O_7  and  C_8
REMARK    6  A    between atoms: C_8  and  C_10
REMARK    7  A    between atoms: C_15  and  C_16
REMARK    8  A    between atoms: C_16  and  O_17
REMARK    9  A    between atoms: O_17  and  C_18
REMARK   10  A    between atoms: C_18  and  C_20
REMARK                            x       y       z     vdW  Elec       q    Type
REMARK                         _______ _______ _______ _____ _____    ______ ____
ROOT
ATOM      1  C   UNL     1      85.598  54.242  43.750  0.00  0.00    +0.177 C 
ATOM      2  C   UNL     1      85.826  54.635  45.230  0.00  0.00    +0.171 C 
ATOM      3  C   UNL     1      86.272  56.095  45.421  0.00  0.00    +0.128 C 
ATOM      4  O   UNL     1      86.993  56.613  44.325  0.00  0.00    -0.362 OA
ATOM      5  C   UNL     1      85.691  57.125  44.525  0.00  0.00    +0.118 C 
ATOM      6  C   UNL     1      84.684  56.673  43.453  0.00  0.00    +0.124 C 
ATOM      7  C   UNL     1      84.650  55.238  43.054  0.00  0.00    +0.172 C 
ATOM      8  O   UNL     1      85.330  56.210  42.286  0.00  0.00    -0.354 OA
ENDROOT
BRANCH   1   9
ATOM      9  O   UNL     1      86.838  54.168  43.040  0.00  0.00    -0.455 OA
BRANCH   9  11
ATOM     10  C   UNL     1      88.106  52.072  42.566  0.00  0.00    +0.033 C 
ATOM     11  C   UNL     1      87.157  53.141  42.145  0.00  0.00    +0.304 C 
ATOM     12  O   UNL     1      86.696  53.139  40.972  0.00  0.00    -0.251 OA
ENDBRANCH   9  11
ENDBRANCH   1   9
BRANCH   2  13
ATOM     13  O   UNL     1      84.624  54.442  45.977  0.00  0.00    -0.455 OA
BRANCH  13  14
ATOM     14  C   UNL     1      84.591  54.298  47.369  0.00  0.00    +0.304 C 
ATOM     15  O   UNL     1      85.457  53.605  47.968  0.00  0.00    -0.251 OA
ATOM     16  C   UNL     1      83.549  55.019  48.155  0.00  0.00    +0.033 C 
ENDBRANCH  13  14
ENDBRANCH   2  13
BRANCH   7  17
ATOM     17  C   UNL     1      83.404  54.716  42.339  0.00  0.00    +0.128 C 
BRANCH  17  18
ATOM     18  O   UNL     1      83.360  53.298  42.457  0.00  0.00    -0.458 OA
BRANCH  18  19
ATOM     19  C   UNL     1      82.185  52.556  42.299  0.00  0.00    +0.339 C 
ATOM     20  O   UNL     1      81.233  53.018  41.610  0.00  0.00    -0.245 OA
BRANCH  19  21
ATOM     21  C   UNL     1      82.064  51.231  42.944  0.00  0.00    +0.059 A 
ATOM     22  C   UNL     1      80.873  50.487  42.843  0.00  0.00    -0.048 A 
ATOM     23  C   UNL     1      80.768  49.236  43.458  0.00  0.00    -0.061 A 
ATOM     24  C   UNL     1      81.845  48.715  44.179  0.00  0.00    -0.062 A 
ATOM     25  C   UNL     1      83.030  49.445  44.286  0.00  0.00    -0.061 A 
ATOM     26  C   UNL     1      83.143  50.696  43.673  0.00  0.00    -0.048 A 
ENDBRANCH  19  21
ENDBRANCH  18  19
ENDBRANCH  17  18
ENDBRANCH   7  17
TORSDOF 8
ENDMDL
