MODEL 1
REMARK VINA RESULT:    -7.907      0.000      0.000
REMARK INTER + INTRA:         -12.907
REMARK INTER:                 -12.150
REMARK INTRA:                  -0.757
REMARK UNBOUND:                -1.303
REMARK  Name = 
REMARK  10 active torsions:
REMARK  status: ('A' for Active; 'I' for Inactive)
REMARK    1  A    between atoms: C_1  and  C_2
REMARK    2  A    between atoms: C_2  and  O_4
REMARK    3  A    between atoms: O_4  and  C_5
REMARK    4  A    between atoms: C_6  and  O_7
REMARK    5  A    between atoms: O_7  and  C_8
REMARK    6  A    between atoms: C_8  and  C_10
REMARK    7  A    between atoms: C_15  and  C_16
REMARK    8  A    between atoms: C_16  and  O_17
REMARK    9  A    between atoms: O_17  and  C_18
REMARK   10  A    between atoms: C_18  and  C_20
REMARK                            x       y       z     vdW  Elec       q    Type
REMARK                         _______ _______ _______ _____ _____    ______ ____
ROOT
ATOM      1  C   UNL     1      84.371  54.405  41.140  0.00  0.00    +0.177 C 
ATOM      2  C   UNL     1      84.447  52.858  41.155  0.00  0.00    +0.171 C 
ATOM      3  C   UNL     1      85.823  52.311  41.573  0.00  0.00    +0.128 C 
ATOM      4  O   UNL     1      86.893  53.172  41.255  0.00  0.00    -0.362 OA
ATOM      5  C   UNL     1      86.574  53.040  42.625  0.00  0.00    +0.118 C 
ATOM      6  C   UNL     1      85.938  54.303  43.230  0.00  0.00    +0.124 C 
ATOM      7  C   UNL     1      84.851  54.994  42.481  0.00  0.00    +0.172 C 
ATOM      8  O   UNL     1      86.189  55.448  42.442  0.00  0.00    -0.354 OA
ENDROOT
BRANCH   1   9
ATOM      9  O   UNL     1      85.139  54.948  40.063  0.00  0.00    -0.455 OA
BRANCH   9  11
ATOM     10  C   UNL     1      83.154  55.535  38.670  0.00  0.00    +0.033 C 
ATOM     11  C   UNL     1      84.589  55.713  39.028  0.00  0.00    +0.304 C 
ATOM     12  O   UNL     1      85.305  56.509  38.362  0.00  0.00    -0.251 OA
ENDBRANCH   9  11
ENDBRANCH   1   9
BRANCH   2  13
ATOM     13  O   UNL     1      83.472  52.331  42.055  0.00  0.00    -0.455 OA
BRANCH  13  14
ATOM     14  C   UNL     1      82.122  52.164  41.726  0.00  0.00    +0.304 C 
ATOM     15  O   UNL     1      81.440  53.130  41.287  0.00  0.00    -0.251 OA
ATOM     16  C   UNL     1      81.500  50.815  41.843  0.00  0.00    +0.033 C 
ENDBRANCH  13  14
ENDBRANCH   2  13
BRANCH   7  17
ATOM     17  C   UNL     1      83.944  55.957  43.247  0.00  0.00    +0.128 C 
BRANCH  17  18
ATOM     18  O   UNL     1      84.669  57.148  43.535  0.00  0.00    -0.458 OA
BRANCH  18  19
ATOM     19  C   UNL     1      84.858  57.629  44.835  0.00  0.00    +0.339 C 
ATOM     20  O   UNL     1      85.006  58.866  45.036  0.00  0.00    -0.245 OA
BRANCH  19  21
ATOM     21  C   UNL     1      84.885  56.680  45.969  0.00  0.00    +0.059 A 
ATOM     22  C   UNL     1      86.085  56.053  46.353  0.00  0.00    -0.048 A 
ATOM     23  C   UNL     1      86.102  55.155  47.425  0.00  0.00    -0.061 A 
ATOM     24  C   UNL     1      84.924  54.874  48.122  0.00  0.00    -0.062 A 
ATOM     25  C   UNL     1      83.728  55.489  47.749  0.00  0.00    -0.061 A 
ATOM     26  C   UNL     1      83.705  56.388  46.678  0.00  0.00    -0.048 A 
ENDBRANCH  19  21
ENDBRANCH  18  19
ENDBRANCH  17  18
ENDBRANCH   7  17
TORSDOF 8
ENDMDL
MODEL 2
REMARK VINA RESULT:    -7.746      1.895      4.214
REMARK INTER + INTRA:         -12.670
REMARK INTER:                 -10.807
REMARK INTRA:                  -1.863
REMARK UNBOUND:                -1.303
REMARK  Name = 
REMARK  10 active torsions:
REMARK  status: ('A' for Active; 'I' for Inactive)
REMARK    1  A    between atoms: C_1  and  C_2
REMARK    2  A    between atoms: C_2  and  O_4
REMARK    3  A    between atoms: O_4  and  C_5
REMARK    4  A    between atoms: C_6  and  O_7
REMARK    5  A    between atoms: O_7  and  C_8
REMARK    6  A    between atoms: C_8  and  C_10
REMARK    7  A    between atoms: C_15  and  C_16
REMARK    8  A    between atoms: C_16  and  O_17
REMARK    9  A    between atoms: O_17  and  C_18
REMARK   10  A    between atoms: C_18  and  C_20
REMARK                            x       y       z     vdW  Elec       q    Type
REMARK                         _______ _______ _______ _____ _____    ______ ____
ROOT
ATOM      1  C   UNL     1      85.534  54.020  43.378  0.00  0.00    +0.177 C 
ATOM      2  C   UNL     1      85.792  53.153  42.122  0.00  0.00    +0.171 C 
ATOM      3  C   UNL     1      84.661  53.220  41.081  0.00  0.00    +0.128 C 
ATOM      4  O   UNL     1      83.392  53.477  41.642  0.00  0.00    -0.362 OA
ATOM      5  C   UNL     1      83.971  54.519  40.882  0.00  0.00    +0.118 C 
ATOM      6  C   UNL     1      84.421  55.719  41.733  0.00  0.00    +0.124 C 
ATOM      7  C   UNL     1      85.185  55.469  42.987  0.00  0.00    +0.172 C 
ATOM      8  O   UNL     1      83.796  55.730  42.999  0.00  0.00    -0.354 OA
ENDROOT
BRANCH   1   9
ATOM      9  O   UNL     1      84.489  53.465  44.182  0.00  0.00    -0.455 OA
BRANCH   9  11
ATOM     10  C   UNL     1      85.590  51.786  45.663  0.00  0.00    +0.033 C 
ATOM     11  C   UNL     1      84.518  52.166  44.701  0.00  0.00    +0.304 C 
ATOM     12  O   UNL     1      83.683  51.300  44.323  0.00  0.00    -0.251 OA
ENDBRANCH   9  11
ENDBRANCH   1   9
BRANCH   2  13
ATOM     13  O   UNL     1      87.001  53.567  41.484  0.00  0.00    -0.455 OA
BRANCH  13  14
ATOM     14  C   UNL     1      88.251  52.996  41.748  0.00  0.00    +0.304 C 
ATOM     15  O   UNL     1      89.312  53.557  41.361  0.00  0.00    -0.251 OA
ATOM     16  C   UNL     1      88.329  51.738  42.543  0.00  0.00    +0.033 C 
ENDBRANCH  13  14
ENDBRANCH   2  13
BRANCH   7  17
ATOM     17  C   UNL     1      85.987  56.624  43.587  0.00  0.00    +0.128 C 
BRANCH  17  18
ATOM     18  O   UNL     1      86.332  56.302  44.930  0.00  0.00    -0.458 OA
BRANCH  18  19
ATOM     19  C   UNL     1      85.547  56.670  46.028  0.00  0.00    +0.339 C 
ATOM     20  O   UNL     1      85.241  57.880  46.209  0.00  0.00    -0.245 OA
BRANCH  19  21
ATOM     21  C   UNL     1      85.083  55.632  46.974  0.00  0.00    +0.059 A 
ATOM     22  C   UNL     1      83.710  55.356  47.121  0.00  0.00    -0.048 A 
ATOM     23  C   UNL     1      83.279  54.374  48.019  0.00  0.00    -0.061 A 
ATOM     24  C   UNL     1      84.210  53.661  48.778  0.00  0.00    -0.062 A 
ATOM     25  C   UNL     1      85.573  53.928  48.641  0.00  0.00    -0.061 A 
ATOM     26  C   UNL     1      86.011  54.908  47.745  0.00  0.00    -0.048 A 
ENDBRANCH  19  21
ENDBRANCH  18  19
ENDBRANCH  17  18
ENDBRANCH   7  17
TORSDOF 8
ENDMDL
MODEL 3
REMARK VINA RESULT:    -7.701      2.641      6.250
REMARK INTER + INTRA:         -12.606
REMARK INTER:                 -11.329
REMARK INTRA:                  -1.276
REMARK UNBOUND:                -1.303
REMARK  Name = 
REMARK  10 active torsions:
REMARK  status: ('A' for Active; 'I' for Inactive)
REMARK    1  A    between atoms: C_1  and  C_2
REMARK    2  A    between atoms: C_2  and  O_4
REMARK    3  A    between atoms: O_4  and  C_5
REMARK    4  A    between atoms: C_6  and  O_7
REMARK    5  A    between atoms: O_7  and  C_8
REMARK    6  A    between atoms: C_8  and  C_10
REMARK    7  A    between atoms: C_15  and  C_16
REMARK    8  A    between atoms: C_16  and  O_17
REMARK    9  A    between atoms: O_17  and  C_18
REMARK   10  A    between atoms: C_18  and  C_20
REMARK                            x       y       z     vdW  Elec       q    Type
REMARK                         _______ _______ _______ _____ _____    ______ ____
ROOT
ATOM      1  C   UNL     1      84.923  54.012  42.589  0.00  0.00    +0.177 C 
ATOM      2  C   UNL     1      84.201  55.264  42.033  0.00  0.00    +0.171 C 
ATOM      3  C   UNL     1      84.193  56.457  43.005  0.00  0.00    +0.128 C 
ATOM      4  O   UNL     1      84.229  56.078  44.363  0.00  0.00    -0.362 OA
ATOM      5  C   UNL     1      85.397  56.681  43.843  0.00  0.00    +0.118 C 
ATOM      6  C   UNL     1      86.577  55.705  43.698  0.00  0.00    +0.124 C 
ATOM      7  C   UNL     1      86.337  54.368  43.089  0.00  0.00    +0.172 C 
ATOM      8  O   UNL     1      86.404  54.549  44.488  0.00  0.00    -0.354 OA
ENDROOT
BRANCH   1   9
ATOM      9  O   UNL     1      84.169  53.408  43.643  0.00  0.00    -0.455 OA
BRANCH   9  11
ATOM     10  C   UNL     1      84.871  51.145  44.425  0.00  0.00    +0.033 C 
ATOM     11  C   UNL     1      83.907  52.035  43.719  0.00  0.00    +0.304 C 
ATOM     12  O   UNL     1      82.897  51.538  43.153  0.00  0.00    -0.251 OA
ENDBRANCH   9  11
ENDBRANCH   1   9
BRANCH   2  13
ATOM     13  O   UNL     1      84.825  55.689  40.821  0.00  0.00    -0.455 OA
BRANCH  13  14
ATOM     14  C   UNL     1      84.605  55.080  39.580  0.00  0.00    +0.304 C 
ATOM     15  O   UNL     1      85.364  54.161  39.167  0.00  0.00    -0.251 OA
ATOM     16  C   UNL     1      83.425  55.485  38.764  0.00  0.00    +0.033 C 
ENDBRANCH  13  14
ENDBRANCH   2  13
BRANCH   7  17
ATOM     17  C   UNL     1      87.540  53.589  42.557  0.00  0.00    +0.128 C 
BRANCH  17  18
ATOM     18  O   UNL     1      87.078  52.524  41.733  0.00  0.00    -0.458 OA
BRANCH  18  19
ATOM     19  C   UNL     1      87.940  51.639  41.076  0.00  0.00    +0.339 C 
ATOM     20  O   UNL     1      88.024  51.656  39.818  0.00  0.00    -0.245 OA
BRANCH  19  21
ATOM     21  C   UNL     1      88.747  50.685  41.867  0.00  0.00    +0.059 A 
ATOM     22  C   UNL     1      88.271  50.184  43.094  0.00  0.00    -0.048 A 
ATOM     23  C   UNL     1      89.041  49.283  43.835  0.00  0.00    -0.061 A 
ATOM     24  C   UNL     1      90.291  48.874  43.363  0.00  0.00    -0.062 A 
ATOM     25  C   UNL     1      90.773  49.365  42.149  0.00  0.00    -0.061 A 
ATOM     26  C   UNL     1      90.008  50.266  41.402  0.00  0.00    -0.048 A 
ENDBRANCH  19  21
ENDBRANCH  18  19
ENDBRANCH  17  18
ENDBRANCH   7  17
TORSDOF 8
ENDMDL
MODEL 4
REMARK VINA RESULT:    -7.597      3.034      6.601
REMARK INTER + INTRA:         -12.452
REMARK INTER:                 -10.741
REMARK INTRA:                  -1.711
REMARK UNBOUND:                -1.303
REMARK  Name = 
REMARK  10 active torsions:
REMARK  status: ('A' for Active; 'I' for Inactive)
REMARK    1  A    between atoms: C_1  and  C_2
REMARK    2  A    between atoms: C_2  and  O_4
REMARK    3  A    between atoms: O_4  and  C_5
REMARK    4  A    between atoms: C_6  and  O_7
REMARK    5  A    between atoms: O_7  and  C_8
REMARK    6  A    between atoms: C_8  and  C_10
REMARK    7  A    between atoms: C_15  and  C_16
REMARK    8  A    between atoms: C_16  and  O_17
REMARK    9  A    between atoms: O_17  and  C_18
REMARK   10  A    between atoms: C_18  and  C_20
REMARK                            x       y       z     vdW  Elec       q    Type
REMARK                         _______ _______ _______ _____ _____    ______ ____
ROOT
ATOM      1  C   UNL     1      86.174  53.242  42.665  0.00  0.00    +0.177 C 
ATOM      2  C   UNL     1      85.938  54.624  43.322  0.00  0.00    +0.171 C 
ATOM      3  C   UNL     1      84.980  55.531  42.529  0.00  0.00    +0.128 C 
ATOM      4  O   UNL     1      84.990  55.284  41.140  0.00  0.00    -0.362 OA
ATOM      5  C   UNL     1      83.827  54.897  41.844  0.00  0.00    +0.118 C 
ATOM      6  C   UNL     1      83.661  53.372  41.958  0.00  0.00    +0.124 C 
ATOM      7  C   UNL     1      84.836  52.545  42.350  0.00  0.00    +0.172 C 
ATOM      8  O   UNL     1      84.439  52.684  41.001  0.00  0.00    -0.354 OA
ENDROOT
BRANCH   1   9
ATOM      9  O   UNL     1      86.954  53.365  41.473  0.00  0.00    -0.455 OA
BRANCH   9  11
ATOM     10  C   UNL     1      89.356  52.715  41.292  0.00  0.00    +0.033 C 
ATOM     11  C   UNL     1      87.911  52.425  41.073  0.00  0.00    +0.304 C 
ATOM     12  O   UNL     1      87.569  51.365  40.483  0.00  0.00    -0.251 OA
ENDBRANCH   9  11
ENDBRANCH   1   9
BRANCH   2  13
ATOM     13  O   UNL     1      85.398  54.455  44.633  0.00  0.00    -0.455 OA
BRANCH  13  14
ATOM     14  C   UNL     1      86.179  54.417  45.794  0.00  0.00    +0.304 C 
ATOM     15  O   UNL     1      86.783  53.363  46.133  0.00  0.00    -0.251 OA
ATOM     16  C   UNL     1      86.342  55.654  46.608  0.00  0.00    +0.033 C 
ENDBRANCH  13  14
ENDBRANCH   2  13
BRANCH   7  17
ATOM     17  C   UNL     1      84.582  51.132  42.876  0.00  0.00    +0.128 C 
BRANCH  17  18
ATOM     18  O   UNL     1      85.592  50.799  43.822  0.00  0.00    -0.458 OA
BRANCH  18  19
ATOM     19  C   UNL     1      86.113  49.508  43.959  0.00  0.00    +0.339 C 
ATOM     20  O   UNL     1      85.526  48.665  44.692  0.00  0.00    -0.245 OA
BRANCH  19  21
ATOM     21  C   UNL     1      87.353  49.141  43.243  0.00  0.00    +0.059 A 
ATOM     22  C   UNL     1      87.328  48.201  42.195  0.00  0.00    -0.048 A 
ATOM     23  C   UNL     1      88.505  47.858  41.525  0.00  0.00    -0.061 A 
ATOM     24  C   UNL     1      89.718  48.446  41.892  0.00  0.00    -0.062 A 
ATOM     25  C   UNL     1      89.756  49.378  42.931  0.00  0.00    -0.061 A 
ATOM     26  C   UNL     1      88.581  49.726  43.605  0.00  0.00    -0.048 A 
ENDBRANCH  19  21
ENDBRANCH  18  19
ENDBRANCH  17  18
ENDBRANCH   7  17
TORSDOF 8
ENDMDL
MODEL 5
REMARK VINA RESULT:    -7.562      2.599      3.386
REMARK INTER + INTRA:         -12.401
REMARK INTER:                 -11.098
REMARK INTRA:                  -1.303
REMARK UNBOUND:                -1.303
REMARK  Name = 
REMARK  10 active torsions:
REMARK  status: ('A' for Active; 'I' for Inactive)
REMARK    1  A    between atoms: C_1  and  C_2
REMARK    2  A    between atoms: C_2  and  O_4
REMARK    3  A    between atoms: O_4  and  C_5
REMARK    4  A    between atoms: C_6  and  O_7
REMARK    5  A    between atoms: O_7  and  C_8
REMARK    6  A    between atoms: C_8  and  C_10
REMARK    7  A    between atoms: C_15  and  C_16
REMARK    8  A    between atoms: C_16  and  O_17
REMARK    9  A    between atoms: O_17  and  C_18
REMARK   10  A    between atoms: C_18  and  C_20
REMARK                            x       y       z     vdW  Elec       q    Type
REMARK                         _______ _______ _______ _____ _____    ______ ____
ROOT
ATOM      1  C   UNL     1      85.548  52.795  41.933  0.00  0.00    +0.177 C 
ATOM      2  C   UNL     1      85.498  51.275  42.226  0.00  0.00    +0.171 C 
ATOM      3  C   UNL     1      86.765  50.519  41.789  0.00  0.00    +0.128 C 
ATOM      4  O   UNL     1      87.427  51.112  40.694  0.00  0.00    -0.362 OA
ATOM      5  C   UNL     1      88.074  51.200  41.948  0.00  0.00    +0.118 C 
ATOM      6  C   UNL     1      88.087  52.624  42.531  0.00  0.00    +0.124 C 
ATOM      7  C   UNL     1      86.832  53.425  42.507  0.00  0.00    +0.172 C 
ATOM      8  O   UNL     1      87.847  53.601  41.540  0.00  0.00    -0.354 OA
ENDROOT
BRANCH   1   9
ATOM      9  O   UNL     1      85.462  53.052  40.529  0.00  0.00    -0.455 OA
BRANCH   9  11
ATOM     10  C   UNL     1      83.546  54.641  40.702  0.00  0.00    +0.033 C 
ATOM     11  C   UNL     1      84.739  54.117  39.979  0.00  0.00    +0.304 C 
ATOM     12  O   UNL     1      85.051  54.599  38.857  0.00  0.00    -0.251 OA
ENDBRANCH   9  11
ENDBRANCH   1   9
BRANCH   2  13
ATOM     13  O   UNL     1      85.314  51.054  43.624  0.00  0.00    -0.455 OA
BRANCH  13  14
ATOM     14  C   UNL     1      84.633  49.950  44.151  0.00  0.00    +0.304 C 
ATOM     15  O   UNL     1      85.236  49.094  44.854  0.00  0.00    -0.251 OA
ATOM     16  C   UNL     1      83.166  49.818  43.925  0.00  0.00    +0.033 C 
ENDBRANCH  13  14
ENDBRANCH   2  13
BRANCH   7  17
ATOM     17  C   UNL     1      86.724  54.628  43.445  0.00  0.00    +0.128 C 
BRANCH  17  18
ATOM     18  O   UNL     1      85.843  54.306  44.515  0.00  0.00    -0.458 OA
BRANCH  18  19
ATOM     19  C   UNL     1      86.222  54.369  45.860  0.00  0.00    +0.339 C 
ATOM     20  O   UNL     1      86.387  55.488  46.419  0.00  0.00    -0.245 OA
BRANCH  19  21
ATOM     21  C   UNL     1      86.430  53.118  46.620  0.00  0.00    +0.059 A 
ATOM     22  C   UNL     1      87.234  52.086  46.099  0.00  0.00    -0.048 A 
ATOM     23  C   UNL     1      87.425  50.905  46.823  0.00  0.00    -0.061 A 
ATOM     24  C   UNL     1      86.815  50.741  48.070  0.00  0.00    -0.062 A 
ATOM     25  C   UNL     1      86.015  51.757  48.595  0.00  0.00    -0.061 A 
ATOM     26  C   UNL     1      85.821  52.940  47.876  0.00  0.00    -0.048 A 
ENDBRANCH  19  21
ENDBRANCH  18  19
ENDBRANCH  17  18
ENDBRANCH   7  17
TORSDOF 8
ENDMDL
MODEL 6
REMARK VINA RESULT:    -7.553      3.536      7.008
REMARK INTER + INTRA:         -12.388
REMARK INTER:                 -10.898
REMARK INTRA:                  -1.491
REMARK UNBOUND:                -1.303
REMARK  Name = 
REMARK  10 active torsions:
REMARK  status: ('A' for Active; 'I' for Inactive)
REMARK    1  A    between atoms: C_1  and  C_2
REMARK    2  A    between atoms: C_2  and  O_4
REMARK    3  A    between atoms: O_4  and  C_5
REMARK    4  A    between atoms: C_6  and  O_7
REMARK    5  A    between atoms: O_7  and  C_8
REMARK    6  A    between atoms: C_8  and  C_10
REMARK    7  A    between atoms: C_15  and  C_16
REMARK    8  A    between atoms: C_16  and  O_17
REMARK    9  A    between atoms: O_17  and  C_18
REMARK   10  A    between atoms: C_18  and  C_20
REMARK                            x       y       z     vdW  Elec       q    Type
REMARK                         _______ _______ _______ _____ _____    ______ ____
ROOT
ATOM      1  C   UNL     1      86.280  53.039  43.834  0.00  0.00    +0.177 C 
ATOM      2  C   UNL     1      85.285  51.870  44.034  0.00  0.00    +0.171 C 
ATOM      3  C   UNL     1      84.066  51.926  43.095  0.00  0.00    +0.128 C 
ATOM      4  O   UNL     1      83.712  53.236  42.709  0.00  0.00    -0.362 OA
ATOM      5  C   UNL     1      84.276  52.412  41.708  0.00  0.00    +0.118 C 
ATOM      6  C   UNL     1      85.695  52.839  41.294  0.00  0.00    +0.124 C 
ATOM      7  C   UNL     1      86.688  53.168  42.353  0.00  0.00    +0.172 C 
ATOM      8  O   UNL     1      85.973  54.173  41.663  0.00  0.00    -0.354 OA
ENDROOT
BRANCH   1   9
ATOM      9  O   UNL     1      85.725  54.273  44.298  0.00  0.00    -0.455 OA
BRANCH   9  11
ATOM     10  C   UNL     1      86.416  55.383  46.423  0.00  0.00    +0.033 C 
ATOM     11  C   UNL     1      86.474  55.266  44.939  0.00  0.00    +0.304 C 
ATOM     12  O   UNL     1      87.152  56.094  44.273  0.00  0.00    -0.251 OA
ENDBRANCH   9  11
ENDBRANCH   1   9
BRANCH   2  13
ATOM     13  O   UNL     1      85.947  50.623  43.819  0.00  0.00    -0.455 OA
BRANCH  13  14
ATOM     14  C   UNL     1      86.551  49.880  44.840  0.00  0.00    +0.304 C 
ATOM     15  O   UNL     1      85.891  49.031  45.498  0.00  0.00    -0.251 OA
ATOM     16  C   UNL     1      88.006  50.057  45.113  0.00  0.00    +0.033 C 
ENDBRANCH  13  14
ENDBRANCH   2  13
BRANCH   7  17
ATOM     17  C   UNL     1      88.171  53.166  41.980  0.00  0.00    +0.128 C 
BRANCH  17  18
ATOM     18  O   UNL     1      88.712  51.874  42.231  0.00  0.00    -0.458 OA
BRANCH  18  19
ATOM     19  C   UNL     1      88.791  50.877  41.253  0.00  0.00    +0.339 C 
ATOM     20  O   UNL     1      88.526  51.149  40.050  0.00  0.00    -0.245 OA
BRANCH  19  21
ATOM     21  C   UNL     1      89.182  49.504  41.640  0.00  0.00    +0.059 A 
ATOM     22  C   UNL     1      88.310  48.420  41.424  0.00  0.00    -0.048 A 
ATOM     23  C   UNL     1      88.688  47.126  41.794  0.00  0.00    -0.061 A 
ATOM     24  C   UNL     1      89.935  46.900  42.382  0.00  0.00    -0.062 A 
ATOM     25  C   UNL     1      90.807  47.967  42.601  0.00  0.00    -0.061 A 
ATOM     26  C   UNL     1      90.436  49.264  42.233  0.00  0.00    -0.048 A 
ENDBRANCH  19  21
ENDBRANCH  18  19
ENDBRANCH  17  18
ENDBRANCH   7  17
TORSDOF 8
ENDMDL
MODEL 7
REMARK VINA RESULT:    -7.526      1.941      3.497
REMARK INTER + INTRA:         -12.349
REMARK INTER:                 -11.322
REMARK INTRA:                  -1.027
REMARK UNBOUND:                -1.303
REMARK  Name = 
REMARK  10 active torsions:
REMARK  status: ('A' for Active; 'I' for Inactive)
REMARK    1  A    between atoms: C_1  and  C_2
REMARK    2  A    between atoms: C_2  and  O_4
REMARK    3  A    between atoms: O_4  and  C_5
REMARK    4  A    between atoms: C_6  and  O_7
REMARK    5  A    between atoms: O_7  and  C_8
REMARK    6  A    between atoms: C_8  and  C_10
REMARK    7  A    between atoms: C_15  and  C_16
REMARK    8  A    between atoms: C_16  and  O_17
REMARK    9  A    between atoms: O_17  and  C_18
REMARK   10  A    between atoms: C_18  and  C_20
REMARK                            x       y       z     vdW  Elec       q    Type
REMARK                         _______ _______ _______ _____ _____    ______ ____
ROOT
ATOM      1  C   UNL     1      86.873  53.383  42.150  0.00  0.00    +0.177 C 
ATOM      2  C   UNL     1      86.001  52.286  41.492  0.00  0.00    +0.171 C 
ATOM      3  C   UNL     1      85.596  51.156  42.456  0.00  0.00    +0.128 C 
ATOM      4  O   UNL     1      86.527  50.938  43.492  0.00  0.00    -0.362 OA
ATOM      5  C   UNL     1      85.291  51.516  43.863  0.00  0.00    +0.118 C 
ATOM      6  C   UNL     1      85.406  52.992  44.278  0.00  0.00    +0.124 C 
ATOM      7  C   UNL     1      86.209  53.920  43.433  0.00  0.00    +0.172 C 
ATOM      8  O   UNL     1      86.731  53.344  44.613  0.00  0.00    -0.354 OA
ENDROOT
BRANCH   1   9
ATOM      9  O   UNL     1      88.183  52.892  42.445  0.00  0.00    -0.455 OA
BRANCH   9  11
ATOM     10  C   UNL     1      89.728  51.305  41.295  0.00  0.00    +0.033 C 
ATOM     11  C   UNL     1      89.166  52.674  41.473  0.00  0.00    +0.304 C 
ATOM     12  O   UNL     1      89.618  53.629  40.786  0.00  0.00    -0.251 OA
ENDBRANCH   9  11
ENDBRANCH   1   9
BRANCH   2  13
ATOM     13  O   UNL     1      84.805  52.863  40.966  0.00  0.00    -0.455 OA
BRANCH  13  14
ATOM     14  C   UNL     1      84.787  54.007  40.159  0.00  0.00    +0.304 C 
ATOM     15  O   UNL     1      85.524  54.091  39.139  0.00  0.00    -0.251 OA
ATOM     16  C   UNL     1      83.842  55.114  40.480  0.00  0.00    +0.033 C 
ENDBRANCH  13  14
ENDBRANCH   2  13
BRANCH   7  17
ATOM     17  C   UNL     1      85.976  55.423  43.587  0.00  0.00    +0.128 C 
BRANCH  17  18
ATOM     18  O   UNL     1      86.552  55.859  44.814  0.00  0.00    -0.458 OA
BRANCH  18  19
ATOM     19  C   UNL     1      85.800  56.421  45.851  0.00  0.00    +0.339 C 
ATOM     20  O   UNL     1      85.609  57.668  45.889  0.00  0.00    -0.245 OA
BRANCH  19  21
ATOM     21  C   UNL     1      85.236  55.547  46.901  0.00  0.00    +0.059 A 
ATOM     22  C   UNL     1      83.850  55.522  47.148  0.00  0.00    -0.048 A 
ATOM     23  C   UNL     1      83.324  54.693  48.144  0.00  0.00    -0.061 A 
ATOM     24  C   UNL     1      84.173  53.884  48.903  0.00  0.00    -0.062 A 
ATOM     25  C   UNL     1      85.549  53.902  48.668  0.00  0.00    -0.061 A 
ATOM     26  C   UNL     1      86.081  54.728  47.673  0.00  0.00    -0.048 A 
ENDBRANCH  19  21
ENDBRANCH  18  19
ENDBRANCH  17  18
ENDBRANCH   7  17
TORSDOF 8
ENDMDL
MODEL 8
REMARK VINA RESULT:    -7.491      2.272      4.385
REMARK INTER + INTRA:         -12.296
REMARK INTER:                 -10.705
REMARK INTRA:                  -1.591
REMARK UNBOUND:                -1.303
REMARK  Name = 
REMARK  10 active torsions:
REMARK  status: ('A' for Active; 'I' for Inactive)
REMARK    1  A    between atoms: C_1  and  C_2
REMARK    2  A    between atoms: C_2  and  O_4
REMARK    3  A    between atoms: O_4  and  C_5
REMARK    4  A    between atoms: C_6  and  O_7
REMARK    5  A    between atoms: O_7  and  C_8
REMARK    6  A    between atoms: C_8  and  C_10
REMARK    7  A    between atoms: C_15  and  C_16
REMARK    8  A    between atoms: C_16  and  O_17
REMARK    9  A    between atoms: O_17  and  C_18
REMARK   10  A    between atoms: C_18  and  C_20
REMARK                            x       y       z     vdW  Elec       q    Type
REMARK                         _______ _______ _______ _____ _____    ______ ____
ROOT
ATOM      1  C   UNL     1      84.980  53.486  43.005  0.00  0.00    +0.177 C 
ATOM      2  C   UNL     1      85.663  53.116  41.665  0.00  0.00    +0.171 C 
ATOM      3  C   UNL     1      84.953  53.695  40.428  0.00  0.00    +0.128 C 
ATOM      4  O   UNL     1      83.567  53.879  40.608  0.00  0.00    -0.362 OA
ATOM      5  C   UNL     1      84.356  55.049  40.537  0.00  0.00    +0.118 C 
ATOM      6  C   UNL     1      84.473  55.791  41.880  0.00  0.00    +0.124 C 
ATOM      7  C   UNL     1      84.767  55.008  43.113  0.00  0.00    +0.172 C 
ATOM      8  O   UNL     1      83.454  55.412  42.781  0.00  0.00    -0.354 OA
ENDROOT
BRANCH   1   9
ATOM      9  O   UNL     1      83.731  52.805  43.152  0.00  0.00    -0.455 OA
BRANCH   9  11
ATOM     10  C   UNL     1      84.357  50.647  44.237  0.00  0.00    +0.033 C 
ATOM     11  C   UNL     1      83.609  51.412  43.200  0.00  0.00    +0.304 C 
ATOM     12  O   UNL     1      82.919  50.794  42.345  0.00  0.00    -0.251 OA
ENDBRANCH   9  11
ENDBRANCH   1   9
BRANCH   2  13
ATOM     13  O   UNL     1      87.011  53.586  41.659  0.00  0.00    -0.455 OA
BRANCH  13  14
ATOM     14  C   UNL     1      88.120  52.762  41.881  0.00  0.00    +0.304 C 
ATOM     15  O   UNL     1      89.227  53.006  41.329  0.00  0.00    -0.251 OA
ATOM     16  C   UNL     1      88.004  51.614  42.825  0.00  0.00    +0.033 C 
ENDBRANCH  13  14
ENDBRANCH   2  13
BRANCH   7  17
ATOM     17  C   UNL     1      85.301  55.757  44.334  0.00  0.00    +0.128 C 
BRANCH  17  18
ATOM     18  O   UNL     1      84.811  55.131  45.515  0.00  0.00    -0.458 OA
BRANCH  18  19
ATOM     19  C   UNL     1      85.592  54.949  46.661  0.00  0.00    +0.339 C 
ATOM     20  O   UNL     1      85.949  55.945  47.348  0.00  0.00    -0.245 OA
BRANCH  19  21
ATOM     21  C   UNL     1      85.998  53.584  47.058  0.00  0.00    +0.059 A 
ATOM     22  C   UNL     1      86.751  52.774  46.186  0.00  0.00    -0.048 A 
ATOM     23  C   UNL     1      87.129  51.484  46.569  0.00  0.00    -0.061 A 
ATOM     24  C   UNL     1      86.760  50.988  47.822  0.00  0.00    -0.062 A 
ATOM     25  C   UNL     1      86.013  51.781  48.695  0.00  0.00    -0.061 A 
ATOM     26  C   UNL     1      85.632  53.073  48.318  0.00  0.00    -0.048 A 
ENDBRANCH  19  21
ENDBRANCH  18  19
ENDBRANCH  17  18
ENDBRANCH   7  17
TORSDOF 8
ENDMDL
MODEL 9
REMARK VINA RESULT:    -7.463      2.447      4.028
REMARK INTER + INTRA:         -12.255
REMARK INTER:                 -10.457
REMARK INTRA:                  -1.799
REMARK UNBOUND:                -1.303
REMARK  Name = 
REMARK  10 active torsions:
REMARK  status: ('A' for Active; 'I' for Inactive)
REMARK    1  A    between atoms: C_1  and  C_2
REMARK    2  A    between atoms: C_2  and  O_4
REMARK    3  A    between atoms: O_4  and  C_5
REMARK    4  A    between atoms: C_6  and  O_7
REMARK    5  A    between atoms: O_7  and  C_8
REMARK    6  A    between atoms: C_8  and  C_10
REMARK    7  A    between atoms: C_15  and  C_16
REMARK    8  A    between atoms: C_16  and  O_17
REMARK    9  A    between atoms: O_17  and  C_18
REMARK   10  A    between atoms: C_18  and  C_20
REMARK                            x       y       z     vdW  Elec       q    Type
REMARK                         _______ _______ _______ _____ _____    ______ ____
ROOT
ATOM      1  C   UNL     1      86.449  51.764  42.704  0.00  0.00    +0.177 C 
ATOM      2  C   UNL     1      87.197  50.426  42.916  0.00  0.00    +0.171 C 
ATOM      3  C   UNL     1      88.183  50.082  41.785  0.00  0.00    +0.128 C 
ATOM      4  O   UNL     1      87.811  50.613  40.533  0.00  0.00    -0.362 OA
ATOM      5  C   UNL     1      88.939  51.193  41.157  0.00  0.00    +0.118 C 
ATOM      6  C   UNL     1      88.689  52.623  41.666  0.00  0.00    +0.124 C 
ATOM      7  C   UNL     1      87.438  52.911  42.422  0.00  0.00    +0.172 C 
ATOM      8  O   UNL     1      87.565  53.213  41.047  0.00  0.00    -0.354 OA
ENDROOT
BRANCH   1   9
ATOM      9  O   UNL     1      85.502  51.661  41.637  0.00  0.00    -0.455 OA
BRANCH   9  11
ATOM     10  C   UNL     1      83.245  52.027  42.637  0.00  0.00    +0.033 C 
ATOM     11  C   UNL     1      84.282  52.346  41.615  0.00  0.00    +0.304 C 
ATOM     12  O   UNL     1      84.029  53.187  40.711  0.00  0.00    -0.251 OA
ENDBRANCH   9  11
ENDBRANCH   1   9
BRANCH   2  13
ATOM     13  O   UNL     1      87.931  50.467  44.140  0.00  0.00    -0.455 OA
BRANCH  13  14
ATOM     14  C   UNL     1      87.333  50.418  45.405  0.00  0.00    +0.304 C 
ATOM     15  O   UNL     1      86.664  49.412  45.765  0.00  0.00    -0.251 OA
ATOM     16  C   UNL     1      87.536  51.548  46.356  0.00  0.00    +0.033 C 
ENDBRANCH  13  14
ENDBRANCH   2  13
BRANCH   7  17
ATOM     17  C   UNL     1      87.387  54.176  43.280  0.00  0.00    +0.128 C 
BRANCH  17  18
ATOM     18  O   UNL     1      86.291  54.980  42.859  0.00  0.00    -0.458 OA
BRANCH  18  19
ATOM     19  C   UNL     1      85.184  55.245  43.671  0.00  0.00    +0.339 C 
ATOM     20  O   UNL     1      84.113  55.676  43.161  0.00  0.00    -0.245 OA
BRANCH  19  21
ATOM     21  C   UNL     1      85.278  55.020  45.130  0.00  0.00    +0.059 A 
ATOM     22  C   UNL     1      86.006  55.904  45.949  0.00  0.00    -0.048 A 
ATOM     23  C   UNL     1      86.091  55.682  47.327  0.00  0.00    -0.061 A 
ATOM     24  C   UNL     1      85.454  54.579  47.901  0.00  0.00    -0.062 A 
ATOM     25  C   UNL     1      84.731  53.696  47.098  0.00  0.00    -0.061 A 
ATOM     26  C   UNL     1      84.641  53.912  45.719  0.00  0.00    -0.048 A 
ENDBRANCH  19  21
ENDBRANCH  18  19
ENDBRANCH  17  18
ENDBRANCH   7  17
TORSDOF 8
ENDMDL
