MODEL 1
REMARK VINA RESULT:    -7.967      0.000      0.000
REMARK INTER + INTRA:         -25.299
REMARK INTER:                 -20.219
REMARK INTRA:                  -5.080
REMARK UNBOUND:                -5.223
REMARK  Name = 
REMARK  29 active torsions:
REMARK  status: ('A' for Active; 'I' for Inactive)
REMARK    1  A    between atoms: C_1  and  C_2
REMARK    2  A    between atoms: C_2  and  C_3
REMARK    3  A    between atoms: C_3  and  C_4
REMARK    4  A    between atoms: C_4  and  C_5
REMARK    5  A    between atoms: C_5  and  C_6
REMARK    6  A    between atoms: C_6  and  C_7
REMARK    7  A    between atoms: C_7  and  C_8
REMARK    8  A    between atoms: C_8  and  C_9
REMARK    9  A    between atoms: C_9  and  C_10
REMARK   10  A    between atoms: C_10  and  C_11
REMARK   11  A    between atoms: C_11  and  C_12
REMARK   12  A    between atoms: C_11  and  O_43
REMARK   13  A    between atoms: C_15  and  C_17
REMARK   14  A    between atoms: C_20  and  C_22
REMARK   15  A    between atoms: C_22  and  C_23
REMARK   16  A    between atoms: C_22  and  O_42
REMARK   17  A    between atoms: C_23  and  C_24
REMARK   18  A    between atoms: C_24  and  C_25
REMARK   19  A    between atoms: C_25  and  C_26
REMARK   20  A    between atoms: C_26  and  C_27
REMARK   21  A    between atoms: C_27  and  C_28
REMARK   22  A    between atoms: C_28  and  C_29
REMARK   23  A    between atoms: C_29  and  C_30
REMARK   24  A    between atoms: C_30  and  C_31
REMARK   25  A    between atoms: C_31  and  C_32
REMARK   26  A    between atoms: C_32  and  C_33
REMARK   27  A    between atoms: C_33  and  C_34
REMARK   28  A    between atoms: C_34  and  C_35
REMARK   29  A    between atoms: C_37  and  C_41
REMARK                            x       y       z     vdW  Elec       q    Type
REMARK                         _______ _______ _______ _____ _____    ______ ____
ROOT
ATOM      1  C   UNL     1      82.714  48.691  43.974  0.00  0.00    +0.085 C 
ATOM      2  C   UNL     1      81.405  47.949  43.737  0.00  0.00    -0.022 C 
ATOM      3  C   UNL     1      81.844  46.602  43.226  0.00  0.00    -0.022 C 
ATOM      4  C   UNL     1      83.370  46.707  43.104  0.00  0.00    +0.085 C 
ATOM      5  O   UNL     1      83.716  48.071  43.207  0.00  0.00    -0.368 OA
ENDROOT
BRANCH   1   9
ATOM      6  C   UNL     1      83.350  51.688  42.089  0.00  0.00    +0.085 C 
ATOM      7  C   UNL     1      83.819  52.215  43.451  0.00  0.00    -0.022 C 
ATOM      8  C   UNL     1      83.739  51.014  44.340  0.00  0.00    -0.022 C 
ATOM      9  C   UNL     1      82.652  50.199  43.659  0.00  0.00    +0.085 C 
ATOM     10  O   UNL     1      82.733  50.428  42.271  0.00  0.00    -0.368 OA
BRANCH   6  11
ATOM     11  C   UNL     1      82.371  52.635  41.356  0.00  0.00    +0.081 C 
BRANCH  11  12
ATOM     12  O   UNL     1      81.056  52.258  41.685  0.00  0.00    -0.389 OA
ATOM     13  H   UNL     1      80.634  51.851  40.913  0.00  0.00    +0.000 HD
ENDBRANCH  11  12
BRANCH  11  14
ATOM     14  C   UNL     1      82.572  54.137  41.695  0.00  0.00    -0.024 C 
BRANCH  14  15
ATOM     15  C   UNL     1      83.773  54.809  40.993  0.00  0.00    -0.051 C 
BRANCH  15  16
ATOM     16  C   UNL     1      84.801  55.481  41.923  0.00  0.00    -0.053 C 
BRANCH  16  17
ATOM     17  C   UNL     1      84.213  56.280  43.104  0.00  0.00    -0.053 C 
BRANCH  17  18
ATOM     18  C   UNL     1      84.667  55.783  44.493  0.00  0.00    -0.053 C 
BRANCH  18  19
ATOM     19  C   UNL     1      86.020  55.056  44.439  0.00  0.00    -0.053 C 
BRANCH  19  20
ATOM     20  C   UNL     1      86.736  55.108  45.795  0.00  0.00    -0.053 C 
BRANCH  20  21
ATOM     21  C   UNL     1      85.768  55.540  46.906  0.00  0.00    -0.053 C 
BRANCH  21  23
ATOM     22  C   UNL     1      84.716  53.261  47.385  0.00  0.00    -0.065 C 
ATOM     23  C   UNL     1      85.525  54.434  47.943  0.00  0.00    -0.056 C 
ENDBRANCH  21  23
ENDBRANCH  20  21
ENDBRANCH  19  20
ENDBRANCH  18  19
ENDBRANCH  17  18
ENDBRANCH  16  17
ENDBRANCH  15  16
ENDBRANCH  14  15
ENDBRANCH  11  14
ENDBRANCH   6  11
ENDBRANCH   1   9
BRANCH   4  24
ATOM     24  C   UNL     1      84.145  45.881  44.176  0.00  0.00    +0.081 C 
BRANCH  24  25
ATOM     25  O   UNL     1      85.211  46.663  44.660  0.00  0.00    -0.389 OA
ATOM     26  H   UNL     1      85.216  47.520  44.205  0.00  0.00    +0.000 HD
ENDBRANCH  24  25
BRANCH  24  27
ATOM     27  C   UNL     1      84.733  44.560  43.620  0.00  0.00    -0.024 C 
BRANCH  27  28
ATOM     28  C   UNL     1      86.201  44.289  44.005  0.00  0.00    -0.051 C 
BRANCH  28  29
ATOM     29  C   UNL     1      87.070  43.744  42.859  0.00  0.00    -0.053 C 
BRANCH  29  30
ATOM     30  C   UNL     1      88.582  43.804  43.163  0.00  0.00    -0.053 C 
BRANCH  30  31
ATOM     31  C   UNL     1      89.272  45.028  42.532  0.00  0.00    -0.053 C 
BRANCH  31  32
ATOM     32  C   UNL     1      88.320  46.126  42.015  0.00  0.00    -0.053 C 
BRANCH  32  33
ATOM     33  C   UNL     1      89.042  47.329  41.373  0.00  0.00    -0.053 C 
BRANCH  33  34
ATOM     34  C   UNL     1      90.361  47.667  42.089  0.00  0.00    -0.053 C 
BRANCH  34  35
ATOM     35  C   UNL     1      90.550  49.180  42.286  0.00  0.00    -0.053 C 
BRANCH  35  36
ATOM     36  C   UNL     1      89.471  50.000  41.563  0.00  0.00    -0.053 C 
BRANCH  36  37
ATOM     37  C   UNL     1      89.251  51.352  42.259  0.00  0.00    -0.049 C 
BRANCH  37  38
ATOM     38  C   UNL     1      87.785  51.572  42.660  0.00  0.00    -0.021 C 
BRANCH  38  39
ATOM     39  C   UNL     1      87.452  50.938  43.983  0.00  0.00    +0.036 C 
ATOM     40  C   UNL     1      87.553  51.515  45.176  0.00  0.00    -0.034 C 
ATOM     41  C   UNL     1      87.061  50.588  46.257  0.00  0.00    +0.120 C 
ATOM     42  O   UNL     1      86.708  49.403  45.548  0.00  0.00    -0.454 OA
ATOM     43  C   UNL     1      86.927  49.609  44.199  0.00  0.00    +0.336 C 
ATOM     44  O   UNL     1      86.713  48.745  43.309  0.00  0.00    -0.245 OA
ATOM     45  C   UNL     1      88.155  50.297  47.282  0.00  0.00    -0.024 C 
ENDBRANCH  38  39
ENDBRANCH  37  38
ENDBRANCH  36  37
ENDBRANCH  35  36
ENDBRANCH  34  35
ENDBRANCH  33  34
ENDBRANCH  32  33
ENDBRANCH  31  32
ENDBRANCH  30  31
ENDBRANCH  29  30
ENDBRANCH  28  29
ENDBRANCH  27  28
ENDBRANCH  24  27
ENDBRANCH   4  24
TORSDOF 27
ENDMDL
MODEL 2
REMARK VINA RESULT:    -7.934      2.212      8.421
REMARK INTER + INTRA:         -25.215
REMARK INTER:                 -20.638
REMARK INTRA:                  -4.578
REMARK UNBOUND:                -5.223
REMARK  Name = 
REMARK  29 active torsions:
REMARK  status: ('A' for Active; 'I' for Inactive)
REMARK    1  A    between atoms: C_1  and  C_2
REMARK    2  A    between atoms: C_2  and  C_3
REMARK    3  A    between atoms: C_3  and  C_4
REMARK    4  A    between atoms: C_4  and  C_5
REMARK    5  A    between atoms: C_5  and  C_6
REMARK    6  A    between atoms: C_6  and  C_7
REMARK    7  A    between atoms: C_7  and  C_8
REMARK    8  A    between atoms: C_8  and  C_9
REMARK    9  A    between atoms: C_9  and  C_10
REMARK   10  A    between atoms: C_10  and  C_11
REMARK   11  A    between atoms: C_11  and  C_12
REMARK   12  A    between atoms: C_11  and  O_43
REMARK   13  A    between atoms: C_15  and  C_17
REMARK   14  A    between atoms: C_20  and  C_22
REMARK   15  A    between atoms: C_22  and  C_23
REMARK   16  A    between atoms: C_22  and  O_42
REMARK   17  A    between atoms: C_23  and  C_24
REMARK   18  A    between atoms: C_24  and  C_25
REMARK   19  A    between atoms: C_25  and  C_26
REMARK   20  A    between atoms: C_26  and  C_27
REMARK   21  A    between atoms: C_27  and  C_28
REMARK   22  A    between atoms: C_28  and  C_29
REMARK   23  A    between atoms: C_29  and  C_30
REMARK   24  A    between atoms: C_30  and  C_31
REMARK   25  A    between atoms: C_31  and  C_32
REMARK   26  A    between atoms: C_32  and  C_33
REMARK   27  A    between atoms: C_33  and  C_34
REMARK   28  A    between atoms: C_34  and  C_35
REMARK   29  A    between atoms: C_37  and  C_41
REMARK                            x       y       z     vdW  Elec       q    Type
REMARK                         _______ _______ _______ _____ _____    ______ ____
ROOT
ATOM      1  C   UNL     1      85.397  54.984  46.026  0.00  0.00    +0.085 C 
ATOM      2  C   UNL     1      84.274  55.813  46.636  0.00  0.00    -0.022 C 
ATOM      3  C   UNL     1      84.474  57.182  46.042  0.00  0.00    -0.022 C 
ATOM      4  C   UNL     1      85.762  57.066  45.217  0.00  0.00    +0.085 C 
ATOM      5  O   UNL     1      86.402  55.863  45.584  0.00  0.00    -0.368 OA
ENDROOT
BRANCH   1   9
ATOM      6  C   UNL     1      85.699  51.749  47.570  0.00  0.00    +0.085 C 
ATOM      7  C   UNL     1      85.678  52.577  48.861  0.00  0.00    -0.022 C 
ATOM      8  C   UNL     1      85.417  53.970  48.382  0.00  0.00    -0.022 C 
ATOM      9  C   UNL     1      85.990  53.925  46.976  0.00  0.00    +0.085 C 
ATOM     10  O   UNL     1      85.801  52.626  46.464  0.00  0.00    -0.368 OA
BRANCH   6  11
ATOM     11  C   UNL     1      86.849  50.717  47.509  0.00  0.00    +0.081 C 
BRANCH  11  12
ATOM     12  O   UNL     1      86.290  49.428  47.446  0.00  0.00    -0.389 OA
ATOM     13  H   UNL     1      86.917  48.785  47.811  0.00  0.00    +0.000 HD
ENDBRANCH  11  12
BRANCH  11  14
ATOM     14  C   UNL     1      87.812  50.915  46.306  0.00  0.00    -0.024 C 
BRANCH  14  15
ATOM     15  C   UNL     1      87.528  50.011  45.087  0.00  0.00    -0.051 C 
BRANCH  15  16
ATOM     16  C   UNL     1      88.687  49.858  44.082  0.00  0.00    -0.053 C 
BRANCH  16  17
ATOM     17  C   UNL     1      88.513  50.604  42.743  0.00  0.00    -0.053 C 
BRANCH  17  18
ATOM     18  C   UNL     1      88.759  49.730  41.495  0.00  0.00    -0.053 C 
BRANCH  18  19
ATOM     19  C   UNL     1      87.799  48.533  41.423  0.00  0.00    -0.053 C 
BRANCH  19  20
ATOM     20  C   UNL     1      88.487  47.236  41.871  0.00  0.00    -0.053 C 
BRANCH  20  21
ATOM     21  C   UNL     1      90.006  47.325  41.658  0.00  0.00    -0.053 C 
BRANCH  21  23
ATOM     22  C   UNL     1      91.547  48.140  43.526  0.00  0.00    -0.065 C 
ATOM     23  C   UNL     1      90.802  46.950  42.916  0.00  0.00    -0.056 C 
ENDBRANCH  21  23
ENDBRANCH  20  21
ENDBRANCH  19  20
ENDBRANCH  18  19
ENDBRANCH  17  18
ENDBRANCH  16  17
ENDBRANCH  15  16
ENDBRANCH  14  15
ENDBRANCH  11  14
ENDBRANCH   6  11
ENDBRANCH   1   9
BRANCH   4  24
ATOM     24  C   UNL     1      85.527  57.092  43.675  0.00  0.00    +0.081 C 
BRANCH  24  25
ATOM     25  O   UNL     1      85.679  58.417  43.221  0.00  0.00    -0.389 OA
ATOM     26  H   UNL     1      85.102  58.564  42.456  0.00  0.00    +0.000 HD
ENDBRANCH  24  25
BRANCH  24  27
ATOM     27  C   UNL     1      84.115  56.604  43.265  0.00  0.00    -0.024 C 
BRANCH  27  28
ATOM     28  C   UNL     1      84.080  55.229  42.568  0.00  0.00    -0.051 C 
BRANCH  28  29
ATOM     29  C   UNL     1      84.187  55.290  41.035  0.00  0.00    -0.053 C 
BRANCH  29  30
ATOM     30  C   UNL     1      84.683  53.969  40.408  0.00  0.00    -0.053 C 
BRANCH  30  31
ATOM     31  C   UNL     1      85.684  53.219  41.307  0.00  0.00    -0.053 C 
BRANCH  31  32
ATOM     32  C   UNL     1      85.253  51.799  41.729  0.00  0.00    -0.053 C 
BRANCH  32  33
ATOM     33  C   UNL     1      84.905  51.670  43.226  0.00  0.00    -0.053 C 
BRANCH  33  34
ATOM     34  C   UNL     1      83.433  51.287  43.453  0.00  0.00    -0.053 C 
BRANCH  34  35
ATOM     35  C   UNL     1      82.607  51.342  42.157  0.00  0.00    -0.053 C 
BRANCH  35  36
ATOM     36  C   UNL     1      81.156  50.883  42.371  0.00  0.00    -0.053 C 
BRANCH  36  37
ATOM     37  C   UNL     1      81.043  49.979  43.608  0.00  0.00    -0.049 C 
BRANCH  37  38
ATOM     38  C   UNL     1      80.715  48.524  43.241  0.00  0.00    -0.021 C 
BRANCH  38  39
ATOM     39  C   UNL     1      81.873  47.596  43.489  0.00  0.00    +0.036 C 
ATOM     40  C   UNL     1      83.070  47.667  42.918  0.00  0.00    -0.034 C 
ATOM     41  C   UNL     1      83.986  46.607  43.473  0.00  0.00    +0.120 C 
ATOM     42  O   UNL     1      83.161  45.899  44.394  0.00  0.00    -0.454 OA
ATOM     43  C   UNL     1      81.911  46.488  44.416  0.00  0.00    +0.336 C 
ATOM     44  O   UNL     1      80.955  46.088  45.131  0.00  0.00    -0.245 OA
ATOM     45  C   UNL     1      84.490  45.674  42.374  0.00  0.00    -0.024 C 
ENDBRANCH  38  39
ENDBRANCH  37  38
ENDBRANCH  36  37
ENDBRANCH  35  36
ENDBRANCH  34  35
ENDBRANCH  33  34
ENDBRANCH  32  33
ENDBRANCH  31  32
ENDBRANCH  30  31
ENDBRANCH  29  30
ENDBRANCH  28  29
ENDBRANCH  27  28
ENDBRANCH  24  27
ENDBRANCH   4  24
TORSDOF 27
ENDMDL
MODEL 3
REMARK VINA RESULT:    -7.926      2.234      7.919
REMARK INTER + INTRA:         -25.196
REMARK INTER:                 -20.563
REMARK INTRA:                  -4.632
REMARK UNBOUND:                -5.223
REMARK  Name = 
REMARK  29 active torsions:
REMARK  status: ('A' for Active; 'I' for Inactive)
REMARK    1  A    between atoms: C_1  and  C_2
REMARK    2  A    between atoms: C_2  and  C_3
REMARK    3  A    between atoms: C_3  and  C_4
REMARK    4  A    between atoms: C_4  and  C_5
REMARK    5  A    between atoms: C_5  and  C_6
REMARK    6  A    between atoms: C_6  and  C_7
REMARK    7  A    between atoms: C_7  and  C_8
REMARK    8  A    between atoms: C_8  and  C_9
REMARK    9  A    between atoms: C_9  and  C_10
REMARK   10  A    between atoms: C_10  and  C_11
REMARK   11  A    between atoms: C_11  and  C_12
REMARK   12  A    between atoms: C_11  and  O_43
REMARK   13  A    between atoms: C_15  and  C_17
REMARK   14  A    between atoms: C_20  and  C_22
REMARK   15  A    between atoms: C_22  and  C_23
REMARK   16  A    between atoms: C_22  and  O_42
REMARK   17  A    between atoms: C_23  and  C_24
REMARK   18  A    between atoms: C_24  and  C_25
REMARK   19  A    between atoms: C_25  and  C_26
REMARK   20  A    between atoms: C_26  and  C_27
REMARK   21  A    between atoms: C_27  and  C_28
REMARK   22  A    between atoms: C_28  and  C_29
REMARK   23  A    between atoms: C_29  and  C_30
REMARK   24  A    between atoms: C_30  and  C_31
REMARK   25  A    between atoms: C_31  and  C_32
REMARK   26  A    between atoms: C_32  and  C_33
REMARK   27  A    between atoms: C_33  and  C_34
REMARK   28  A    between atoms: C_34  and  C_35
REMARK   29  A    between atoms: C_37  and  C_41
REMARK                            x       y       z     vdW  Elec       q    Type
REMARK                         _______ _______ _______ _____ _____    ______ ____
ROOT
ATOM      1  C   UNL     1      88.719  49.743  41.720  0.00  0.00    +0.085 C 
ATOM      2  C   UNL     1      90.076  50.427  41.602  0.00  0.00    -0.022 C 
ATOM      3  C   UNL     1      89.761  51.730  40.918  0.00  0.00    -0.022 C 
ATOM      4  C   UNL     1      88.264  51.653  40.595  0.00  0.00    +0.085 C 
ATOM      5  O   UNL     1      87.855  50.314  40.770  0.00  0.00    -0.368 OA
ENDROOT
BRANCH   1   9
ATOM      6  C   UNL     1      88.498  46.308  42.767  0.00  0.00    +0.085 C 
ATOM      7  C   UNL     1      89.857  46.208  42.063  0.00  0.00    -0.022 C 
ATOM      8  C   UNL     1      90.160  47.621  41.678  0.00  0.00    -0.022 C 
ATOM      9  C   UNL     1      88.766  48.211  41.551  0.00  0.00    +0.085 C 
ATOM     10  O   UNL     1      87.931  47.575  42.490  0.00  0.00    -0.368 OA
BRANCH   6  11
ATOM     11  C   UNL     1      87.499  45.201  42.357  0.00  0.00    +0.081 C 
BRANCH  11  12
ATOM     12  O   UNL     1      87.640  44.121  43.246  0.00  0.00    -0.389 OA
ATOM     13  H   UNL     1      87.056  44.251  44.009  0.00  0.00    +0.000 HD
ENDBRANCH  11  12
BRANCH  11  14
ATOM     14  C   UNL     1      86.016  45.663  42.345  0.00  0.00    -0.024 C 
BRANCH  14  15
ATOM     15  C   UNL     1      85.293  45.573  43.707  0.00  0.00    -0.051 C 
BRANCH  15  16
ATOM     16  C   UNL     1      83.757  45.693  43.660  0.00  0.00    -0.053 C 
BRANCH  16  17
ATOM     17  C   UNL     1      83.203  46.825  42.770  0.00  0.00    -0.053 C 
BRANCH  17  18
ATOM     18  C   UNL     1      81.860  47.410  43.255  0.00  0.00    -0.053 C 
BRANCH  18  19
ATOM     19  C   UNL     1      82.039  48.737  44.010  0.00  0.00    -0.053 C 
BRANCH  19  20
ATOM     20  C   UNL     1      83.434  49.331  43.773  0.00  0.00    -0.053 C 
BRANCH  20  21
ATOM     21  C   UNL     1      83.367  50.864  43.699  0.00  0.00    -0.053 C 
BRANCH  21  23
ATOM     22  C   UNL     1      81.643  51.802  42.062  0.00  0.00    -0.065 C 
ATOM     23  C   UNL     1      83.098  51.376  42.277  0.00  0.00    -0.056 C 
ENDBRANCH  21  23
ENDBRANCH  20  21
ENDBRANCH  19  20
ENDBRANCH  18  19
ENDBRANCH  17  18
ENDBRANCH  16  17
ENDBRANCH  15  16
ENDBRANCH  14  15
ENDBRANCH  11  14
ENDBRANCH   6  11
ENDBRANCH   1   9
BRANCH   4  24
ATOM     24  C   UNL     1      87.382  52.595  41.471  0.00  0.00    +0.081 C 
BRANCH  24  25
ATOM     25  O   UNL     1      88.209  53.583  42.039  0.00  0.00    -0.389 OA
ATOM     26  H   UNL     1      88.096  54.416  41.556  0.00  0.00    +0.000 HD
ENDBRANCH  24  25
BRANCH  24  27
ATOM     27  C   UNL     1      86.657  51.855  42.624  0.00  0.00    -0.024 C 
BRANCH  27  28
ATOM     28  C   UNL     1      87.030  52.336  44.041  0.00  0.00    -0.051 C 
BRANCH  28  29
ATOM     29  C   UNL     1      87.842  51.322  44.864  0.00  0.00    -0.053 C 
BRANCH  29  30
ATOM     30  C   UNL     1      87.150  49.948  44.989  0.00  0.00    -0.053 C 
BRANCH  30  31
ATOM     31  C   UNL     1      86.427  49.762  46.336  0.00  0.00    -0.053 C 
BRANCH  31  32
ATOM     32  C   UNL     1      87.228  50.200  47.579  0.00  0.00    -0.053 C 
BRANCH  32  33
ATOM     33  C   UNL     1      86.491  51.218  48.473  0.00  0.00    -0.053 C 
BRANCH  33  34
ATOM     34  C   UNL     1      86.062  52.474  47.694  0.00  0.00    -0.053 C 
BRANCH  34  35
ATOM     35  C   UNL     1      85.145  53.391  48.520  0.00  0.00    -0.053 C 
BRANCH  35  36
ATOM     36  C   UNL     1      85.130  54.832  47.988  0.00  0.00    -0.053 C 
BRANCH  36  37
ATOM     37  C   UNL     1      86.118  54.997  46.822  0.00  0.00    -0.049 C 
BRANCH  37  38
ATOM     38  C   UNL     1      86.074  56.405  46.212  0.00  0.00    -0.021 C 
BRANCH  38  39
ATOM     39  C   UNL     1      85.436  56.419  44.849  0.00  0.00    +0.036 C 
ATOM     40  C   UNL     1      84.641  55.480  44.347  0.00  0.00    -0.034 C 
ATOM     41  C   UNL     1      84.142  55.882  42.984  0.00  0.00    +0.120 C 
ATOM     42  O   UNL     1      84.778  57.136  42.750  0.00  0.00    -0.454 OA
ATOM     43  C   UNL     1      85.536  57.464  43.857  0.00  0.00    +0.336 C 
ATOM     44  O   UNL     1      86.223  58.515  43.956  0.00  0.00    -0.245 OA
ATOM     45  C   UNL     1      84.549  54.866  41.919  0.00  0.00    -0.024 C 
ENDBRANCH  38  39
ENDBRANCH  37  38
ENDBRANCH  36  37
ENDBRANCH  35  36
ENDBRANCH  34  35
ENDBRANCH  33  34
ENDBRANCH  32  33
ENDBRANCH  31  32
ENDBRANCH  30  31
ENDBRANCH  29  30
ENDBRANCH  28  29
ENDBRANCH  27  28
ENDBRANCH  24  27
ENDBRANCH   4  24
TORSDOF 27
ENDMDL
MODEL 4
REMARK VINA RESULT:    -7.874      1.728      7.761
REMARK INTER + INTRA:         -25.064
REMARK INTER:                 -20.517
REMARK INTRA:                  -4.546
REMARK UNBOUND:                -5.223
REMARK  Name = 
REMARK  29 active torsions:
REMARK  status: ('A' for Active; 'I' for Inactive)
REMARK    1  A    between atoms: C_1  and  C_2
REMARK    2  A    between atoms: C_2  and  C_3
REMARK    3  A    between atoms: C_3  and  C_4
REMARK    4  A    between atoms: C_4  and  C_5
REMARK    5  A    between atoms: C_5  and  C_6
REMARK    6  A    between atoms: C_6  and  C_7
REMARK    7  A    between atoms: C_7  and  C_8
REMARK    8  A    between atoms: C_8  and  C_9
REMARK    9  A    between atoms: C_9  and  C_10
REMARK   10  A    between atoms: C_10  and  C_11
REMARK   11  A    between atoms: C_11  and  C_12
REMARK   12  A    between atoms: C_11  and  O_43
REMARK   13  A    between atoms: C_15  and  C_17
REMARK   14  A    between atoms: C_20  and  C_22
REMARK   15  A    between atoms: C_22  and  C_23
REMARK   16  A    between atoms: C_22  and  O_42
REMARK   17  A    between atoms: C_23  and  C_24
REMARK   18  A    between atoms: C_24  and  C_25
REMARK   19  A    between atoms: C_25  and  C_26
REMARK   20  A    between atoms: C_26  and  C_27
REMARK   21  A    between atoms: C_27  and  C_28
REMARK   22  A    between atoms: C_28  and  C_29
REMARK   23  A    between atoms: C_29  and  C_30
REMARK   24  A    between atoms: C_30  and  C_31
REMARK   25  A    between atoms: C_31  and  C_32
REMARK   26  A    between atoms: C_32  and  C_33
REMARK   27  A    between atoms: C_33  and  C_34
REMARK   28  A    between atoms: C_34  and  C_35
REMARK   29  A    between atoms: C_37  and  C_41
REMARK                            x       y       z     vdW  Elec       q    Type
REMARK                         _______ _______ _______ _____ _____    ______ ____
ROOT
ATOM      1  C   UNL     1      83.370  47.925  43.117  0.00  0.00    +0.085 C 
ATOM      2  C   UNL     1      81.893  47.631  42.882  0.00  0.00    -0.022 C 
ATOM      3  C   UNL     1      81.194  48.845  43.436  0.00  0.00    -0.022 C 
ATOM      4  C   UNL     1      82.314  49.698  44.045  0.00  0.00    +0.085 C 
ATOM      5  O   UNL     1      83.470  48.894  44.131  0.00  0.00    -0.368 OA
ENDROOT
BRANCH   1   9
ATOM      6  C   UNL     1      85.470  45.075  42.474  0.00  0.00    +0.085 C 
ATOM      7  C   UNL     1      84.441  44.361  43.358  0.00  0.00    -0.022 C 
ATOM      8  C   UNL     1      83.401  45.407  43.606  0.00  0.00    -0.022 C 
ATOM      9  C   UNL     1      84.213  46.685  43.474  0.00  0.00    +0.085 C 
ATOM     10  O   UNL     1      85.223  46.468  42.517  0.00  0.00    -0.368 OA
BRANCH   6  11
ATOM     11  C   UNL     1      86.938  44.805  42.879  0.00  0.00    +0.081 C 
BRANCH  11  12
ATOM     12  O   UNL     1      87.227  43.451  42.631  0.00  0.00    -0.389 OA
ATOM     13  H   UNL     1      88.179  43.299  42.736  0.00  0.00    +0.000 HD
ENDBRANCH  11  12
BRANCH  11  14
ATOM     14  C   UNL     1      87.972  45.693  42.134  0.00  0.00    -0.024 C 
BRANCH  14  15
ATOM     15  C   UNL     1      89.448  45.414  42.490  0.00  0.00    -0.051 C 
BRANCH  15  16
ATOM     16  C   UNL     1      90.444  46.541  42.152  0.00  0.00    -0.053 C 
BRANCH  16  17
ATOM     17  C   UNL     1      91.092  47.245  43.362  0.00  0.00    -0.053 C 
BRANCH  17  18
ATOM     18  C   UNL     1      91.200  48.777  43.219  0.00  0.00    -0.053 C 
BRANCH  18  19
ATOM     19  C   UNL     1      90.830  49.260  41.808  0.00  0.00    -0.053 C 
BRANCH  19  20
ATOM     20  C   UNL     1      89.646  50.236  41.844  0.00  0.00    -0.053 C 
BRANCH  20  21
ATOM     21  C   UNL     1      88.528  49.701  42.752  0.00  0.00    -0.053 C 
BRANCH  21  23
ATOM     22  C   UNL     1      88.140  50.027  45.257  0.00  0.00    -0.065 C 
ATOM     23  C   UNL     1      88.159  50.682  43.874  0.00  0.00    -0.056 C 
ENDBRANCH  21  23
ENDBRANCH  20  21
ENDBRANCH  19  20
ENDBRANCH  18  19
ENDBRANCH  17  18
ENDBRANCH  16  17
ENDBRANCH  15  16
ENDBRANCH  14  15
ENDBRANCH  11  14
ENDBRANCH   6  11
ENDBRANCH   1   9
BRANCH   4  24
ATOM     24  C   UNL     1      82.628  50.994  43.237  0.00  0.00    +0.081 C 
BRANCH  24  25
ATOM     25  O   UNL     1      82.393  50.739  41.872  0.00  0.00    -0.389 OA
ATOM     26  H   UNL     1      81.872  49.926  41.780  0.00  0.00    +0.000 HD
ENDBRANCH  24  25
BRANCH  24  27
ATOM     27  C   UNL     1      84.096  51.468  43.391  0.00  0.00    -0.024 C 
BRANCH  27  28
ATOM     28  C   UNL     1      84.359  52.385  44.602  0.00  0.00    -0.051 C 
BRANCH  28  29
ATOM     29  C   UNL     1      85.191  51.737  45.722  0.00  0.00    -0.053 C 
BRANCH  29  30
ATOM     30  C   UNL     1      85.875  52.769  46.643  0.00  0.00    -0.053 C 
BRANCH  30  31
ATOM     31  C   UNL     1      85.254  52.819  48.052  0.00  0.00    -0.053 C 
BRANCH  31  32
ATOM     32  C   UNL     1      83.902  53.556  48.149  0.00  0.00    -0.053 C 
BRANCH  32  33
ATOM     33  C   UNL     1      84.033  55.074  48.389  0.00  0.00    -0.053 C 
BRANCH  33  34
ATOM     34  C   UNL     1      83.977  55.879  47.079  0.00  0.00    -0.053 C 
BRANCH  34  35
ATOM     35  C   UNL     1      85.347  56.454  46.684  0.00  0.00    -0.053 C 
BRANCH  35  36
ATOM     36  C   UNL     1      85.227  57.603  45.672  0.00  0.00    -0.053 C 
BRANCH  36  37
ATOM     37  C   UNL     1      86.132  57.360  44.455  0.00  0.00    -0.049 C 
BRANCH  37  38
ATOM     38  C   UNL     1      86.393  55.867  44.209  0.00  0.00    -0.021 C 
BRANCH  38  39
ATOM     39  C   UNL     1      85.675  55.354  42.990  0.00  0.00    +0.036 C 
ATOM     40  C   UNL     1      84.518  55.802  42.515  0.00  0.00    -0.034 C 
ATOM     41  C   UNL     1      84.156  55.088  41.239  0.00  0.00    +0.120 C 
ATOM     42  O   UNL     1      85.216  54.152  41.065  0.00  0.00    -0.454 OA
ATOM     43  C   UNL     1      86.126  54.314  42.093  0.00  0.00    +0.336 C 
ATOM     44  O   UNL     1      87.175  53.630  42.221  0.00  0.00    -0.245 OA
ATOM     45  C   UNL     1      82.817  54.365  41.367  0.00  0.00    -0.024 C 
ENDBRANCH  38  39
ENDBRANCH  37  38
ENDBRANCH  36  37
ENDBRANCH  35  36
ENDBRANCH  34  35
ENDBRANCH  33  34
ENDBRANCH  32  33
ENDBRANCH  31  32
ENDBRANCH  30  31
ENDBRANCH  29  30
ENDBRANCH  28  29
ENDBRANCH  27  28
ENDBRANCH  24  27
ENDBRANCH   4  24
TORSDOF 27
ENDMDL
MODEL 5
REMARK VINA RESULT:    -7.827      2.297      8.055
REMARK INTER + INTRA:         -24.947
REMARK INTER:                 -19.166
REMARK INTRA:                  -5.780
REMARK UNBOUND:                -5.223
REMARK  Name = 
REMARK  29 active torsions:
REMARK  status: ('A' for Active; 'I' for Inactive)
REMARK    1  A    between atoms: C_1  and  C_2
REMARK    2  A    between atoms: C_2  and  C_3
REMARK    3  A    between atoms: C_3  and  C_4
REMARK    4  A    between atoms: C_4  and  C_5
REMARK    5  A    between atoms: C_5  and  C_6
REMARK    6  A    between atoms: C_6  and  C_7
REMARK    7  A    between atoms: C_7  and  C_8
REMARK    8  A    between atoms: C_8  and  C_9
REMARK    9  A    between atoms: C_9  and  C_10
REMARK   10  A    between atoms: C_10  and  C_11
REMARK   11  A    between atoms: C_11  and  C_12
REMARK   12  A    between atoms: C_11  and  O_43
REMARK   13  A    between atoms: C_15  and  C_17
REMARK   14  A    between atoms: C_20  and  C_22
REMARK   15  A    between atoms: C_22  and  C_23
REMARK   16  A    between atoms: C_22  and  O_42
REMARK   17  A    between atoms: C_23  and  C_24
REMARK   18  A    between atoms: C_24  and  C_25
REMARK   19  A    between atoms: C_25  and  C_26
REMARK   20  A    between atoms: C_26  and  C_27
REMARK   21  A    between atoms: C_27  and  C_28
REMARK   22  A    between atoms: C_28  and  C_29
REMARK   23  A    between atoms: C_29  and  C_30
REMARK   24  A    between atoms: C_30  and  C_31
REMARK   25  A    between atoms: C_31  and  C_32
REMARK   26  A    between atoms: C_32  and  C_33
REMARK   27  A    between atoms: C_33  and  C_34
REMARK   28  A    between atoms: C_34  and  C_35
REMARK   29  A    between atoms: C_37  and  C_41
REMARK                            x       y       z     vdW  Elec       q    Type
REMARK                         _______ _______ _______ _____ _____    ______ ____
ROOT
ATOM      1  C   UNL     1      87.635  50.833  41.533  0.00  0.00    +0.085 C 
ATOM      2  C   UNL     1      87.957  51.749  42.707  0.00  0.00    -0.022 C 
ATOM      3  C   UNL     1      87.546  53.113  42.221  0.00  0.00    -0.022 C 
ATOM      4  C   UNL     1      87.118  52.898  40.764  0.00  0.00    +0.085 C 
ATOM      5  O   UNL     1      87.565  51.619  40.369  0.00  0.00    -0.368 OA
ENDROOT
BRANCH   1   9
ATOM      6  C   UNL     1      89.695  48.060  42.539  0.00  0.00    +0.085 C 
ATOM      7  C   UNL     1      90.773  48.831  41.767  0.00  0.00    -0.022 C 
ATOM      8  C   UNL     1      90.092  50.107  41.388  0.00  0.00    -0.022 C 
ATOM      9  C   UNL     1      88.636  49.676  41.340  0.00  0.00    +0.085 C 
ATOM     10  O   UNL     1      88.440  48.673  42.309  0.00  0.00    -0.368 OA
BRANCH   6  11
ATOM     11  C   UNL     1      89.607  46.563  42.162  0.00  0.00    +0.081 C 
BRANCH  11  12
ATOM     12  O   UNL     1      90.291  45.816  43.138  0.00  0.00    -0.389 OA
ATOM     13  H   UNL     1      91.075  46.307  43.431  0.00  0.00    +0.000 HD
ENDBRANCH  11  12
BRANCH  11  14
ATOM     14  C   UNL     1      88.154  46.028  42.035  0.00  0.00    -0.024 C 
BRANCH  14  15
ATOM     15  C   UNL     1      87.929  44.609  42.601  0.00  0.00    -0.051 C 
BRANCH  15  16
ATOM     16  C   UNL     1      86.471  44.109  42.594  0.00  0.00    -0.053 C 
BRANCH  16  17
ATOM     17  C   UNL     1      85.717  44.229  43.935  0.00  0.00    -0.053 C 
BRANCH  17  18
ATOM     18  C   UNL     1      85.302  45.670  44.300  0.00  0.00    -0.053 C 
BRANCH  18  19
ATOM     19  C   UNL     1      84.395  46.304  43.234  0.00  0.00    -0.053 C 
BRANCH  19  20
ATOM     20  C   UNL     1      82.912  46.142  43.594  0.00  0.00    -0.053 C 
BRANCH  20  21
ATOM     21  C   UNL     1      82.066  47.236  42.923  0.00  0.00    -0.053 C 
BRANCH  21  23
ATOM     22  C   UNL     1      80.278  48.942  43.575  0.00  0.00    -0.065 C 
ATOM     23  C   UNL     1      81.648  48.343  43.901  0.00  0.00    -0.056 C 
ENDBRANCH  21  23
ENDBRANCH  20  21
ENDBRANCH  19  20
ENDBRANCH  18  19
ENDBRANCH  17  18
ENDBRANCH  16  17
ENDBRANCH  15  16
ENDBRANCH  14  15
ENDBRANCH  11  14
ENDBRANCH   6  11
ENDBRANCH   1   9
BRANCH   4  24
ATOM     24  C   UNL     1      85.580  53.016  40.535  0.00  0.00    +0.081 C 
BRANCH  24  25
ATOM     25  O   UNL     1      85.351  53.954  39.510  0.00  0.00    -0.389 OA
ATOM     26  H   UNL     1      84.523  53.738  39.054  0.00  0.00    +0.000 HD
ENDBRANCH  24  25
BRANCH  24  27
ATOM     27  C   UNL     1      84.811  53.485  41.796  0.00  0.00    -0.024 C 
BRANCH  27  28
ATOM     28  C   UNL     1      83.335  53.042  41.858  0.00  0.00    -0.051 C 
BRANCH  28  29
ATOM     29  C   UNL     1      83.046  51.931  42.881  0.00  0.00    -0.053 C 
BRANCH  29  30
ATOM     30  C   UNL     1      84.138  50.841  42.917  0.00  0.00    -0.053 C 
BRANCH  30  31
ATOM     31  C   UNL     1      84.553  50.455  44.349  0.00  0.00    -0.053 C 
BRANCH  31  32
ATOM     32  C   UNL     1      85.676  49.403  44.449  0.00  0.00    -0.053 C 
BRANCH  32  33
ATOM     33  C   UNL     1      86.352  49.339  45.834  0.00  0.00    -0.053 C 
BRANCH  33  34
ATOM     34  C   UNL     1      87.611  50.221  45.910  0.00  0.00    -0.053 C 
BRANCH  34  35
ATOM     35  C   UNL     1      87.370  51.520  46.697  0.00  0.00    -0.053 C 
BRANCH  35  36
ATOM     36  C   UNL     1      86.549  51.282  47.974  0.00  0.00    -0.053 C 
BRANCH  36  37
ATOM     37  C   UNL     1      85.652  52.492  48.283  0.00  0.00    -0.049 C 
BRANCH  37  38
ATOM     38  C   UNL     1      84.595  52.730  47.195  0.00  0.00    -0.021 C 
BRANCH  38  39
ATOM     39  C   UNL     1      84.820  54.018  46.451  0.00  0.00    +0.036 C 
ATOM     40  C   UNL     1      85.241  54.135  45.196  0.00  0.00    -0.034 C 
ATOM     41  C   UNL     1      85.275  55.583  44.781  0.00  0.00    +0.120 C 
ATOM     42  O   UNL     1      84.866  56.278  45.955  0.00  0.00    -0.454 OA
ATOM     43  C   UNL     1      84.584  55.356  46.944  0.00  0.00    +0.336 C 
ATOM     44  O   UNL     1      84.199  55.659  48.104  0.00  0.00    -0.245 OA
ATOM     45  C   UNL     1      86.680  56.010  44.364  0.00  0.00    -0.024 C 
ENDBRANCH  38  39
ENDBRANCH  37  38
ENDBRANCH  36  37
ENDBRANCH  35  36
ENDBRANCH  34  35
ENDBRANCH  33  34
ENDBRANCH  32  33
ENDBRANCH  31  32
ENDBRANCH  30  31
ENDBRANCH  29  30
ENDBRANCH  28  29
ENDBRANCH  27  28
ENDBRANCH  24  27
ENDBRANCH   4  24
TORSDOF 27
ENDMDL
MODEL 6
REMARK VINA RESULT:    -7.827      1.841      6.333
REMARK INTER + INTRA:         -24.946
REMARK INTER:                 -20.154
REMARK INTRA:                  -4.792
REMARK UNBOUND:                -5.223
REMARK  Name = 
REMARK  29 active torsions:
REMARK  status: ('A' for Active; 'I' for Inactive)
REMARK    1  A    between atoms: C_1  and  C_2
REMARK    2  A    between atoms: C_2  and  C_3
REMARK    3  A    between atoms: C_3  and  C_4
REMARK    4  A    between atoms: C_4  and  C_5
REMARK    5  A    between atoms: C_5  and  C_6
REMARK    6  A    between atoms: C_6  and  C_7
REMARK    7  A    between atoms: C_7  and  C_8
REMARK    8  A    between atoms: C_8  and  C_9
REMARK    9  A    between atoms: C_9  and  C_10
REMARK   10  A    between atoms: C_10  and  C_11
REMARK   11  A    between atoms: C_11  and  C_12
REMARK   12  A    between atoms: C_11  and  O_43
REMARK   13  A    between atoms: C_15  and  C_17
REMARK   14  A    between atoms: C_20  and  C_22
REMARK   15  A    between atoms: C_22  and  C_23
REMARK   16  A    between atoms: C_22  and  O_42
REMARK   17  A    between atoms: C_23  and  C_24
REMARK   18  A    between atoms: C_24  and  C_25
REMARK   19  A    between atoms: C_25  and  C_26
REMARK   20  A    between atoms: C_26  and  C_27
REMARK   21  A    between atoms: C_27  and  C_28
REMARK   22  A    between atoms: C_28  and  C_29
REMARK   23  A    between atoms: C_29  and  C_30
REMARK   24  A    between atoms: C_30  and  C_31
REMARK   25  A    between atoms: C_31  and  C_32
REMARK   26  A    between atoms: C_32  and  C_33
REMARK   27  A    between atoms: C_33  and  C_34
REMARK   28  A    between atoms: C_34  and  C_35
REMARK   29  A    between atoms: C_37  and  C_41
REMARK                            x       y       z     vdW  Elec       q    Type
REMARK                         _______ _______ _______ _____ _____    ______ ____
ROOT
ATOM      1  C   UNL     1      87.526  46.341  42.279  0.00  0.00    +0.085 C 
ATOM      2  C   UNL     1      88.192  44.977  42.142  0.00  0.00    -0.022 C 
ATOM      3  C   UNL     1      87.254  44.046  42.864  0.00  0.00    -0.022 C 
ATOM      4  C   UNL     1      86.173  44.960  43.456  0.00  0.00    +0.085 C 
ATOM      5  O   UNL     1      86.638  46.289  43.369  0.00  0.00    -0.368 OA
ENDROOT
BRANCH   1   9
ATOM      6  C   UNL     1      89.235  49.363  41.339  0.00  0.00    +0.085 C 
ATOM      7  C   UNL     1      90.478  48.549  41.719  0.00  0.00    -0.022 C 
ATOM      8  C   UNL     1      89.933  47.189  42.013  0.00  0.00    -0.022 C 
ATOM      9  C   UNL     1      88.513  47.513  42.446  0.00  0.00    +0.085 C 
ATOM     10  O   UNL     1      88.080  48.644  41.726  0.00  0.00    -0.368 OA
BRANCH   6  11
ATOM     11  C   UNL     1      89.194  50.773  41.974  0.00  0.00    +0.081 C 
BRANCH  11  12
ATOM     12  O   UNL     1      89.780  51.684  41.077  0.00  0.00    -0.389 OA
ATOM     13  H   UNL     1      90.430  52.228  41.548  0.00  0.00    +0.000 HD
ENDBRANCH  11  12
BRANCH  11  14
ATOM     14  C   UNL     1      87.764  51.260  42.336  0.00  0.00    -0.024 C 
BRANCH  14  15
ATOM     15  C   UNL     1      87.545  51.590  43.829  0.00  0.00    -0.051 C 
BRANCH  15  16
ATOM     16  C   UNL     1      87.780  50.428  44.813  0.00  0.00    -0.053 C 
BRANCH  16  17
ATOM     17  C   UNL     1      86.559  50.012  45.659  0.00  0.00    -0.053 C 
BRANCH  17  18
ATOM     18  C   UNL     1      86.664  50.393  47.151  0.00  0.00    -0.053 C 
BRANCH  18  19
ATOM     19  C   UNL     1      86.394  51.886  47.393  0.00  0.00    -0.053 C 
BRANCH  19  20
ATOM     20  C   UNL     1      85.204  52.382  46.560  0.00  0.00    -0.053 C 
BRANCH  20  21
ATOM     21  C   UNL     1      84.779  53.790  47.003  0.00  0.00    -0.053 C 
BRANCH  21  23
ATOM     22  C   UNL     1      85.869  56.070  46.623  0.00  0.00    -0.065 C 
ATOM     23  C   UNL     1      85.977  54.703  47.302  0.00  0.00    -0.056 C 
ENDBRANCH  21  23
ENDBRANCH  20  21
ENDBRANCH  19  20
ENDBRANCH  18  19
ENDBRANCH  17  18
ENDBRANCH  16  17
ENDBRANCH  15  16
ENDBRANCH  14  15
ENDBRANCH  11  14
ENDBRANCH   6  11
ENDBRANCH   1   9
BRANCH   4  24
ATOM     24  C   UNL     1      84.788  44.835  42.751  0.00  0.00    +0.081 C 
BRANCH  24  25
ATOM     25  O   UNL     1      84.891  43.873  41.727  0.00  0.00    -0.389 OA
ATOM     26  H   UNL     1      85.473  44.208  41.027  0.00  0.00    +0.000 HD
ENDBRANCH  24  25
BRANCH  24  27
ATOM     27  C   UNL     1      84.305  46.163  42.115  0.00  0.00    -0.024 C 
BRANCH  27  28
ATOM     28  C   UNL     1      83.221  46.911  42.916  0.00  0.00    -0.051 C 
BRANCH  28  29
ATOM     29  C   UNL     1      82.042  46.032  43.366  0.00  0.00    -0.053 C 
BRANCH  29  30
ATOM     30  C   UNL     1      81.492  46.418  44.756  0.00  0.00    -0.053 C 
BRANCH  30  31
ATOM     31  C   UNL     1      79.958  46.547  44.779  0.00  0.00    -0.053 C 
BRANCH  31  32
ATOM     32  C   UNL     1      79.386  47.743  43.991  0.00  0.00    -0.053 C 
BRANCH  32  33
ATOM     33  C   UNL     1      80.151  49.064  44.216  0.00  0.00    -0.053 C 
BRANCH  33  34
ATOM     34  C   UNL     1      80.230  49.917  42.937  0.00  0.00    -0.053 C 
BRANCH  34  35
ATOM     35  C   UNL     1      81.677  50.127  42.461  0.00  0.00    -0.053 C 
BRANCH  35  36
ATOM     36  C   UNL     1      82.673  50.171  43.630  0.00  0.00    -0.053 C 
BRANCH  36  37
ATOM     37  C   UNL     1      83.417  51.515  43.667  0.00  0.00    -0.049 C 
BRANCH  37  38
ATOM     38  C   UNL     1      84.074  51.858  42.322  0.00  0.00    -0.021 C 
BRANCH  38  39
ATOM     39  C   UNL     1      84.480  53.304  42.236  0.00  0.00    +0.036 C 
ATOM     40  C   UNL     1      84.706  54.117  43.263  0.00  0.00    -0.034 C 
ATOM     41  C   UNL     1      85.163  55.468  42.778  0.00  0.00    +0.120 C 
ATOM     42  O   UNL     1      85.130  55.345  41.359  0.00  0.00    -0.454 OA
ATOM     43  C   UNL     1      84.738  54.061  41.032  0.00  0.00    +0.336 C 
ATOM     44  O   UNL     1      84.610  53.640  39.853  0.00  0.00    -0.245 OA
ATOM     45  C   UNL     1      84.219  56.575  43.244  0.00  0.00    -0.024 C 
ENDBRANCH  38  39
ENDBRANCH  37  38
ENDBRANCH  36  37
ENDBRANCH  35  36
ENDBRANCH  34  35
ENDBRANCH  33  34
ENDBRANCH  32  33
ENDBRANCH  31  32
ENDBRANCH  30  31
ENDBRANCH  29  30
ENDBRANCH  28  29
ENDBRANCH  27  28
ENDBRANCH  24  27
ENDBRANCH   4  24
TORSDOF 27
ENDMDL
MODEL 7
REMARK VINA RESULT:    -7.794      2.283      8.003
REMARK INTER + INTRA:         -24.863
REMARK INTER:                 -19.641
REMARK INTRA:                  -5.223
REMARK UNBOUND:                -5.223
REMARK  Name = 
REMARK  29 active torsions:
REMARK  status: ('A' for Active; 'I' for Inactive)
REMARK    1  A    between atoms: C_1  and  C_2
REMARK    2  A    between atoms: C_2  and  C_3
REMARK    3  A    between atoms: C_3  and  C_4
REMARK    4  A    between atoms: C_4  and  C_5
REMARK    5  A    between atoms: C_5  and  C_6
REMARK    6  A    between atoms: C_6  and  C_7
REMARK    7  A    between atoms: C_7  and  C_8
REMARK    8  A    between atoms: C_8  and  C_9
REMARK    9  A    between atoms: C_9  and  C_10
REMARK   10  A    between atoms: C_10  and  C_11
REMARK   11  A    between atoms: C_11  and  C_12
REMARK   12  A    between atoms: C_11  and  O_43
REMARK   13  A    between atoms: C_15  and  C_17
REMARK   14  A    between atoms: C_20  and  C_22
REMARK   15  A    between atoms: C_22  and  C_23
REMARK   16  A    between atoms: C_22  and  O_42
REMARK   17  A    between atoms: C_23  and  C_24
REMARK   18  A    between atoms: C_24  and  C_25
REMARK   19  A    between atoms: C_25  and  C_26
REMARK   20  A    between atoms: C_26  and  C_27
REMARK   21  A    between atoms: C_27  and  C_28
REMARK   22  A    between atoms: C_28  and  C_29
REMARK   23  A    between atoms: C_29  and  C_30
REMARK   24  A    between atoms: C_30  and  C_31
REMARK   25  A    between atoms: C_31  and  C_32
REMARK   26  A    between atoms: C_32  and  C_33
REMARK   27  A    between atoms: C_33  and  C_34
REMARK   28  A    between atoms: C_34  and  C_35
REMARK   29  A    between atoms: C_37  and  C_41
REMARK                            x       y       z     vdW  Elec       q    Type
REMARK                         _______ _______ _______ _____ _____    ______ ____
ROOT
ATOM      1  C   UNL     1      85.029  54.258  44.404  0.00  0.00    +0.085 C 
ATOM      2  C   UNL     1      86.377  54.507  45.068  0.00  0.00    -0.022 C 
ATOM      3  C   UNL     1      86.230  55.878  45.674  0.00  0.00    -0.022 C 
ATOM      4  C   UNL     1      84.846  56.361  45.221  0.00  0.00    +0.085 C 
ATOM      5  O   UNL     1      84.407  55.501  44.192  0.00  0.00    -0.368 OA
ENDROOT
BRANCH   1   9
ATOM      6  C   UNL     1      86.106  53.570  41.041  0.00  0.00    +0.085 C 
ATOM      7  C   UNL     1      84.602  53.387  40.802  0.00  0.00    -0.022 C 
ATOM      8  C   UNL     1      83.988  53.778  42.108  0.00  0.00    -0.022 C 
ATOM      9  C   UNL     1      85.112  53.467  43.083  0.00  0.00    +0.085 C 
ATOM     10  O   UNL     1      86.338  53.700  42.430  0.00  0.00    -0.368 OA
BRANCH   6  11
ATOM     11  C   UNL     1      86.972  52.414  40.486  0.00  0.00    +0.081 C 
BRANCH  11  12
ATOM     12  O   UNL     1      88.246  52.922  40.174  0.00  0.00    -0.389 OA
ATOM     13  H   UNL     1      88.926  52.336  40.541  0.00  0.00    +0.000 HD
ENDBRANCH  11  12
BRANCH  11  14
ATOM     14  C   UNL     1      87.124  51.215  41.461  0.00  0.00    -0.024 C 
BRANCH  14  15
ATOM     15  C   UNL     1      88.347  50.310  41.196  0.00  0.00    -0.051 C 
BRANCH  15  16
ATOM     16  C   UNL     1      89.520  50.463  42.184  0.00  0.00    -0.053 C 
BRANCH  16  17
ATOM     17  C   UNL     1      90.644  49.415  42.054  0.00  0.00    -0.053 C 
BRANCH  17  18
ATOM     18  C   UNL     1      90.755  48.454  43.256  0.00  0.00    -0.053 C 
BRANCH  18  19
ATOM     19  C   UNL     1      90.747  46.978  42.827  0.00  0.00    -0.053 C 
BRANCH  19  20
ATOM     20  C   UNL     1      89.709  46.722  41.727  0.00  0.00    -0.053 C 
BRANCH  20  21
ATOM     21  C   UNL     1      88.309  46.536  42.333  0.00  0.00    -0.053 C 
BRANCH  21  23
ATOM     22  C   UNL     1      88.137  44.111  43.121  0.00  0.00    -0.065 C 
ATOM     23  C   UNL     1      87.729  45.140  42.064  0.00  0.00    -0.056 C 
ENDBRANCH  21  23
ENDBRANCH  20  21
ENDBRANCH  19  20
ENDBRANCH  18  19
ENDBRANCH  17  18
ENDBRANCH  16  17
ENDBRANCH  15  16
ENDBRANCH  14  15
ENDBRANCH  11  14
ENDBRANCH   6  11
ENDBRANCH   1   9
BRANCH   4  24
ATOM     24  C   UNL     1      83.788  56.402  46.365  0.00  0.00    +0.081 C 
BRANCH  24  25
ATOM     25  O   UNL     1      83.465  57.747  46.628  0.00  0.00    -0.389 OA
ATOM     26  H   UNL     1      84.178  58.320  46.306  0.00  0.00    +0.000 HD
ENDBRANCH  24  25
BRANCH  24  27
ATOM     27  C   UNL     1      84.291  55.762  47.684  0.00  0.00    -0.024 C 
BRANCH  27  28
ATOM     28  C   UNL     1      83.607  54.433  48.063  0.00  0.00    -0.051 C 
BRANCH  28  29
ATOM     29  C   UNL     1      84.474  53.491  48.915  0.00  0.00    -0.053 C 
BRANCH  29  30
ATOM     30  C   UNL     1      85.700  52.941  48.155  0.00  0.00    -0.053 C 
BRANCH  30  31
ATOM     31  C   UNL     1      86.175  51.578  48.690  0.00  0.00    -0.053 C 
BRANCH  31  32
ATOM     32  C   UNL     1      86.704  50.599  47.622  0.00  0.00    -0.053 C 
BRANCH  32  33
ATOM     33  C   UNL     1      87.603  51.261  46.558  0.00  0.00    -0.053 C 
BRANCH  33  34
ATOM     34  C   UNL     1      87.158  50.920  45.125  0.00  0.00    -0.053 C 
BRANCH  34  35
ATOM     35  C   UNL     1      87.182  49.408  44.847  0.00  0.00    -0.053 C 
BRANCH  35  36
ATOM     36  C   UNL     1      85.914  48.928  44.124  0.00  0.00    -0.053 C 
BRANCH  36  37
ATOM     37  C   UNL     1      84.744  49.893  44.371  0.00  0.00    -0.049 C 
BRANCH  37  38
ATOM     38  C   UNL     1      83.939  50.175  43.094  0.00  0.00    -0.021 C 
BRANCH  38  39
ATOM     39  C   UNL     1      82.475  49.867  43.260  0.00  0.00    +0.036 C 
ATOM     40  C   UNL     1      81.950  48.999  44.118  0.00  0.00    -0.034 C 
ATOM     41  C   UNL     1      80.445  49.020  44.039  0.00  0.00    +0.120 C 
ATOM     42  O   UNL     1      80.177  49.967  43.009  0.00  0.00    -0.454 OA
ATOM     43  C   UNL     1      81.375  50.481  42.552  0.00  0.00    +0.336 C 
ATOM     44  O   UNL     1      81.472  51.341  41.638  0.00  0.00    -0.245 OA
ATOM     45  C   UNL     1      79.888  47.648  43.667  0.00  0.00    -0.024 C 
ENDBRANCH  38  39
ENDBRANCH  37  38
ENDBRANCH  36  37
ENDBRANCH  35  36
ENDBRANCH  34  35
ENDBRANCH  33  34
ENDBRANCH  32  33
ENDBRANCH  31  32
ENDBRANCH  30  31
ENDBRANCH  29  30
ENDBRANCH  28  29
ENDBRANCH  27  28
ENDBRANCH  24  27
ENDBRANCH   4  24
TORSDOF 27
ENDMDL
MODEL 8
REMARK VINA RESULT:    -7.792      2.643      8.408
REMARK INTER + INTRA:         -24.857
REMARK INTER:                 -19.120
REMARK INTRA:                  -5.738
REMARK UNBOUND:                -5.223
REMARK  Name = 
REMARK  29 active torsions:
REMARK  status: ('A' for Active; 'I' for Inactive)
REMARK    1  A    between atoms: C_1  and  C_2
REMARK    2  A    between atoms: C_2  and  C_3
REMARK    3  A    between atoms: C_3  and  C_4
REMARK    4  A    between atoms: C_4  and  C_5
REMARK    5  A    between atoms: C_5  and  C_6
REMARK    6  A    between atoms: C_6  and  C_7
REMARK    7  A    between atoms: C_7  and  C_8
REMARK    8  A    between atoms: C_8  and  C_9
REMARK    9  A    between atoms: C_9  and  C_10
REMARK   10  A    between atoms: C_10  and  C_11
REMARK   11  A    between atoms: C_11  and  C_12
REMARK   12  A    between atoms: C_11  and  O_43
REMARK   13  A    between atoms: C_15  and  C_17
REMARK   14  A    between atoms: C_20  and  C_22
REMARK   15  A    between atoms: C_22  and  C_23
REMARK   16  A    between atoms: C_22  and  O_42
REMARK   17  A    between atoms: C_23  and  C_24
REMARK   18  A    between atoms: C_24  and  C_25
REMARK   19  A    between atoms: C_25  and  C_26
REMARK   20  A    between atoms: C_26  and  C_27
REMARK   21  A    between atoms: C_27  and  C_28
REMARK   22  A    between atoms: C_28  and  C_29
REMARK   23  A    between atoms: C_29  and  C_30
REMARK   24  A    between atoms: C_30  and  C_31
REMARK   25  A    between atoms: C_31  and  C_32
REMARK   26  A    between atoms: C_32  and  C_33
REMARK   27  A    between atoms: C_33  and  C_34
REMARK   28  A    between atoms: C_34  and  C_35
REMARK   29  A    between atoms: C_37  and  C_41
REMARK                            x       y       z     vdW  Elec       q    Type
REMARK                         _______ _______ _______ _____ _____    ______ ____
ROOT
ATOM      1  C   UNL     1      85.508  54.966  46.171  0.00  0.00    +0.085 C 
ATOM      2  C   UNL     1      84.251  55.681  46.652  0.00  0.00    -0.022 C 
ATOM      3  C   UNL     1      84.449  57.101  46.192  0.00  0.00    -0.022 C 
ATOM      4  C   UNL     1      85.853  57.122  45.575  0.00  0.00    +0.085 C 
ATOM      5  O   UNL     1      86.508  55.931  45.956  0.00  0.00    -0.368 OA
ENDROOT
BRANCH   1   9
ATOM      6  C   UNL     1      85.958  51.612  47.393  0.00  0.00    +0.085 C 
ATOM      7  C   UNL     1      85.481  52.235  48.711  0.00  0.00    -0.022 C 
ATOM      8  C   UNL     1      85.116  53.634  48.329  0.00  0.00    -0.022 C 
ATOM      9  C   UNL     1      86.018  53.870  47.128  0.00  0.00    +0.085 C 
ATOM     10  O   UNL     1      86.180  52.645  46.452  0.00  0.00    -0.368 OA
BRANCH   6  11
ATOM     11  C   UNL     1      87.244  50.764  47.531  0.00  0.00    +0.081 C 
BRANCH  11  12
ATOM     12  O   UNL     1      86.875  49.436  47.812  0.00  0.00    -0.389 OA
ATOM     13  H   UNL     1      86.870  49.298  48.772  0.00  0.00    +0.000 HD
ENDBRANCH  11  12
BRANCH  11  14
ATOM     14  C   UNL     1      88.154  50.787  46.272  0.00  0.00    -0.024 C 
BRANCH  14  15
ATOM     15  C   UNL     1      87.590  50.036  45.046  0.00  0.00    -0.051 C 
BRANCH  15  16
ATOM     16  C   UNL     1      88.530  49.940  43.829  0.00  0.00    -0.053 C 
BRANCH  16  17
ATOM     17  C   UNL     1      88.007  49.101  42.645  0.00  0.00    -0.053 C 
BRANCH  17  18
ATOM     18  C   UNL     1      86.667  48.386  42.919  0.00  0.00    -0.053 C 
BRANCH  18  19
ATOM     19  C   UNL     1      86.688  46.915  42.476  0.00  0.00    -0.053 C 
BRANCH  19  20
ATOM     20  C   UNL     1      85.455  46.159  42.990  0.00  0.00    -0.053 C 
BRANCH  20  21
ATOM     21  C   UNL     1      84.331  47.139  43.361  0.00  0.00    -0.053 C 
BRANCH  21  23
ATOM     22  C   UNL     1      81.840  47.677  43.173  0.00  0.00    -0.065 C 
ATOM     23  C   UNL     1      82.978  46.743  42.753  0.00  0.00    -0.056 C 
ENDBRANCH  21  23
ENDBRANCH  20  21
ENDBRANCH  19  20
ENDBRANCH  18  19
ENDBRANCH  17  18
ENDBRANCH  16  17
ENDBRANCH  15  16
ENDBRANCH  14  15
ENDBRANCH  11  14
ENDBRANCH   6  11
ENDBRANCH   1   9
BRANCH   4  24
ATOM     24  C   UNL     1      85.857  57.256  44.022  0.00  0.00    +0.081 C 
BRANCH  24  25
ATOM     25  O   UNL     1      86.241  58.568  43.686  0.00  0.00    -0.389 OA
ATOM     26  H   UNL     1      86.355  59.089  44.496  0.00  0.00    +0.000 HD
ENDBRANCH  24  25
BRANCH  24  27
ATOM     27  C   UNL     1      84.472  56.982  43.383  0.00  0.00    -0.024 C 
BRANCH  27  28
ATOM     28  C   UNL     1      84.292  55.565  42.803  0.00  0.00    -0.051 C 
BRANCH  28  29
ATOM     29  C   UNL     1      84.334  55.494  41.267  0.00  0.00    -0.053 C 
BRANCH  29  30
ATOM     30  C   UNL     1      83.338  54.472  40.679  0.00  0.00    -0.053 C 
BRANCH  30  31
ATOM     31  C   UNL     1      82.327  53.954  41.719  0.00  0.00    -0.053 C 
BRANCH  31  32
ATOM     32  C   UNL     1      81.528  52.706  41.295  0.00  0.00    -0.053 C 
BRANCH  32  33
ATOM     33  C   UNL     1      82.219  51.372  41.646  0.00  0.00    -0.053 C 
BRANCH  33  34
ATOM     34  C   UNL     1      82.463  51.221  43.157  0.00  0.00    -0.053 C 
BRANCH  34  35
ATOM     35  C   UNL     1      83.914  50.827  43.480  0.00  0.00    -0.053 C 
BRANCH  35  36
ATOM     36  C   UNL     1      84.859  52.039  43.487  0.00  0.00    -0.053 C 
BRANCH  36  37
ATOM     37  C   UNL     1      85.797  52.011  42.270  0.00  0.00    -0.049 C 
BRANCH  37  38
ATOM     38  C   UNL     1      87.006  52.941  42.443  0.00  0.00    -0.021 C 
BRANCH  38  39
ATOM     39  C   UNL     1      87.928  52.907  41.254  0.00  0.00    +0.036 C 
ATOM     40  C   UNL     1      89.235  52.672  41.282  0.00  0.00    -0.034 C 
ATOM     41  C   UNL     1      89.801  52.650  39.886  0.00  0.00    +0.120 C 
ATOM     42  O   UNL     1      88.675  52.943  39.063  0.00  0.00    -0.454 OA
ATOM     43  C   UNL     1      87.560  53.084  39.868  0.00  0.00    +0.336 C 
ATOM     44  O   UNL     1      86.407  53.349  39.437  0.00  0.00    -0.245 OA
ATOM     45  C   UNL     1      90.887  53.709  39.708  0.00  0.00    -0.024 C 
ENDBRANCH  38  39
ENDBRANCH  37  38
ENDBRANCH  36  37
ENDBRANCH  35  36
ENDBRANCH  34  35
ENDBRANCH  33  34
ENDBRANCH  32  33
ENDBRANCH  31  32
ENDBRANCH  30  31
ENDBRANCH  29  30
ENDBRANCH  28  29
ENDBRANCH  27  28
ENDBRANCH  24  27
ENDBRANCH   4  24
TORSDOF 27
ENDMDL
MODEL 9
REMARK VINA RESULT:    -7.775      1.897      7.869
REMARK INTER + INTRA:         -24.815
REMARK INTER:                 -19.778
REMARK INTRA:                  -5.037
REMARK UNBOUND:                -5.223
REMARK  Name = 
REMARK  29 active torsions:
REMARK  status: ('A' for Active; 'I' for Inactive)
REMARK    1  A    between atoms: C_1  and  C_2
REMARK    2  A    between atoms: C_2  and  C_3
REMARK    3  A    between atoms: C_3  and  C_4
REMARK    4  A    between atoms: C_4  and  C_5
REMARK    5  A    between atoms: C_5  and  C_6
REMARK    6  A    between atoms: C_6  and  C_7
REMARK    7  A    between atoms: C_7  and  C_8
REMARK    8  A    between atoms: C_8  and  C_9
REMARK    9  A    between atoms: C_9  and  C_10
REMARK   10  A    between atoms: C_10  and  C_11
REMARK   11  A    between atoms: C_11  and  C_12
REMARK   12  A    between atoms: C_11  and  O_43
REMARK   13  A    between atoms: C_15  and  C_17
REMARK   14  A    between atoms: C_20  and  C_22
REMARK   15  A    between atoms: C_22  and  C_23
REMARK   16  A    between atoms: C_22  and  O_42
REMARK   17  A    between atoms: C_23  and  C_24
REMARK   18  A    between atoms: C_24  and  C_25
REMARK   19  A    between atoms: C_25  and  C_26
REMARK   20  A    between atoms: C_26  and  C_27
REMARK   21  A    between atoms: C_27  and  C_28
REMARK   22  A    between atoms: C_28  and  C_29
REMARK   23  A    between atoms: C_29  and  C_30
REMARK   24  A    between atoms: C_30  and  C_31
REMARK   25  A    between atoms: C_31  and  C_32
REMARK   26  A    between atoms: C_32  and  C_33
REMARK   27  A    between atoms: C_33  and  C_34
REMARK   28  A    between atoms: C_34  and  C_35
REMARK   29  A    between atoms: C_37  and  C_41
REMARK                            x       y       z     vdW  Elec       q    Type
REMARK                         _______ _______ _______ _____ _____    ______ ____
ROOT
ATOM      1  C   UNL     1      85.253  54.940  45.945  0.00  0.00    +0.085 C 
ATOM      2  C   UNL     1      84.586  56.087  46.695  0.00  0.00    -0.022 C 
ATOM      3  C   UNL     1      84.789  57.273  45.789  0.00  0.00    -0.022 C 
ATOM      4  C   UNL     1      85.651  56.743  44.636  0.00  0.00    +0.085 C 
ATOM      5  O   UNL     1      86.164  55.487  45.024  0.00  0.00    -0.368 OA
ENDROOT
BRANCH   1   9
ATOM      6  C   UNL     1      85.742  51.767  47.567  0.00  0.00    +0.085 C 
ATOM      7  C   UNL     1      85.885  52.646  48.816  0.00  0.00    -0.022 C 
ATOM      8  C   UNL     1      85.568  54.020  48.319  0.00  0.00    -0.022 C 
ATOM      9  C   UNL     1      85.959  53.915  46.854  0.00  0.00    +0.085 C 
ATOM     10  O   UNL     1      85.704  52.598  46.423  0.00  0.00    -0.368 OA
BRANCH   6  11
ATOM     11  C   UNL     1      86.873  50.725  47.403  0.00  0.00    +0.081 C 
BRANCH  11  12
ATOM     12  O   UNL     1      86.315  49.439  47.517  0.00  0.00    -0.389 OA
ATOM     13  H   UNL     1      86.894  48.795  47.081  0.00  0.00    +0.000 HD
ENDBRANCH  11  12
BRANCH  11  14
ATOM     14  C   UNL     1      87.639  50.832  46.056  0.00  0.00    -0.024 C 
BRANCH  14  15
ATOM     15  C   UNL     1      87.162  49.860  44.955  0.00  0.00    -0.051 C 
BRANCH  15  16
ATOM     16  C   UNL     1      87.055  50.454  43.537  0.00  0.00    -0.053 C 
BRANCH  16  17
ATOM     17  C   UNL     1      87.460  51.936  43.402  0.00  0.00    -0.053 C 
BRANCH  17  18
ATOM     18  C   UNL     1      87.665  52.406  41.946  0.00  0.00    -0.053 C 
BRANCH  18  19
ATOM     19  C   UNL     1      89.148  52.626  41.607  0.00  0.00    -0.053 C 
BRANCH  19  20
ATOM     20  C   UNL     1      89.615  51.673  40.498  0.00  0.00    -0.053 C 
BRANCH  20  21
ATOM     21  C   UNL     1      89.517  50.211  40.961  0.00  0.00    -0.053 C 
BRANCH  21  23
ATOM     22  C   UNL     1      90.225  48.566  42.784  0.00  0.00    -0.065 C 
ATOM     23  C   UNL     1      90.553  49.861  42.038  0.00  0.00    -0.056 C 
ENDBRANCH  21  23
ENDBRANCH  20  21
ENDBRANCH  19  20
ENDBRANCH  18  19
ENDBRANCH  17  18
ENDBRANCH  16  17
ENDBRANCH  15  16
ENDBRANCH  14  15
ENDBRANCH  11  14
ENDBRANCH   6  11
ENDBRANCH   1   9
BRANCH   4  24
ATOM     24  C   UNL     1      84.881  56.608  43.286  0.00  0.00    +0.081 C 
BRANCH  24  25
ATOM     25  O   UNL     1      83.499  56.640  43.553  0.00  0.00    -0.389 OA
ATOM     26  H   UNL     1      83.143  57.508  43.307  0.00  0.00    +0.000 HD
ENDBRANCH  24  25
BRANCH  24  27
ATOM     27  C   UNL     1      85.194  55.288  42.536  0.00  0.00    -0.024 C 
BRANCH  27  28
ATOM     28  C   UNL     1      83.985  54.636  41.836  0.00  0.00    -0.051 C 
BRANCH  28  29
ATOM     29  C   UNL     1      84.006  53.099  41.830  0.00  0.00    -0.053 C 
BRANCH  29  30
ATOM     30  C   UNL     1      83.751  52.483  43.222  0.00  0.00    -0.053 C 
BRANCH  30  31
ATOM     31  C   UNL     1      83.385  50.988  43.158  0.00  0.00    -0.053 C 
BRANCH  31  32
ATOM     32  C   UNL     1      82.228  50.634  42.202  0.00  0.00    -0.053 C 
BRANCH  32  33
ATOM     33  C   UNL     1      80.966  50.107  42.915  0.00  0.00    -0.053 C 
BRANCH  33  34
ATOM     34  C   UNL     1      81.305  49.138  44.061  0.00  0.00    -0.053 C 
BRANCH  34  35
ATOM     35  C   UNL     1      80.907  47.688  43.740  0.00  0.00    -0.053 C 
BRANCH  35  36
ATOM     36  C   UNL     1      82.073  46.707  43.937  0.00  0.00    -0.053 C 
BRANCH  36  37
ATOM     37  C   UNL     1      83.136  46.891  42.843  0.00  0.00    -0.049 C 
BRANCH  37  38
ATOM     38  C   UNL     1      84.517  47.235  43.420  0.00  0.00    -0.021 C 
BRANCH  38  39
ATOM     39  C   UNL     1      85.549  46.189  43.097  0.00  0.00    +0.036 C 
ATOM     40  C   UNL     1      85.526  44.919  43.487  0.00  0.00    -0.034 C 
ATOM     41  C   UNL     1      86.694  44.164  42.905  0.00  0.00    +0.120 C 
ATOM     42  O   UNL     1      87.407  45.160  42.176  0.00  0.00    -0.454 OA
ATOM     43  C   UNL     1      86.727  46.358  42.276  0.00  0.00    +0.336 C 
ATOM     44  O   UNL     1      87.106  47.432  41.740  0.00  0.00    -0.245 OA
ATOM     45  C   UNL     1      87.574  43.568  44.002  0.00  0.00    -0.024 C 
ENDBRANCH  38  39
ENDBRANCH  37  38
ENDBRANCH  36  37
ENDBRANCH  35  36
ENDBRANCH  34  35
ENDBRANCH  33  34
ENDBRANCH  32  33
ENDBRANCH  31  32
ENDBRANCH  30  31
ENDBRANCH  29  30
ENDBRANCH  28  29
ENDBRANCH  27  28
ENDBRANCH  24  27
ENDBRANCH   4  24
TORSDOF 27
ENDMDL
