MODEL 1
REMARK VINA RESULT:    -8.092      0.000      0.000
REMARK INTER + INTRA:         -10.223
REMARK INTER:                  -9.618
REMARK INTRA:                  -0.605
REMARK UNBOUND:                -0.238
REMARK  Name = 
REMARK  8 active torsions:
REMARK  status: ('A' for Active; 'I' for Inactive)
REMARK    1  A    between atoms: C_1  and  O_2
REMARK    2  A    between atoms: O_2  and  C_3
REMARK    3  A    between atoms: C_4  and  C_5
REMARK    4  A    between atoms: C_7  and  C_13
REMARK    5  A    between atoms: C_10  and  C_11
REMARK    6  A    between atoms: C_10  and  C_12
REMARK    7  A    between atoms: C_13  and  C_15
REMARK    8  A    between atoms: C_16  and  C_17
REMARK                            x       y       z     vdW  Elec       q    Type
REMARK                         _______ _______ _______ _____ _____    ______ ____
ROOT
ATOM      1  C   UNL     1      83.029  53.340  41.973  0.00  0.00    +0.117 C 
ATOM      2  C   UNL     1      83.017  52.222  42.737  0.00  0.00    +0.030 C 
ATOM      3  C   UNL     1      81.873  51.240  42.648  0.00  0.00    -0.033 C 
ATOM      4  C   UNL     1      84.138  51.921  43.672  0.00  0.00    +0.137 C 
ATOM      5  C   UNL     1      85.307  52.578  43.580  0.00  0.00    +0.107 C 
ATOM      6  C   UNL     1      85.447  53.684  42.611  0.00  0.00    +0.183 C 
ATOM      7  O   UNL     1      86.588  54.186  42.405  0.00  0.00    -0.291 OA
ATOM      8  C   UNL     1      84.232  54.278  41.921  0.00  0.00    +0.086 C 
ATOM      9  C   UNL     1      84.577  54.562  40.444  0.00  0.00    -0.046 C 
ATOM     10  C   UNL     1      83.873  55.596  42.629  0.00  0.00    -0.046 C 
ATOM     11  O   UNL     1      83.975  50.962  44.678  0.00  0.00    -0.506 OA
ENDROOT
BRANCH   1  13
ATOM     12  C   UNL     1      80.793  54.372  41.693  0.00  0.00    +0.078 C 
ATOM     13  O   UNL     1      81.921  53.669  41.179  0.00  0.00    -0.498 OA
ENDBRANCH   1  13
BRANCH   5  14
ATOM     14  C   UNL     1      86.453  52.243  44.461  0.00  0.00    +0.193 C 
ATOM     15  O   UNL     1      86.621  52.903  45.524  0.00  0.00    -0.287 OA
BRANCH  14  16
ATOM     16  C   UNL     1      87.416  51.184  44.088  0.00  0.00    -0.014 C 
ATOM     17  C   UNL     1      87.405  50.601  42.881  0.00  0.00    -0.051 C 
BRANCH  17  18
ATOM     18  C   UNL     1      88.346  49.528  42.477  0.00  0.00    -0.025 A 
ATOM     19  C   UNL     1      87.821  48.286  42.083  0.00  0.00    -0.055 A 
ATOM     20  C   UNL     1      88.671  47.249  41.684  0.00  0.00    -0.061 A 
ATOM     21  C   UNL     1      90.053  47.444  41.665  0.00  0.00    -0.062 A 
ATOM     22  C   UNL     1      90.588  48.680  42.038  0.00  0.00    -0.061 A 
ATOM     23  C   UNL     1      89.743  49.720  42.438  0.00  0.00    -0.055 A 
ENDBRANCH  17  18
ENDBRANCH  14  16
ENDBRANCH   5  14
TORSDOF 4
ENDMDL
MODEL 2
REMARK VINA RESULT:    -8.001      2.892      7.162
REMARK INTER + INTRA:         -10.110
REMARK INTER:                  -9.701
REMARK INTRA:                  -0.409
REMARK UNBOUND:                -0.238
REMARK  Name = 
REMARK  8 active torsions:
REMARK  status: ('A' for Active; 'I' for Inactive)
REMARK    1  A    between atoms: C_1  and  O_2
REMARK    2  A    between atoms: O_2  and  C_3
REMARK    3  A    between atoms: C_4  and  C_5
REMARK    4  A    between atoms: C_7  and  C_13
REMARK    5  A    between atoms: C_10  and  C_11
REMARK    6  A    between atoms: C_10  and  C_12
REMARK    7  A    between atoms: C_13  and  C_15
REMARK    8  A    between atoms: C_16  and  C_17
REMARK                            x       y       z     vdW  Elec       q    Type
REMARK                         _______ _______ _______ _____ _____    ______ ____
ROOT
ATOM      1  C   UNL     1      88.563  50.347  42.822  0.00  0.00    +0.117 C 
ATOM      2  C   UNL     1      88.393  51.524  42.173  0.00  0.00    +0.030 C 
ATOM      3  C   UNL     1      89.499  52.101  41.322  0.00  0.00    -0.033 C 
ATOM      4  C   UNL     1      87.106  52.270  42.266  0.00  0.00    +0.137 C 
ATOM      5  C   UNL     1      85.999  51.677  42.745  0.00  0.00    +0.107 C 
ATOM      6  C   UNL     1      86.082  50.305  43.284  0.00  0.00    +0.183 C 
ATOM      7  O   UNL     1      85.018  49.689  43.575  0.00  0.00    -0.291 OA
ATOM      8  C   UNL     1      87.425  49.656  43.568  0.00  0.00    +0.086 C 
ATOM      9  C   UNL     1      87.374  48.175  43.134  0.00  0.00    -0.046 C 
ATOM     10  C   UNL     1      87.690  49.740  45.081  0.00  0.00    -0.046 C 
ATOM     11  O   UNL     1      87.044  53.612  41.876  0.00  0.00    -0.506 OA
ENDROOT
BRANCH   1  13
ATOM     12  C   UNL     1      90.239  48.870  41.747  0.00  0.00    +0.078 C 
ATOM     13  O   UNL     1      89.812  49.708  42.817  0.00  0.00    -0.498 OA
ENDBRANCH   1  13
BRANCH   5  14
ATOM     14  C   UNL     1      84.696  52.388  42.782  0.00  0.00    +0.193 C 
ATOM     15  O   UNL     1      83.977  52.402  41.746  0.00  0.00    -0.287 OA
BRANCH  14  16
ATOM     16  C   UNL     1      84.259  53.110  43.997  0.00  0.00    -0.014 C 
ATOM     17  C   UNL     1      85.020  53.182  45.099  0.00  0.00    -0.051 C 
BRANCH  17  18
ATOM     18  C   UNL     1      84.608  53.886  46.338  0.00  0.00    -0.025 A 
ATOM     19  C   UNL     1      84.234  53.120  47.455  0.00  0.00    -0.055 A 
ATOM     20  C   UNL     1      83.849  53.741  48.647  0.00  0.00    -0.061 A 
ATOM     21  C   UNL     1      83.842  55.135  48.740  0.00  0.00    -0.062 A 
ATOM     22  C   UNL     1      84.228  55.908  47.643  0.00  0.00    -0.061 A 
ATOM     23  C   UNL     1      84.614  55.292  46.449  0.00  0.00    -0.055 A 
ENDBRANCH  17  18
ENDBRANCH  14  16
ENDBRANCH   5  14
TORSDOF 4
ENDMDL
MODEL 3
REMARK VINA RESULT:    -7.905      1.567      3.069
REMARK INTER + INTRA:          -9.992
REMARK INTER:                  -9.469
REMARK INTRA:                  -0.522
REMARK UNBOUND:                -0.238
REMARK  Name = 
REMARK  8 active torsions:
REMARK  status: ('A' for Active; 'I' for Inactive)
REMARK    1  A    between atoms: C_1  and  O_2
REMARK    2  A    between atoms: O_2  and  C_3
REMARK    3  A    between atoms: C_4  and  C_5
REMARK    4  A    between atoms: C_7  and  C_13
REMARK    5  A    between atoms: C_10  and  C_11
REMARK    6  A    between atoms: C_10  and  C_12
REMARK    7  A    between atoms: C_13  and  C_15
REMARK    8  A    between atoms: C_16  and  C_17
REMARK                            x       y       z     vdW  Elec       q    Type
REMARK                         _______ _______ _______ _____ _____    ______ ____
ROOT
ATOM      1  C   UNL     1      84.150  53.516  42.307  0.00  0.00    +0.117 C 
ATOM      2  C   UNL     1      84.834  53.692  41.151  0.00  0.00    +0.030 C 
ATOM      3  C   UNL     1      84.194  54.395  39.977  0.00  0.00    -0.033 C 
ATOM      4  C   UNL     1      86.239  53.215  41.012  0.00  0.00    +0.137 C 
ATOM      5  C   UNL     1      86.958  52.865  42.093  0.00  0.00    +0.107 C 
ATOM      6  C   UNL     1      86.315  52.851  43.422  0.00  0.00    +0.183 C 
ATOM      7  O   UNL     1      87.027  52.688  44.452  0.00  0.00    -0.291 OA
ATOM      8  C   UNL     1      84.807  52.948  43.562  0.00  0.00    +0.086 C 
ATOM      9  C   UNL     1      84.467  53.864  44.758  0.00  0.00    -0.046 C 
ATOM     10  C   UNL     1      84.255  51.536  43.824  0.00  0.00    -0.046 C 
ATOM     11  O   UNL     1      86.820  53.104  39.744  0.00  0.00    -0.506 OA
ENDROOT
BRANCH   1  13
ATOM     12  C   UNL     1      81.752  53.017  41.927  0.00  0.00    +0.078 C 
ATOM     13  O   UNL     1      82.795  53.869  42.391  0.00  0.00    -0.498 OA
ENDBRANCH   1  13
BRANCH   5  14
ATOM     14  C   UNL     1      88.378  52.451  41.975  0.00  0.00    +0.193 C 
ATOM     15  O   UNL     1      89.240  53.310  41.641  0.00  0.00    -0.287 OA
BRANCH  14  16
ATOM     16  C   UNL     1      88.781  51.046  42.200  0.00  0.00    -0.014 C 
ATOM     17  C   UNL     1      88.082  50.014  41.709  0.00  0.00    -0.051 C 
BRANCH  17  18
ATOM     18  C   UNL     1      88.450  48.593  41.926  0.00  0.00    -0.025 A 
ATOM     19  C   UNL     1      89.809  48.237  41.890  0.00  0.00    -0.055 A 
ATOM     20  C   UNL     1      90.203  46.912  42.100  0.00  0.00    -0.061 A 
ATOM     21  C   UNL     1      89.245  45.929  42.358  0.00  0.00    -0.062 A 
ATOM     22  C   UNL     1      87.892  46.272  42.414  0.00  0.00    -0.061 A 
ATOM     23  C   UNL     1      87.493  47.595  42.204  0.00  0.00    -0.055 A 
ENDBRANCH  17  18
ENDBRANCH  14  16
ENDBRANCH   5  14
TORSDOF 4
ENDMDL
MODEL 4
REMARK VINA RESULT:    -7.798      3.522      5.054
REMARK INTER + INTRA:          -9.859
REMARK INTER:                  -9.326
REMARK INTRA:                  -0.533
REMARK UNBOUND:                -0.238
REMARK  Name = 
REMARK  8 active torsions:
REMARK  status: ('A' for Active; 'I' for Inactive)
REMARK    1  A    between atoms: C_1  and  O_2
REMARK    2  A    between atoms: O_2  and  C_3
REMARK    3  A    between atoms: C_4  and  C_5
REMARK    4  A    between atoms: C_7  and  C_13
REMARK    5  A    between atoms: C_10  and  C_11
REMARK    6  A    between atoms: C_10  and  C_12
REMARK    7  A    between atoms: C_13  and  C_15
REMARK    8  A    between atoms: C_16  and  C_17
REMARK                            x       y       z     vdW  Elec       q    Type
REMARK                         _______ _______ _______ _____ _____    ______ ____
ROOT
ATOM      1  C   UNL     1      84.614  55.885  45.840  0.00  0.00    +0.117 C 
ATOM      2  C   UNL     1      84.524  54.986  46.850  0.00  0.00    +0.030 C 
ATOM      3  C   UNL     1      83.712  55.294  48.085  0.00  0.00    -0.033 C 
ATOM      4  C   UNL     1      85.206  53.664  46.761  0.00  0.00    +0.137 C 
ATOM      5  C   UNL     1      85.680  53.210  45.587  0.00  0.00    +0.107 C 
ATOM      6  C   UNL     1      85.619  54.077  44.393  0.00  0.00    +0.183 C 
ATOM      7  O   UNL     1      85.906  53.594  43.262  0.00  0.00    -0.291 OA
ATOM      8  C   UNL     1      85.297  55.555  44.516  0.00  0.00    +0.086 C 
ATOM      9  C   UNL     1      84.360  55.967  43.359  0.00  0.00    -0.046 C 
ATOM     10  C   UNL     1      86.613  56.346  44.417  0.00  0.00    -0.046 C 
ATOM     11  O   UNL     1      85.383  52.887  47.911  0.00  0.00    -0.506 OA
ENDROOT
BRANCH   1  13
ATOM     12  C   UNL     1      84.847  58.308  46.308  0.00  0.00    +0.078 C 
ATOM     13  O   UNL     1      84.061  57.166  45.979  0.00  0.00    -0.498 OA
ENDBRANCH   1  13
BRANCH   5  14
ATOM     14  C   UNL     1      86.303  51.868  45.472  0.00  0.00    +0.193 C 
ATOM     15  O   UNL     1      87.547  51.753  45.655  0.00  0.00    -0.287 OA
BRANCH  14  16
ATOM     16  C   UNL     1      85.496  50.684  45.106  0.00  0.00    -0.014 C 
ATOM     17  C   UNL     1      84.250  50.790  44.623  0.00  0.00    -0.051 C 
BRANCH  17  18
ATOM     18  C   UNL     1      83.409  49.624  44.257  0.00  0.00    -0.025 A 
ATOM     19  C   UNL     1      84.040  48.400  43.976  0.00  0.00    -0.055 A 
ATOM     20  C   UNL     1      83.285  47.272  43.637  0.00  0.00    -0.061 A 
ATOM     21  C   UNL     1      81.892  47.352  43.586  0.00  0.00    -0.062 A 
ATOM     22  C   UNL     1      81.251  48.557  43.881  0.00  0.00    -0.061 A 
ATOM     23  C   UNL     1      82.000  49.688  44.219  0.00  0.00    -0.055 A 
ENDBRANCH  17  18
ENDBRANCH  14  16
ENDBRANCH   5  14
TORSDOF 4
ENDMDL
MODEL 5
REMARK VINA RESULT:    -7.720      2.727      4.308
REMARK INTER + INTRA:          -9.764
REMARK INTER:                  -9.171
REMARK INTRA:                  -0.593
REMARK UNBOUND:                -0.238
REMARK  Name = 
REMARK  8 active torsions:
REMARK  status: ('A' for Active; 'I' for Inactive)
REMARK    1  A    between atoms: C_1  and  O_2
REMARK    2  A    between atoms: O_2  and  C_3
REMARK    3  A    between atoms: C_4  and  C_5
REMARK    4  A    between atoms: C_7  and  C_13
REMARK    5  A    between atoms: C_10  and  C_11
REMARK    6  A    between atoms: C_10  and  C_12
REMARK    7  A    between atoms: C_13  and  C_15
REMARK    8  A    between atoms: C_16  and  C_17
REMARK                            x       y       z     vdW  Elec       q    Type
REMARK                         _______ _______ _______ _____ _____    ______ ____
ROOT
ATOM      1  C   UNL     1      85.102  56.439  45.685  0.00  0.00    +0.117 C 
ATOM      2  C   UNL     1      84.876  56.069  44.401  0.00  0.00    +0.030 C 
ATOM      3  C   UNL     1      84.933  57.085  43.285  0.00  0.00    -0.033 C 
ATOM      4  C   UNL     1      84.582  54.649  44.054  0.00  0.00    +0.137 C 
ATOM      5  C   UNL     1      84.814  53.662  44.936  0.00  0.00    +0.107 C 
ATOM      6  C   UNL     1      85.264  53.996  46.302  0.00  0.00    +0.183 C 
ATOM      7  O   UNL     1      85.642  53.070  47.074  0.00  0.00    -0.291 OA
ATOM      8  C   UNL     1      85.202  55.422  46.819  0.00  0.00    +0.086 C 
ATOM      9  C   UNL     1      86.475  55.719  47.641  0.00  0.00    -0.046 C 
ATOM     10  C   UNL     1      83.964  55.554  47.723  0.00  0.00    -0.046 C 
ATOM     11  O   UNL     1      84.036  54.332  42.806  0.00  0.00    -0.506 OA
ENDROOT
BRANCH   1  13
ATOM     12  C   UNL     1      84.167  58.671  46.219  0.00  0.00    +0.078 C 
ATOM     13  O   UNL     1      85.269  57.791  46.015  0.00  0.00    -0.498 OA
ENDBRANCH   1  13
BRANCH   5  14
ATOM     14  C   UNL     1      84.588  52.239  44.580  0.00  0.00    +0.193 C 
ATOM     15  O   UNL     1      83.491  51.697  44.892  0.00  0.00    -0.287 OA
BRANCH  14  16
ATOM     16  C   UNL     1      85.641  51.446  43.910  0.00  0.00    -0.014 C 
ATOM     17  C   UNL     1      86.944  51.732  44.041  0.00  0.00    -0.051 C 
BRANCH  17  18
ATOM     18  C   UNL     1      88.025  50.967  43.374  0.00  0.00    -0.025 A 
ATOM     19  C   UNL     1      88.588  51.486  42.195  0.00  0.00    -0.055 A 
ATOM     20  C   UNL     1      89.617  50.804  41.537  0.00  0.00    -0.061 A 
ATOM     21  C   UNL     1      90.102  49.601  42.056  0.00  0.00    -0.062 A 
ATOM     22  C   UNL     1      89.564  49.083  43.236  0.00  0.00    -0.061 A 
ATOM     23  C   UNL     1      88.535  49.761  43.897  0.00  0.00    -0.055 A 
ENDBRANCH  17  18
ENDBRANCH  14  16
ENDBRANCH   5  14
TORSDOF 4
ENDMDL
MODEL 6
REMARK VINA RESULT:    -7.717      2.655      7.347
REMARK INTER + INTRA:          -9.759
REMARK INTER:                  -9.482
REMARK INTRA:                  -0.278
REMARK UNBOUND:                -0.238
REMARK  Name = 
REMARK  8 active torsions:
REMARK  status: ('A' for Active; 'I' for Inactive)
REMARK    1  A    between atoms: C_1  and  O_2
REMARK    2  A    between atoms: O_2  and  C_3
REMARK    3  A    between atoms: C_4  and  C_5
REMARK    4  A    between atoms: C_7  and  C_13
REMARK    5  A    between atoms: C_10  and  C_11
REMARK    6  A    between atoms: C_10  and  C_12
REMARK    7  A    between atoms: C_13  and  C_15
REMARK    8  A    between atoms: C_16  and  C_17
REMARK                            x       y       z     vdW  Elec       q    Type
REMARK                         _______ _______ _______ _____ _____    ______ ____
ROOT
ATOM      1  C   UNL     1      88.346  50.000  43.185  0.00  0.00    +0.117 C 
ATOM      2  C   UNL     1      88.856  50.889  42.298  0.00  0.00    +0.030 C 
ATOM      3  C   UNL     1      90.201  50.650  41.655  0.00  0.00    -0.033 C 
ATOM      4  C   UNL     1      88.096  52.114  41.920  0.00  0.00    +0.137 C 
ATOM      5  C   UNL     1      86.789  52.232  42.212  0.00  0.00    +0.107 C 
ATOM      6  C   UNL     1      86.123  51.183  43.010  0.00  0.00    +0.183 C 
ATOM      7  O   UNL     1      84.867  51.207  43.140  0.00  0.00    -0.291 OA
ATOM      8  C   UNL     1      86.931  50.126  43.741  0.00  0.00    +0.086 C 
ATOM      9  C   UNL     1      86.221  48.762  43.605  0.00  0.00    -0.046 C 
ATOM     10  C   UNL     1      87.007  50.520  45.227  0.00  0.00    -0.046 C 
ATOM     11  O   UNL     1      88.746  53.171  41.274  0.00  0.00    -0.506 OA
ENDROOT
BRANCH   1  13
ATOM     12  C   UNL     1      89.297  47.739  42.824  0.00  0.00    +0.078 C 
ATOM     13  O   UNL     1      89.114  48.909  43.617  0.00  0.00    -0.498 OA
ENDBRANCH   1  13
BRANCH   5  14
ATOM     14  C   UNL     1      86.005  53.417  41.783  0.00  0.00    +0.193 C 
ATOM     15  O   UNL     1      85.739  53.564  40.558  0.00  0.00    -0.287 OA
BRANCH  14  16
ATOM     16  C   UNL     1      85.577  54.439  42.762  0.00  0.00    -0.014 C 
ATOM     17  C   UNL     1      86.447  55.077  43.558  0.00  0.00    -0.051 C 
BRANCH  17  18
ATOM     18  C   UNL     1      86.051  56.098  44.559  0.00  0.00    -0.025 A 
ATOM     19  C   UNL     1      85.643  57.364  44.104  0.00  0.00    -0.055 A 
ATOM     20  C   UNL     1      85.251  58.353  45.011  0.00  0.00    -0.061 A 
ATOM     21  C   UNL     1      85.252  58.086  46.382  0.00  0.00    -0.062 A 
ATOM     22  C   UNL     1      85.638  56.826  46.847  0.00  0.00    -0.061 A 
ATOM     23  C   UNL     1      86.032  55.834  45.944  0.00  0.00    -0.055 A 
ENDBRANCH  17  18
ENDBRANCH  14  16
ENDBRANCH   5  14
TORSDOF 4
ENDMDL
MODEL 7
REMARK VINA RESULT:    -7.667      2.986      6.746
REMARK INTER + INTRA:          -9.698
REMARK INTER:                  -9.270
REMARK INTRA:                  -0.428
REMARK UNBOUND:                -0.238
REMARK  Name = 
REMARK  8 active torsions:
REMARK  status: ('A' for Active; 'I' for Inactive)
REMARK    1  A    between atoms: C_1  and  O_2
REMARK    2  A    between atoms: O_2  and  C_3
REMARK    3  A    between atoms: C_4  and  C_5
REMARK    4  A    between atoms: C_7  and  C_13
REMARK    5  A    between atoms: C_10  and  C_11
REMARK    6  A    between atoms: C_10  and  C_12
REMARK    7  A    between atoms: C_13  and  C_15
REMARK    8  A    between atoms: C_16  and  C_17
REMARK                            x       y       z     vdW  Elec       q    Type
REMARK                         _______ _______ _______ _____ _____    ______ ____
ROOT
ATOM      1  C   UNL     1      88.672  50.751  42.207  0.00  0.00    +0.117 C 
ATOM      2  C   UNL     1      87.799  50.123  43.031  0.00  0.00    +0.030 C 
ATOM      3  C   UNL     1      88.246  48.963  43.888  0.00  0.00    -0.033 C 
ATOM      4  C   UNL     1      86.380  50.571  43.127  0.00  0.00    +0.137 C 
ATOM      5  C   UNL     1      85.998  51.763  42.636  0.00  0.00    +0.107 C 
ATOM      6  C   UNL     1      86.972  52.592  41.897  0.00  0.00    +0.183 C 
ATOM      7  O   UNL     1      86.665  53.777  41.585  0.00  0.00    -0.291 OA
ATOM      8  C   UNL     1      88.301  52.017  41.440  0.00  0.00    +0.086 C 
ATOM      9  C   UNL     1      89.409  53.071  41.654  0.00  0.00    -0.046 C 
ATOM     10  C   UNL     1      88.191  51.684  39.942  0.00  0.00    -0.046 C 
ATOM     11  O   UNL     1      85.421  49.738  43.713  0.00  0.00    -0.506 OA
ENDROOT
BRANCH   1  13
ATOM     12  C   UNL     1      90.241  48.997  41.430  0.00  0.00    +0.078 C 
ATOM     13  O   UNL     1      89.973  50.256  42.042  0.00  0.00    -0.498 OA
ENDBRANCH   1  13
BRANCH   5  14
ATOM     14  C   UNL     1      84.604  52.248  42.783  0.00  0.00    +0.193 C 
ATOM     15  O   UNL     1      83.816  52.152  41.801  0.00  0.00    -0.287 OA
BRANCH  14  16
ATOM     16  C   UNL     1      84.146  52.876  44.041  0.00  0.00    -0.014 C 
ATOM     17  C   UNL     1      85.003  53.339  44.962  0.00  0.00    -0.051 C 
BRANCH  17  18
ATOM     18  C   UNL     1      84.580  53.963  46.239  0.00  0.00    -0.025 A 
ATOM     19  C   UNL     1      84.219  53.126  47.310  0.00  0.00    -0.055 A 
ATOM     20  C   UNL     1      83.824  53.671  48.536  0.00  0.00    -0.061 A 
ATOM     21  C   UNL     1      83.794  55.056  48.710  0.00  0.00    -0.062 A 
ATOM     22  C   UNL     1      84.167  55.898  47.660  0.00  0.00    -0.061 A 
ATOM     23  C   UNL     1      84.562  55.360  46.432  0.00  0.00    -0.055 A 
ENDBRANCH  17  18
ENDBRANCH  14  16
ENDBRANCH   5  14
TORSDOF 4
ENDMDL
MODEL 8
REMARK VINA RESULT:    -7.636      3.068      7.738
REMARK INTER + INTRA:          -9.659
REMARK INTER:                  -9.183
REMARK INTRA:                  -0.476
REMARK UNBOUND:                -0.238
REMARK  Name = 
REMARK  8 active torsions:
REMARK  status: ('A' for Active; 'I' for Inactive)
REMARK    1  A    between atoms: C_1  and  O_2
REMARK    2  A    between atoms: O_2  and  C_3
REMARK    3  A    between atoms: C_4  and  C_5
REMARK    4  A    between atoms: C_7  and  C_13
REMARK    5  A    between atoms: C_10  and  C_11
REMARK    6  A    between atoms: C_10  and  C_12
REMARK    7  A    between atoms: C_13  and  C_15
REMARK    8  A    between atoms: C_16  and  C_17
REMARK                            x       y       z     vdW  Elec       q    Type
REMARK                         _______ _______ _______ _____ _____    ______ ____
ROOT
ATOM      1  C   UNL     1      86.677  45.817  42.904  0.00  0.00    +0.117 C 
ATOM      2  C   UNL     1      87.547  46.850  42.807  0.00  0.00    +0.030 C 
ATOM      3  C   UNL     1      88.820  46.713  42.006  0.00  0.00    -0.033 C 
ATOM      4  C   UNL     1      87.265  48.154  43.473  0.00  0.00    +0.137 C 
ATOM      5  C   UNL     1      86.036  48.439  43.935  0.00  0.00    +0.107 C 
ATOM      6  C   UNL     1      84.979  47.409  43.879  0.00  0.00    +0.183 C 
ATOM      7  O   UNL     1      83.788  47.729  44.155  0.00  0.00    -0.291 OA
ATOM      8  C   UNL     1      85.314  45.960  43.576  0.00  0.00    +0.086 C 
ATOM      9  C   UNL     1      84.235  45.376  42.639  0.00  0.00    -0.046 C 
ATOM     10  C   UNL     1      85.322  45.179  44.901  0.00  0.00    -0.046 C 
ATOM     11  O   UNL     1      88.291  49.089  43.646  0.00  0.00    -0.506 OA
ENDROOT
BRANCH   1  13
ATOM     12  C   UNL     1      87.628  43.540  43.136  0.00  0.00    +0.078 C 
ATOM     13  O   UNL     1      87.002  44.562  42.367  0.00  0.00    -0.498 OA
ENDBRANCH   1  13
BRANCH   5  14
ATOM     14  C   UNL     1      85.725  49.758  44.541  0.00  0.00    +0.193 C 
ATOM     15  O   UNL     1      85.919  49.925  45.777  0.00  0.00    -0.287 OA
BRANCH  14  16
ATOM     16  C   UNL     1      85.155  50.853  43.727  0.00  0.00    -0.014 C 
ATOM     17  C   UNL     1      83.907  51.307  43.912  0.00  0.00    -0.051 C 
BRANCH  17  18
ATOM     18  C   UNL     1      83.299  52.394  43.106  0.00  0.00    -0.025 A 
ATOM     19  C   UNL     1      83.990  53.613  42.990  0.00  0.00    -0.055 A 
ATOM     20  C   UNL     1      83.460  54.662  42.232  0.00  0.00    -0.061 A 
ATOM     21  C   UNL     1      82.240  54.501  41.572  0.00  0.00    -0.062 A 
ATOM     22  C   UNL     1      81.552  53.289  41.664  0.00  0.00    -0.061 A 
ATOM     23  C   UNL     1      82.076  52.238  42.421  0.00  0.00    -0.055 A 
ENDBRANCH  17  18
ENDBRANCH  14  16
ENDBRANCH   5  14
TORSDOF 4
ENDMDL
MODEL 9
REMARK VINA RESULT:    -7.409      3.395      5.947
REMARK INTER + INTRA:          -9.380
REMARK INTER:                  -9.142
REMARK INTRA:                  -0.238
REMARK UNBOUND:                -0.238
REMARK  Name = 
REMARK  8 active torsions:
REMARK  status: ('A' for Active; 'I' for Inactive)
REMARK    1  A    between atoms: C_1  and  O_2
REMARK    2  A    between atoms: O_2  and  C_3
REMARK    3  A    between atoms: C_4  and  C_5
REMARK    4  A    between atoms: C_7  and  C_13
REMARK    5  A    between atoms: C_10  and  C_11
REMARK    6  A    between atoms: C_10  and  C_12
REMARK    7  A    between atoms: C_13  and  C_15
REMARK    8  A    between atoms: C_16  and  C_17
REMARK                            x       y       z     vdW  Elec       q    Type
REMARK                         _______ _______ _______ _____ _____    ______ ____
ROOT
ATOM      1  C   UNL     1      84.732  55.200  44.944  0.00  0.00    +0.117 C 
ATOM      2  C   UNL     1      84.332  54.743  43.733  0.00  0.00    +0.030 C 
ATOM      3  C   UNL     1      83.989  55.705  42.621  0.00  0.00    -0.033 C 
ATOM      4  C   UNL     1      84.238  53.281  43.461  0.00  0.00    +0.137 C 
ATOM      5  C   UNL     1      84.810  52.387  44.286  0.00  0.00    +0.107 C 
ATOM      6  C   UNL     1      85.448  52.853  45.534  0.00  0.00    +0.183 C 
ATOM      7  O   UNL     1      86.129  52.041  46.222  0.00  0.00    -0.291 OA
ATOM      8  C   UNL     1      85.230  54.267  46.043  0.00  0.00    +0.086 C 
ATOM      9  C   UNL     1      86.563  54.817  46.595  0.00  0.00    -0.046 C 
ATOM     10  C   UNL     1      84.187  54.217  47.173  0.00  0.00    -0.046 C 
ATOM     11  O   UNL     1      83.528  52.819  42.347  0.00  0.00    -0.506 OA
ENDROOT
BRANCH   1  13
ATOM     12  C   UNL     1      85.723  57.465  44.762  0.00  0.00    +0.078 C 
ATOM     13  O   UNL     1      84.712  56.574  45.225  0.00  0.00    -0.498 OA
ENDBRANCH   1  13
BRANCH   5  14
ATOM     14  C   UNL     1      84.780  50.933  43.992  0.00  0.00    +0.193 C 
ATOM     15  O   UNL     1      85.745  50.416  43.363  0.00  0.00    -0.287 OA
BRANCH  14  16
ATOM     16  C   UNL     1      83.622  50.102  44.386  0.00  0.00    -0.014 C 
ATOM     17  C   UNL     1      82.815  49.526  43.483  0.00  0.00    -0.051 C 
BRANCH  17  18
ATOM     18  C   UNL     1      81.639  48.697  43.843  0.00  0.00    -0.025 A 
ATOM     19  C   UNL     1      80.445  49.344  44.208  0.00  0.00    -0.055 A 
ATOM     20  C   UNL     1      79.308  48.603  44.544  0.00  0.00    -0.061 A 
ATOM     21  C   UNL     1      79.347  47.208  44.509  0.00  0.00    -0.062 A 
ATOM     22  C   UNL     1      80.520  46.552  44.131  0.00  0.00    -0.061 A 
ATOM     23  C   UNL     1      81.660  47.288  43.794  0.00  0.00    -0.055 A 
ENDBRANCH  17  18
ENDBRANCH  14  16
ENDBRANCH   5  14
TORSDOF 4
ENDMDL
