=
 OpenBabel08112514243D

 39 43  0  0  1  0  0  0  0  0999 V2000
   85.2900   51.1820   44.2630 C   0  0  0  0  0  0  0  0  0  0  0  0
   86.1030   52.3330   44.0990 C   0  0  0  0  0  0  0  0  0  0  0  0
   85.5650   53.5000   43.5170 C   0  0  0  0  0  0  0  0  0  0  0  0
   84.2320   53.5140   43.0520 C   0  0  0  0  0  0  0  0  0  0  0  0
   83.4550   52.3310   43.1080 C   0  0  0  0  0  0  0  0  0  0  0  0
   83.9690   51.2040   43.7770 C   0  0  0  0  0  0  0  0  0  0  0  0
   83.1580   50.0750   43.9530 O   0  0  0  0  0  0  0  0  0  0  0  0
   81.7470   50.1100   43.7590 C   0  0  1  0  0  3  0  0  0  0  0  0
   81.4410   50.8370   42.4430 C   0  0  0  0  0  2  0  0  0  0  0  0
   82.1420   52.1660   42.4130 C   0  0  0  0  0  0  0  0  0  0  0  0
   81.6650   53.0710   41.6790 O   0  0  0  0  0  0  0  0  0  0  0  0
   81.2010   48.6970   43.8700 C   0  0  0  0  0  0  0  0  0  0  0  0
   79.8210   48.5400   44.0950 C   0  0  0  0  0  3  0  0  0  0  0  0
   79.2600   47.2670   44.2360 C   0  0  0  0  0  3  0  0  0  0  0  0
   80.0690   46.1330   44.1490 C   0  0  0  0  0  3  0  0  0  0  0  0
   81.4390   46.2700   43.9200 C   0  0  0  0  0  3  0  0  0  0  0  0
   82.0070   47.5400   43.7800 C   0  0  0  0  0  3  0  0  0  0  0  0
   87.4410   52.3670   44.5060 O   0  0  0  0  0  0  0  0  0  0  0  0
   88.1260   52.2580   43.8760 H   0  0  0  0  0  0  0  0  0  0  0  0
   83.7130   54.7170   42.5660 O   0  0  0  0  0  0  0  0  0  0  0  0
   82.7890   54.8130   42.4430 H   0  0  0  0  0  0  0  0  0  0  0  0
   85.7740   49.9200   44.9590 C   0  0  0  0  0  2  0  0  0  0  0  0
   86.0810   47.5510   44.0770 C   0  0  0  0  0  0  0  0  0  0  0  0
   86.6570   46.6540   43.1640 C   0  0  0  0  0  3  0  0  0  0  0  0
   87.5010   47.1200   42.1540 C   0  0  0  0  0  3  0  0  0  0  0  0
   87.7710   48.4840   42.0420 C   0  0  0  0  0  3  0  0  0  0  0  0
   87.2000   49.3860   42.9440 C   0  0  0  0  0  3  0  0  0  0  0  0
   86.3570   48.9310   43.9750 C   0  0  0  0  0  0  0  0  0  0  0  0
   85.2400   47.0740   45.0800 O   0  0  0  0  0  0  0  0  0  0  0  0
   84.8000   46.2530   44.9720 H   0  0  0  0  0  0  0  0  0  0  0  0
   86.4180   54.7540   43.4320 C   0  0  0  0  0  2  0  0  0  0  0  0
   86.0500   55.7370   44.5240 C   0  0  0  0  0  0  0  0  0  0  0  0
   86.3510   55.3820   45.8550 C   0  0  0  0  0  3  0  0  0  0  0  0
   86.0670   56.2490   46.9110 C   0  0  0  0  0  3  0  0  0  0  0  0
   85.4760   57.4850   46.6600 C   0  0  0  0  0  3  0  0  0  0  0  0
   85.1610   57.8540   45.3520 C   0  0  0  0  0  3  0  0  0  0  0  0
   85.4360   56.9970   44.2780 C   0  0  0  0  0  0  0  0  0  0  0  0
   85.0740   57.4410   43.0030 O   0  0  0  0  0  0  0  0  0  0  0  0
   85.2370   58.3290   42.7520 H   0  0  0  0  0  0  0  0  0  0  0  0
  1 22  1  0  0  0  0
  2  1  1  0  0  0  0
  2 18  1  0  0  0  0
  3  2  2  0  0  0  0
  4  5  2  0  0  0  0
  4  3  1  0  0  0  0
  5  6  1  0  0  0  0
  6  7  1  0  0  0  0
  6  1  2  0  0  0  0
  8 12  1  6  0  0  0
  8  7  1  0  0  0  0
  9  8  1  0  0  0  0
 10  9  1  0  0  0  0
 10  5  1  0  0  0  0
 11 10  2  0  0  0  0
 12 13  1  0  0  0  0
 13 14  2  0  0  0  0
 15 14  1  0  0  0  0
 16 15  2  0  0  0  0
 17 12  2  0  0  0  0
 17 16  1  0  0  0  0
 19 18  1  0  0  0  0
 20  4  1  0  0  0  0
 21 20  1  0  0  0  0
 23 29  1  0  0  0  0
 24 23  2  0  0  0  0
 25 24  1  0  0  0  0
 26 25  2  0  0  0  0
 26 27  1  0  0  0  0
 27 28  2  0  0  0  0
 28 23  1  0  0  0  0
 28 22  1  0  0  0  0
 30 29  1  0  0  0  0
 31  3  1  0  0  0  0
 31 32  1  0  0  0  0
 32 33  1  0  0  0  0
 33 34  2  0  0  0  0
 35 34  1  0  0  0  0
 36 35  2  0  0  0  0
 37 32  2  0  0  0  0
 37 36  1  0  0  0  0
 38 37  1  0  0  0  0
 39 38  1  0  0  0  0
M  END
>  <MODEL>
1

>  <REMARK>
 VINA RESULT:   -10.443      0.000      0.000
 INTER + INTRA:         -16.517
 INTER:                 -14.782
 INTRA:                  -1.735
 UNBOUND:                -1.800
  Name = 
  9 active torsions:
  status: ('A' for Active; 'I' for Inactive)
    1  A    between atoms: O_1  and  C_2
    2  A    between atoms: C_7  and  C_8
    3  A    between atoms: C_8  and  C_9
    4  A    between atoms: C_10  and  O_11
    5  A    between atoms: C_12  and  C_13
    6  A    between atoms: C_13  and  C_14
    7  A    between atoms: C_19  and  O_20
    8  A    between atoms: C_21  and  O_35
    9  A    between atoms: C_25  and  C_29
                            x       y       z     vdW  Elec       q    Type
                         _______ _______ _______ _____ _____    ______ ____

>  <TORSDO>
F 9

$$$$
=
 OpenBabel08112514243D

 39 43  0  0  1  0  0  0  0  0999 V2000
   85.9280   50.4060   44.0990 C   0  0  0  0  0  0  0  0  0  0  0  0
   86.6170   49.6310   43.1320 C   0  0  0  0  0  0  0  0  0  0  0  0
   87.6510   50.2120   42.3680 C   0  0  0  0  0  0  0  0  0  0  0  0
   87.9750   51.5760   42.5300 C   0  0  0  0  0  0  0  0  0  0  0  0
   87.2120   52.3810   43.4110 C   0  0  0  0  0  0  0  0  0  0  0  0
   86.2470   51.7700   44.2350 C   0  0  0  0  0  0  0  0  0  0  0  0
   85.5810   52.5340   45.2020 O   0  0  0  0  0  0  0  0  0  0  0  0
   86.0350   53.8240   45.6040 C   0  0  1  0  0  3  0  0  0  0  0  0
   86.3710   54.6480   44.3520 C   0  0  0  0  0  2  0  0  0  0  0  0
   87.2970   53.8730   43.4580 C   0  0  0  0  0  0  0  0  0  0  0  0
   88.0310   54.5180   42.6650 O   0  0  0  0  0  0  0  0  0  0  0  0
   85.0060   54.4390   46.5360 C   0  0  0  0  0  0  0  0  0  0  0  0
   84.3500   53.5890   47.4460 C   0  0  0  0  0  3  0  0  0  0  0  0
   83.3710   54.0880   48.3100 C   0  0  0  0  0  3  0  0  0  0  0  0
   83.0370   55.4430   48.2820 C   0  0  0  0  0  3  0  0  0  0  0  0
   83.6830   56.3010   47.3910 C   0  0  0  0  0  3  0  0  0  0  0  0
   84.6610   55.8090   46.5220 C   0  0  0  0  0  3  0  0  0  0  0  0
   86.3160   48.2850   42.9010 O   0  0  0  0  0  0  0  0  0  0  0  0
   85.4410   47.9720   43.0240 H   0  0  0  0  0  0  0  0  0  0  0  0
   89.0650   52.0870   41.8200 O   0  0  0  0  0  0  0  0  0  0  0  0
   89.0540   52.9730   41.5180 H   0  0  0  0  0  0  0  0  0  0  0  0
   84.8630   49.8270   45.0170 C   0  0  0  0  0  2  0  0  0  0  0  0
   83.0270   48.3920   43.9900 C   0  0  0  0  0  0  0  0  0  0  0  0
   81.8080   48.2770   43.3040 C   0  0  0  0  0  3  0  0  0  0  0  0
   81.0980   49.4200   42.9320 C   0  0  0  0  0  3  0  0  0  0  0  0
   81.5950   50.6850   43.2460 C   0  0  0  0  0  3  0  0  0  0  0  0
   82.8060   50.8110   43.9320 C   0  0  0  0  0  3  0  0  0  0  0  0
   83.5390   49.6690   44.3030 C   0  0  0  0  0  0  0  0  0  0  0  0
   83.7260   47.2440   44.3580 O   0  0  0  0  0  0  0  0  0  0  0  0
   83.3470   46.6390   44.9650 H   0  0  0  0  0  0  0  0  0  0  0  0
   88.4420   49.3470   41.4020 C   0  0  0  0  0  2  0  0  0  0  0  0
   89.3820   48.4190   42.1460 C   0  0  0  0  0  0  0  0  0  0  0  0
   90.4560   49.0010   42.8510 C   0  0  0  0  0  3  0  0  0  0  0  0
   91.3450   48.2130   43.5810 C   0  0  0  0  0  3  0  0  0  0  0  0
   91.1810   46.8300   43.6220 C   0  0  0  0  0  3  0  0  0  0  0  0
   90.1310   46.2320   42.9250 C   0  0  0  0  0  3  0  0  0  0  0  0
   89.2290   47.0050   42.1830 C   0  0  0  0  0  0  0  0  0  0  0  0
   88.2160   46.3220   41.5050 O   0  0  0  0  0  0  0  0  0  0  0  0
   87.3380   46.6510   41.5190 H   0  0  0  0  0  0  0  0  0  0  0  0
  1  6  1  0  0  0  0
  1 22  1  0  0  0  0
  2  1  2  0  0  0  0
  3  4  2  0  0  0  0
  3  2  1  0  0  0  0
  4  5  1  0  0  0  0
  5 10  1  0  0  0  0
  5  6  2  0  0  0  0
  6  7  1  0  0  0  0
  7  8  1  0  0  0  0
  8 12  1  6  0  0  0
  9  8  1  0  0  0  0
 10  9  1  0  0  0  0
 11 10  2  0  0  0  0
 12 13  1  0  0  0  0
 13 14  2  0  0  0  0
 15 14  1  0  0  0  0
 16 15  2  0  0  0  0
 17 12  2  0  0  0  0
 17 16  1  0  0  0  0
 18 19  1  0  0  0  0
 18  2  1  0  0  0  0
 20  4  1  0  0  0  0
 21 20  1  0  0  0  0
 23 28  1  0  0  0  0
 23 29  1  0  0  0  0
 24 23  2  0  0  0  0
 25 26  2  0  0  0  0
 25 24  1  0  0  0  0
 26 27  1  0  0  0  0
 27 28  2  0  0  0  0
 28 22  1  0  0  0  0
 29 30  1  0  0  0  0
 31 32  1  0  0  0  0
 31  3  1  0  0  0  0
 32 37  2  0  0  0  0
 32 33  1  0  0  0  0
 33 34  2  0  0  0  0
 34 35  1  0  0  0  0
 36 35  2  0  0  0  0
 37 36  1  0  0  0  0
 38 39  1  0  0  0  0
 38 37  1  0  0  0  0
M  END
>  <MODEL>
2

>  <REMARK>
 VINA RESULT:   -10.008      2.271      7.185
 INTER + INTRA:         -15.904
 INTER:                 -13.866
 INTRA:                  -2.038
 UNBOUND:                -1.800
  Name = 
  9 active torsions:
  status: ('A' for Active; 'I' for Inactive)
    1  A    between atoms: O_1  and  C_2
    2  A    between atoms: C_7  and  C_8
    3  A    between atoms: C_8  and  C_9
    4  A    between atoms: C_10  and  O_11
    5  A    between atoms: C_12  and  C_13
    6  A    between atoms: C_13  and  C_14
    7  A    between atoms: C_19  and  O_20
    8  A    between atoms: C_21  and  O_35
    9  A    between atoms: C_25  and  C_29
                            x       y       z     vdW  Elec       q    Type
                         _______ _______ _______ _____ _____    ______ ____

>  <TORSDO>
F 9

$$$$
=
 OpenBabel08112514243D

 39 43  0  0  1  0  0  0  0  0999 V2000
   85.6540   51.0580   43.6940 C   0  0  0  0  0  0  0  0  0  0  0  0
   85.3430   52.4370   43.5750 C   0  0  0  0  0  0  0  0  0  0  0  0
   85.8440   53.1820   42.4880 C   0  0  0  0  0  0  0  0  0  0  0  0
   86.6930   52.5730   41.5390 C   0  0  0  0  0  0  0  0  0  0  0  0
   87.0990   51.2280   41.7190 C   0  0  0  0  0  0  0  0  0  0  0  0
   86.5190   50.4690   42.7530 C   0  0  0  0  0  0  0  0  0  0  0  0
   86.8130   49.1040   42.8570 O   0  0  0  0  0  0  0  0  0  0  0  0
   87.4320   48.3720   41.8020 C   0  0  1  0  0  3  0  0  0  0  0  0
   88.6230   49.1780   41.2660 C   0  0  0  0  0  2  0  0  0  0  0  0
   88.1900   50.5770   40.9310 C   0  0  0  0  0  0  0  0  0  0  0  0
   88.8610   51.2160   40.0790 O   0  0  0  0  0  0  0  0  0  0  0  0
   87.7560   46.9740   42.2980 C   0  0  0  0  0  0  0  0  0  0  0  0
   89.1110   46.6100   42.4010 C   0  0  0  0  0  3  0  0  0  0  0  0
   89.4760   45.3270   42.8220 C   0  0  0  0  0  3  0  0  0  0  0  0
   88.4930   44.3920   43.1500 C   0  0  0  0  0  3  0  0  0  0  0  0
   87.1440   44.7390   43.0600 C   0  0  0  0  0  3  0  0  0  0  0  0
   86.7710   46.0190   42.6370 C   0  0  0  0  0  3  0  0  0  0  0  0
   84.5360   53.1040   44.5040 O   0  0  0  0  0  0  0  0  0  0  0  0
   84.3030   52.6850   45.3090 H   0  0  0  0  0  0  0  0  0  0  0  0
   87.0920   53.3230   40.4290 O   0  0  0  0  0  0  0  0  0  0  0  0
   87.8540   53.8660   40.4790 H   0  0  0  0  0  0  0  0  0  0  0  0
   85.0810   50.1720   44.7900 C   0  0  0  0  0  2  0  0  0  0  0  0
   83.8380   48.0180   44.2410 C   0  0  0  0  0  0  0  0  0  0  0  0
   82.6930   47.3560   43.7750 C   0  0  0  0  0  3  0  0  0  0  0  0
   81.5660   48.0830   43.3870 C   0  0  0  0  0  3  0  0  0  0  0  0
   81.5710   49.4760   43.4680 C   0  0  0  0  0  3  0  0  0  0  0  0
   82.7050   50.1460   43.9340 C   0  0  0  0  0  3  0  0  0  0  0  0
   83.8530   49.4270   44.3170 C   0  0  0  0  0  0  0  0  0  0  0  0
   84.9560   47.2810   44.6270 O   0  0  0  0  0  0  0  0  0  0  0  0
   85.2420   46.5550   44.1080 H   0  0  0  0  0  0  0  0  0  0  0  0
   85.4280   54.6340   42.3220 C   0  0  0  0  0  2  0  0  0  0  0  0
   84.1510   54.7450   41.5130 C   0  0  0  0  0  0  0  0  0  0  0  0
   82.9390   54.4140   42.1520 C   0  0  0  0  0  3  0  0  0  0  0  0
   81.7210   54.5190   41.4790 C   0  0  0  0  0  3  0  0  0  0  0  0
   81.6890   54.9540   40.1560 C   0  0  0  0  0  3  0  0  0  0  0  0
   82.8780   55.2790   39.5010 C   0  0  0  0  0  3  0  0  0  0  0  0
   84.1110   55.1770   40.1580 C   0  0  0  0  0  0  0  0  0  0  0  0
   85.2520   55.5080   39.4210 O   0  0  0  0  0  0  0  0  0  0  0  0
   85.1730   55.7520   38.5190 H   0  0  0  0  0  0  0  0  0  0  0  0
  1 22  1  0  0  0  0
  2  1  1  0  0  0  0
  2 18  1  0  0  0  0
  3  2  2  0  0  0  0
  4  5  2  0  0  0  0
  4  3  1  0  0  0  0
  5  6  1  0  0  0  0
  6  7  1  0  0  0  0
  6  1  2  0  0  0  0
  8 12  1  1  0  0  0
  8  7  1  0  0  0  0
  9  8  1  0  0  0  0
 10  9  1  0  0  0  0
 10  5  1  0  0  0  0
 11 10  2  0  0  0  0
 12 13  2  0  0  0  0
 12 17  1  0  0  0  0
 13 14  1  0  0  0  0
 14 15  2  0  0  0  0
 16 15  1  0  0  0  0
 17 16  2  0  0  0  0
 18 19  1  0  0  0  0
 20 21  1  0  0  0  0
 20  4  1  0  0  0  0
 23 28  1  0  0  0  0
 23 29  1  0  0  0  0
 24 23  2  0  0  0  0
 25 26  2  0  0  0  0
 25 24  1  0  0  0  0
 26 27  1  0  0  0  0
 27 28  2  0  0  0  0
 28 22  1  0  0  0  0
 30 29  1  0  0  0  0
 31  3  1  0  0  0  0
 32 33  1  0  0  0  0
 32 31  1  0  0  0  0
 34 33  2  0  0  0  0
 35 34  1  0  0  0  0
 36 35  2  0  0  0  0
 36 37  1  0  0  0  0
 37 32  2  0  0  0  0
 38 37  1  0  0  0  0
 39 38  1  0  0  0  0
M  END
>  <MODEL>
3

>  <REMARK>
 VINA RESULT:    -9.820      2.491      5.432
 INTER + INTRA:         -15.639
 INTER:                 -13.854
 INTRA:                  -1.785
 UNBOUND:                -1.800
  Name = 
  9 active torsions:
  status: ('A' for Active; 'I' for Inactive)
    1  A    between atoms: O_1  and  C_2
    2  A    between atoms: C_7  and  C_8
    3  A    between atoms: C_8  and  C_9
    4  A    between atoms: C_10  and  O_11
    5  A    between atoms: C_12  and  C_13
    6  A    between atoms: C_13  and  C_14
    7  A    between atoms: C_19  and  O_20
    8  A    between atoms: C_21  and  O_35
    9  A    between atoms: C_25  and  C_29
                            x       y       z     vdW  Elec       q    Type
                         _______ _______ _______ _____ _____    ______ ____

>  <TORSDO>
F 9

$$$$
=
 OpenBabel08112514243D

 39 43  0  0  1  0  0  0  0  0999 V2000
   86.2850   49.9890   44.0180 C   0  0  0  0  0  0  0  0  0  0  0  0
   86.2940   51.3960   43.8460 C   0  0  0  0  0  0  0  0  0  0  0  0
   87.0950   51.9790   42.8420 C   0  0  0  0  0  0  0  0  0  0  0  0
   87.9250   51.1710   42.0360 C   0  0  0  0  0  0  0  0  0  0  0  0
   88.0060   49.7790   42.2820 C   0  0  0  0  0  0  0  0  0  0  0  0
   87.1330   49.1970   43.2210 C   0  0  0  0  0  0  0  0  0  0  0  0
   87.1120   47.8050   43.3760 O   0  0  0  0  0  0  0  0  0  0  0  0
   87.7080   46.9210   42.4300 C   0  0  1  0  0  3  0  0  0  0  0  0
   89.1090   47.4390   42.0750 C   0  0  0  0  0  2  0  0  0  0  0  0
   89.0370   48.8850   41.6710 C   0  0  0  0  0  0  0  0  0  0  0  0
   89.9450   49.3370   40.9260 O   0  0  0  0  0  0  0  0  0  0  0  0
   87.6520   45.5060   42.9770 C   0  0  0  0  0  0  0  0  0  0  0  0
   86.4340   45.0570   43.5200 C   0  0  0  0  0  3  0  0  0  0  0  0
   86.3260   43.7750   44.0670 C   0  0  0  0  0  3  0  0  0  0  0  0
   87.4290   42.9210   44.0740 C   0  0  0  0  0  3  0  0  0  0  0  0
   88.6440   43.3480   43.5330 C   0  0  0  0  0  3  0  0  0  0  0  0
   88.7600   44.6300   42.9870 C   0  0  0  0  0  3  0  0  0  0  0  0
   85.5210   52.2510   44.6390 O   0  0  0  0  0  0  0  0  0  0  0  0
   84.6880   51.9670   44.9610 H   0  0  0  0  0  0  0  0  0  0  0  0
   88.6320   51.7790   40.9940 O   0  0  0  0  0  0  0  0  0  0  0  0
   88.4270   51.5710   40.1040 H   0  0  0  0  0  0  0  0  0  0  0  0
   85.3830   49.2840   45.0200 C   0  0  0  0  0  2  0  0  0  0  0  0
   82.9940   49.7210   44.2550 C   0  0  0  0  0  0  0  0  0  0  0  0
   81.7950   49.2710   43.6820 C   0  0  0  0  0  3  0  0  0  0  0  0
   81.6760   47.9530   43.2370 C   0  0  0  0  0  3  0  0  0  0  0  0
   82.7550   47.0770   43.3530 C   0  0  0  0  0  3  0  0  0  0  0  0
   83.9550   47.5150   43.9180 C   0  0  0  0  0  3  0  0  0  0  0  0
   84.0860   48.8370   44.3830 C   0  0  0  0  0  0  0  0  0  0  0  0
   83.1000   51.0400   44.6940 O   0  0  0  0  0  0  0  0  0  0  0  0
   83.7560   51.2730   45.3220 H   0  0  0  0  0  0  0  0  0  0  0  0
   87.0260   53.4780   42.6080 C   0  0  0  0  0  2  0  0  0  0  0  0
   85.7720   53.8520   41.8420 C   0  0  0  0  0  0  0  0  0  0  0  0
   84.6640   54.3100   42.5830 C   0  0  0  0  0  3  0  0  0  0  0  0
   83.4850   54.6980   41.9460 C   0  0  0  0  0  3  0  0  0  0  0  0
   83.3890   54.6360   40.5580 C   0  0  0  0  0  3  0  0  0  0  0  0
   84.4700   54.1780   39.8040 C   0  0  0  0  0  3  0  0  0  0  0  0
   85.6620   53.7800   40.4250 C   0  0  0  0  0  0  0  0  0  0  0  0
   86.6880   53.3210   39.5950 O   0  0  0  0  0  0  0  0  0  0  0  0
   87.4070   52.8430   39.9600 H   0  0  0  0  0  0  0  0  0  0  0  0
  1 22  1  0  0  0  0
  2  1  1  0  0  0  0
  2 18  1  0  0  0  0
  3  2  2  0  0  0  0
  4  5  2  0  0  0  0
  4  3  1  0  0  0  0
  5  6  1  0  0  0  0
  6  7  1  0  0  0  0
  6  1  2  0  0  0  0
  8 12  1  1  0  0  0
  8  7  1  0  0  0  0
  9  8  1  0  0  0  0
 10  9  1  0  0  0  0
 10  5  1  0  0  0  0
 11 10  2  0  0  0  0
 12 17  2  0  0  0  0
 12 13  1  0  0  0  0
 13 14  2  0  0  0  0
 14 15  1  0  0  0  0
 16 15  2  0  0  0  0
 17 16  1  0  0  0  0
 18 19  1  0  0  0  0
 20  4  1  0  0  0  0
 21 20  1  0  0  0  0
 23 28  1  0  0  0  0
 23 29  1  0  0  0  0
 24 23  2  0  0  0  0
 25 26  2  0  0  0  0
 25 24  1  0  0  0  0
 26 27  1  0  0  0  0
 27 28  2  0  0  0  0
 28 22  1  0  0  0  0
 29 30  1  0  0  0  0
 31  3  1  0  0  0  0
 32 33  1  0  0  0  0
 32 31  1  0  0  0  0
 34 33  2  0  0  0  0
 35 34  1  0  0  0  0
 36 37  1  0  0  0  0
 36 35  2  0  0  0  0
 37 32  2  0  0  0  0
 38 39  1  0  0  0  0
 38 37  1  0  0  0  0
M  END
>  <MODEL>
4

>  <REMARK>
 VINA RESULT:    -9.778      2.614      5.620
 INTER + INTRA:         -15.580
 INTER:                 -13.659
 INTRA:                  -1.921
 UNBOUND:                -1.800
  Name = 
  9 active torsions:
  status: ('A' for Active; 'I' for Inactive)
    1  A    between atoms: O_1  and  C_2
    2  A    between atoms: C_7  and  C_8
    3  A    between atoms: C_8  and  C_9
    4  A    between atoms: C_10  and  O_11
    5  A    between atoms: C_12  and  C_13
    6  A    between atoms: C_13  and  C_14
    7  A    between atoms: C_19  and  O_20
    8  A    between atoms: C_21  and  O_35
    9  A    between atoms: C_25  and  C_29
                            x       y       z     vdW  Elec       q    Type
                         _______ _______ _______ _____ _____    ______ ____

>  <TORSDO>
F 9

$$$$
=
 OpenBabel08112514243D

 39 43  0  0  1  0  0  0  0  0999 V2000
   86.1760   52.0980   43.1260 C   0  0  0  0  0  0  0  0  0  0  0  0
   86.5460   50.7450   42.9180 C   0  0  0  0  0  0  0  0  0  0  0  0
   86.6610   49.8680   44.0170 C   0  0  0  0  0  0  0  0  0  0  0  0
   86.4530   50.3420   45.3300 C   0  0  0  0  0  0  0  0  0  0  0  0
   86.1980   51.7180   45.5500 C   0  0  0  0  0  0  0  0  0  0  0  0
   85.9920   52.5620   44.4430 C   0  0  0  0  0  0  0  0  0  0  0  0
   85.6090   53.8930   44.6500 O   0  0  0  0  0  0  0  0  0  0  0  0
   85.1240   54.3630   45.9050 C   0  0  1  0  0  3  0  0  0  0  0  0
   86.0470   53.8500   47.0210 C   0  0  0  0  0  2  0  0  0  0  0  0
   86.2260   52.3630   46.8990 C   0  0  0  0  0  0  0  0  0  0  0  0
   86.5350   51.7170   47.9340 O   0  0  0  0  0  0  0  0  0  0  0  0
   84.9570   55.8700   45.8350 C   0  0  0  0  0  0  0  0  0  0  0  0
   85.5640   56.5510   44.7640 C   0  0  0  0  0  3  0  0  0  0  0  0
   85.4730   57.9420   44.6590 C   0  0  0  0  0  3  0  0  0  0  0  0
   84.7700   58.6720   45.6180 C   0  0  0  0  0  3  0  0  0  0  0  0
   84.1560   58.0120   46.6840 C   0  0  0  0  0  3  0  0  0  0  0  0
   84.2450   56.6210   46.7970 C   0  0  0  0  0  3  0  0  0  0  0  0
   86.8010   50.2270   41.6440 O   0  0  0  0  0  0  0  0  0  0  0  0
   86.1900   50.3730   40.9480 H   0  0  0  0  0  0  0  0  0  0  0  0
   86.4870   49.4200   46.3800 O   0  0  0  0  0  0  0  0  0  0  0  0
   86.8520   49.6640   47.2080 H   0  0  0  0  0  0  0  0  0  0  0  0
   85.9490   53.0790   41.9860 C   0  0  0  0  0  2  0  0  0  0  0  0
   83.9960   54.6260   41.4630 C   0  0  0  0  0  0  0  0  0  0  0  0
   82.6210   54.8360   41.2780 C   0  0  0  0  0  3  0  0  0  0  0  0
   81.7250   53.7700   41.3810 C   0  0  0  0  0  3  0  0  0  0  0  0
   82.1940   52.4870   41.6620 C   0  0  0  0  0  3  0  0  0  0  0  0
   83.5620   52.2660   41.8430 C   0  0  0  0  0  3  0  0  0  0  0  0
   84.4760   53.3320   41.7550 C   0  0  0  0  0  0  0  0  0  0  0  0
   84.8800   55.6980   41.3550 O   0  0  0  0  0  0  0  0  0  0  0  0
   84.6620   56.4340   40.8180 H   0  0  0  0  0  0  0  0  0  0  0  0
   86.9680   48.4010   43.7730 C   0  0  0  0  0  2  0  0  0  0  0  0
   88.3500   48.2260   43.1760 C   0  0  0  0  0  0  0  0  0  0  0  0
   89.3720   49.0860   43.6250 C   0  0  0  0  0  3  0  0  0  0  0  0
   90.6750   48.9660   43.1420 C   0  0  0  0  0  3  0  0  0  0  0  0
   90.9840   47.9870   42.2000 C   0  0  0  0  0  3  0  0  0  0  0  0
   89.9860   47.1300   41.7340 C   0  0  0  0  0  3  0  0  0  0  0  0
   88.6700   47.2360   42.2050 C   0  0  0  0  0  0  0  0  0  0  0  0
   87.7330   46.3470   41.6730 O   0  0  0  0  0  0  0  0  0  0  0  0
   87.8160   45.4270   41.8330 H   0  0  0  0  0  0  0  0  0  0  0  0
  1  6  1  0  0  0  0
  2  1  2  0  0  0  0
  2  3  1  0  0  0  0
  3  4  2  0  0  0  0
  4  5  1  0  0  0  0
  4 20  1  0  0  0  0
  5 10  1  0  0  0  0
  6  7  1  0  0  0  0
  6  5  2  0  0  0  0
  7  8  1  0  0  0  0
  8 12  1  6  0  0  0
  8  9  1  0  0  0  0
 10  9  1  0  0  0  0
 10 11  2  0  0  0  0
 12 17  1  0  0  0  0
 13 12  2  0  0  0  0
 14 13  1  0  0  0  0
 14 15  2  0  0  0  0
 15 16  1  0  0  0  0
 16 17  2  0  0  0  0
 18  2  1  0  0  0  0
 19 18  1  0  0  0  0
 20 21  1  0  0  0  0
 22  1  1  0  0  0  0
 23 28  1  0  0  0  0
 24 25  1  0  0  0  0
 24 23  2  0  0  0  0
 25 26  2  0  0  0  0
 26 27  1  0  0  0  0
 28 27  2  0  0  0  0
 28 22  1  0  0  0  0
 29 23  1  0  0  0  0
 30 29  1  0  0  0  0
 31  3  1  0  0  0  0
 32 33  1  0  0  0  0
 32 31  1  0  0  0  0
 34 33  2  0  0  0  0
 35 34  1  0  0  0  0
 36 35  2  0  0  0  0
 36 37  1  0  0  0  0
 37 32  2  0  0  0  0
 38 39  1  0  0  0  0
 38 37  1  0  0  0  0
M  END
>  <MODEL>
5

>  <REMARK>
 VINA RESULT:    -9.732      2.991      8.099
 INTER + INTRA:         -15.515
 INTER:                 -14.230
 INTRA:                  -1.284
 UNBOUND:                -1.800
  Name = 
  9 active torsions:
  status: ('A' for Active; 'I' for Inactive)
    1  A    between atoms: O_1  and  C_2
    2  A    between atoms: C_7  and  C_8
    3  A    between atoms: C_8  and  C_9
    4  A    between atoms: C_10  and  O_11
    5  A    between atoms: C_12  and  C_13
    6  A    between atoms: C_13  and  C_14
    7  A    between atoms: C_19  and  O_20
    8  A    between atoms: C_21  and  O_35
    9  A    between atoms: C_25  and  C_29
                            x       y       z     vdW  Elec       q    Type
                         _______ _______ _______ _____ _____    ______ ____

>  <TORSDO>
F 9

$$$$
=
 OpenBabel08112514243D

 39 43  0  0  1  0  0  0  0  0999 V2000
   85.5650   51.2130   44.4110 C   0  0  0  0  0  0  0  0  0  0  0  0
   84.7090   52.3390   44.5180 C   0  0  0  0  0  0  0  0  0  0  0  0
   84.8880   53.4460   43.6630 C   0  0  0  0  0  0  0  0  0  0  0  0
   85.9470   53.4590   42.7290 C   0  0  0  0  0  0  0  0  0  0  0  0
   86.8720   52.3880   42.6990 C   0  0  0  0  0  0  0  0  0  0  0  0
   86.6280   51.2490   43.4890 C   0  0  0  0  0  0  0  0  0  0  0  0
   87.4640   50.1310   43.3680 O   0  0  0  0  0  0  0  0  0  0  0  0
   88.3670   49.9660   42.2780 C   0  0  1  0  0  3  0  0  0  0  0  0
   89.1290   51.2800   42.0570 C   0  0  0  0  0  2  0  0  0  0  0  0
   88.1620   52.4250   41.9430 C   0  0  0  0  0  0  0  0  0  0  0  0
   88.5310   53.4520   41.3170 O   0  0  0  0  0  0  0  0  0  0  0  0
   89.2300   48.7440   42.5350 C   0  0  0  0  0  0  0  0  0  0  0  0
   88.8950   47.5490   41.8710 C   0  0  0  0  0  3  0  0  0  0  0  0
   89.6310   46.3810   42.0880 C   0  0  0  0  0  3  0  0  0  0  0  0
   90.7160   46.3900   42.9660 C   0  0  0  0  0  3  0  0  0  0  0  0
   91.0660   47.5680   43.6280 C   0  0  0  0  0  3  0  0  0  0  0  0
   90.3330   48.7400   43.4180 C   0  0  0  0  0  3  0  0  0  0  0  0
   83.6670   52.3990   45.4500 O   0  0  0  0  0  0  0  0  0  0  0  0
   83.4780   51.6570   45.9900 H   0  0  0  0  0  0  0  0  0  0  0  0
   86.0320   54.5350   41.8400 O   0  0  0  0  0  0  0  0  0  0  0  0
   86.8690   54.8760   41.5960 H   0  0  0  0  0  0  0  0  0  0  0  0
   85.3790   49.9510   45.2380 C   0  0  0  0  0  2  0  0  0  0  0  0
   84.9840   47.7320   44.0530 C   0  0  0  0  0  0  0  0  0  0  0  0
   84.1300   46.8390   43.3870 C   0  0  0  0  0  3  0  0  0  0  0  0
   82.7820   47.1550   43.2050 C   0  0  0  0  0  3  0  0  0  0  0  0
   82.2750   48.3600   43.6920 C   0  0  0  0  0  3  0  0  0  0  0  0
   83.1150   49.2540   44.3600 C   0  0  0  0  0  3  0  0  0  0  0  0
   84.4790   48.9560   44.5400 C   0  0  0  0  0  0  0  0  0  0  0  0
   86.3270   47.4040   44.2300 O   0  0  0  0  0  0  0  0  0  0  0  0
   86.9880   47.8530   43.7390 H   0  0  0  0  0  0  0  0  0  0  0  0
   83.9090   54.6050   43.7260 C   0  0  0  0  0  2  0  0  0  0  0  0
   84.4640   55.7420   44.5610 C   0  0  0  0  0  0  0  0  0  0  0  0
   84.5360   55.5550   45.9570 C   0  0  0  0  0  3  0  0  0  0  0  0
   85.0610   56.5460   46.7870 C   0  0  0  0  0  3  0  0  0  0  0  0
   85.5220   57.7420   46.2420 C   0  0  0  0  0  3  0  0  0  0  0  0
   85.4530   57.9520   44.8640 C   0  0  0  0  0  3  0  0  0  0  0  0
   84.9260   56.9710   44.0130 C   0  0  0  0  0  0  0  0  0  0  0  0
   84.8810   57.2710   42.6490 O   0  0  0  0  0  0  0  0  0  0  0  0
   84.0770   57.5540   42.2580 H   0  0  0  0  0  0  0  0  0  0  0  0
  1  2  1  0  0  0  0
  1 22  1  0  0  0  0
  2 18  1  0  0  0  0
  3 31  1  0  0  0  0
  3  2  2  0  0  0  0
  4  3  1  0  0  0  0
  5  4  2  0  0  0  0
  5  6  1  0  0  0  0
  6  1  2  0  0  0  0
  7  6  1  0  0  0  0
  8 12  1  1  0  0  0
  8  7  1  0  0  0  0
  9  8  1  0  0  0  0
 10  9  1  0  0  0  0
 10  5  1  0  0  0  0
 11 10  2  0  0  0  0
 12 17  1  0  0  0  0
 13 14  1  0  0  0  0
 13 12  2  0  0  0  0
 14 15  2  0  0  0  0
 15 16  1  0  0  0  0
 17 16  2  0  0  0  0
 18 19  1  0  0  0  0
 20  4  1  0  0  0  0
 21 20  1  0  0  0  0
 23 29  1  0  0  0  0
 23 28  1  0  0  0  0
 24 23  2  0  0  0  0
 25 24  1  0  0  0  0
 25 26  2  0  0  0  0
 26 27  1  0  0  0  0
 27 28  2  0  0  0  0
 28 22  1  0  0  0  0
 30 29  1  0  0  0  0
 31 32  1  0  0  0  0
 32 33  1  0  0  0  0
 33 34  2  0  0  0  0
 35 34  1  0  0  0  0
 36 35  2  0  0  0  0
 37 32  2  0  0  0  0
 37 36  1  0  0  0  0
 38 37  1  0  0  0  0
 39 38  1  0  0  0  0
M  END
>  <MODEL>
6

>  <REMARK>
 VINA RESULT:    -9.724      1.925      5.085
 INTER + INTRA:         -15.504
 INTER:                 -13.464
 INTRA:                  -2.040
 UNBOUND:                -1.800
  Name = 
  9 active torsions:
  status: ('A' for Active; 'I' for Inactive)
    1  A    between atoms: O_1  and  C_2
    2  A    between atoms: C_7  and  C_8
    3  A    between atoms: C_8  and  C_9
    4  A    between atoms: C_10  and  O_11
    5  A    between atoms: C_12  and  C_13
    6  A    between atoms: C_13  and  C_14
    7  A    between atoms: C_19  and  O_20
    8  A    between atoms: C_21  and  O_35
    9  A    between atoms: C_25  and  C_29
                            x       y       z     vdW  Elec       q    Type
                         _______ _______ _______ _____ _____    ______ ____

>  <TORSDO>
F 9

$$$$
=
 OpenBabel08112514243D

 39 43  0  0  1  0  0  0  0  0999 V2000
   85.0620   51.9890   44.1650 C   0  0  0  0  0  0  0  0  0  0  0  0
   85.7070   53.2390   43.9780 C   0  0  0  0  0  0  0  0  0  0  0  0
   85.0240   54.2970   43.3440 C   0  0  0  0  0  0  0  0  0  0  0  0
   83.7140   54.1060   42.8520 C   0  0  0  0  0  0  0  0  0  0  0  0
   83.1130   52.8260   42.9330 C   0  0  0  0  0  0  0  0  0  0  0  0
   83.7650   51.8060   43.6500 C   0  0  0  0  0  0  0  0  0  0  0  0
   83.1190   50.5790   43.8490 O   0  0  0  0  0  0  0  0  0  0  0  0
   81.7220   50.4050   43.6250 C   0  0  1  0  0  3  0  0  0  0  0  0
   81.3490   51.0390   42.2780 C   0  0  0  0  0  2  0  0  0  0  0  0
   81.8550   52.4530   42.2160 C   0  0  0  0  0  0  0  0  0  0  0  0
   81.2720   53.2570   41.4420 O   0  0  0  0  0  0  0  0  0  0  0  0
   81.3800   48.9330   43.7730 C   0  0  0  0  0  0  0  0  0  0  0  0
   82.4260   47.9980   43.6550 C   0  0  0  0  0  3  0  0  0  0  0  0
   82.1720   46.6270   43.7510 C   0  0  0  0  0  3  0  0  0  0  0  0
   80.8720   46.1690   43.9710 C   0  0  0  0  0  3  0  0  0  0  0  0
   79.8240   47.0830   44.0980 C   0  0  0  0  0  3  0  0  0  0  0  0
   80.0700   48.4560   44.0010 C   0  0  0  0  0  3  0  0  0  0  0  0
   87.0160   53.4760   44.4110 O   0  0  0  0  0  0  0  0  0  0  0  0
   87.7220   53.4730   43.7950 H   0  0  0  0  0  0  0  0  0  0  0  0
   83.0420   55.2070   42.3140 O   0  0  0  0  0  0  0  0  0  0  0  0
   82.6540   55.1490   41.4630 H   0  0  0  0  0  0  0  0  0  0  0  0
   85.7040   50.8310   44.9140 C   0  0  0  0  0  2  0  0  0  0  0  0
   86.9410   50.5150   47.1170 C   0  0  0  0  0  0  0  0  0  0  0  0
   87.1260   50.8370   48.4700 C   0  0  0  0  0  3  0  0  0  0  0  0
   86.3300   51.8100   49.0780 C   0  0  0  0  0  3  0  0  0  0  0  0
   85.3490   52.4730   48.3400 C   0  0  0  0  0  3  0  0  0  0  0  0
   85.1600   52.1620   46.9910 C   0  0  0  0  0  3  0  0  0  0  0  0
   85.9460   51.1750   46.3670 C   0  0  0  0  0  0  0  0  0  0  0  0
   87.7430   49.5430   46.5210 O   0  0  0  0  0  0  0  0  0  0  0  0
   87.4310   48.6630   46.4380 H   0  0  0  0  0  0  0  0  0  0  0  0
   85.6910   55.6570   43.2330 C   0  0  0  0  0  2  0  0  0  0  0  0
   85.2800   56.5600   44.3790 C   0  0  0  0  0  0  0  0  0  0  0  0
   84.7650   55.9510   45.5420 C   0  0  0  0  0  3  0  0  0  0  0  0
   84.3910   56.7160   46.6470 C   0  0  0  0  0  3  0  0  0  0  0  0
   84.5240   58.1020   46.6140 C   0  0  0  0  0  3  0  0  0  0  0  0
   85.0230   58.7270   45.4710 C   0  0  0  0  0  3  0  0  0  0  0  0
   85.4010   57.9780   44.3490 C   0  0  0  0  0  0  0  0  0  0  0  0
   85.8770   58.6870   43.2430 O   0  0  0  0  0  0  0  0  0  0  0  0
   85.2740   59.1000   42.6570 H   0  0  0  0  0  0  0  0  0  0  0  0
  1 22  1  0  0  0  0
  2  1  1  0  0  0  0
  2 18  1  0  0  0  0
  3  2  2  0  0  0  0
  4  5  2  0  0  0  0
  4  3  1  0  0  0  0
  5  6  1  0  0  0  0
  6  7  1  0  0  0  0
  6  1  2  0  0  0  0
  8 12  1  6  0  0  0
  8  7  1  0  0  0  0
  9  8  1  0  0  0  0
 10  9  1  0  0  0  0
 10  5  1  0  0  0  0
 11 10  2  0  0  0  0
 12 17  1  0  0  0  0
 13 14  1  0  0  0  0
 13 12  2  0  0  0  0
 14 15  2  0  0  0  0
 15 16  1  0  0  0  0
 17 16  2  0  0  0  0
 19 18  1  0  0  0  0
 20  4  1  0  0  0  0
 21 20  1  0  0  0  0
 22 28  1  0  0  0  0
 23 24  1  0  0  0  0
 24 25  2  0  0  0  0
 26 25  1  0  0  0  0
 27 26  2  0  0  0  0
 28 27  1  0  0  0  0
 28 23  2  0  0  0  0
 29 23  1  0  0  0  0
 30 29  1  0  0  0  0
 31  3  1  0  0  0  0
 31 32  1  0  0  0  0
 32 33  1  0  0  0  0
 33 34  2  0  0  0  0
 35 34  1  0  0  0  0
 36 35  2  0  0  0  0
 37 32  2  0  0  0  0
 37 36  1  0  0  0  0
 38 37  1  0  0  0  0
 39 38  1  0  0  0  0
M  END
>  <MODEL>
7

>  <REMARK>
 VINA RESULT:    -9.683      1.885      2.919
 INTER + INTRA:         -15.445
 INTER:                 -14.150
 INTRA:                  -1.295
 UNBOUND:                -1.800
  Name = 
  9 active torsions:
  status: ('A' for Active; 'I' for Inactive)
    1  A    between atoms: O_1  and  C_2
    2  A    between atoms: C_7  and  C_8
    3  A    between atoms: C_8  and  C_9
    4  A    between atoms: C_10  and  O_11
    5  A    between atoms: C_12  and  C_13
    6  A    between atoms: C_13  and  C_14
    7  A    between atoms: C_19  and  O_20
    8  A    between atoms: C_21  and  O_35
    9  A    between atoms: C_25  and  C_29
                            x       y       z     vdW  Elec       q    Type
                         _______ _______ _______ _____ _____    ______ ____

>  <TORSDO>
F 9

$$$$
=
 OpenBabel08112514243D

 39 43  0  0  1  0  0  0  0  0999 V2000
   86.2420   52.1700   43.3840 C   0  0  0  0  0  0  0  0  0  0  0  0
   86.6510   50.8300   43.1650 C   0  0  0  0  0  0  0  0  0  0  0  0
   86.7380   49.9320   44.2500 C   0  0  0  0  0  0  0  0  0  0  0  0
   86.4640   50.3740   45.5620 C   0  0  0  0  0  0  0  0  0  0  0  0
   86.1680   51.7390   45.7980 C   0  0  0  0  0  0  0  0  0  0  0  0
   85.9910   52.6010   44.7000 C   0  0  0  0  0  0  0  0  0  0  0  0
   85.5690   53.9200   44.9170 O   0  0  0  0  0  0  0  0  0  0  0  0
   85.0210   54.3520   46.1600 C   0  0  1  0  0  3  0  0  0  0  0  0
   85.9060   53.8360   47.3030 C   0  0  0  0  0  2  0  0  0  0  0  0
   86.1230   52.3550   47.1590 C   0  0  0  0  0  0  0  0  0  0  0  0
   86.4020   51.6950   48.1930 O   0  0  0  0  0  0  0  0  0  0  0  0
   84.8230   55.8570   46.1130 C   0  0  0  0  0  0  0  0  0  0  0  0
   85.5100   56.5810   45.1200 C   0  0  0  0  0  3  0  0  0  0  0  0
   85.3940   57.9720   45.0430 C   0  0  0  0  0  3  0  0  0  0  0  0
   84.5870   58.6590   45.9510 C   0  0  0  0  0  3  0  0  0  0  0  0
   83.8940   57.9550   46.9380 C   0  0  0  0  0  3  0  0  0  0  0  0
   84.0070   56.5640   47.0230 C   0  0  0  0  0  3  0  0  0  0  0  0
   86.9720   50.3450   41.8920 O   0  0  0  0  0  0  0  0  0  0  0  0
   86.9090   49.4270   41.7110 H   0  0  0  0  0  0  0  0  0  0  0  0
   86.4730   49.4300   46.5940 O   0  0  0  0  0  0  0  0  0  0  0  0
   86.4380   49.7120   47.4860 H   0  0  0  0  0  0  0  0  0  0  0  0
   86.0420   53.1690   42.2550 C   0  0  0  0  0  2  0  0  0  0  0  0
   84.0670   54.6790   41.7040 C   0  0  0  0  0  0  0  0  0  0  0  0
   82.6970   54.8540   41.4570 C   0  0  0  0  0  3  0  0  0  0  0  0
   81.8340   53.7570   41.4590 C   0  0  0  0  0  3  0  0  0  0  0  0
   82.3320   52.4770   41.7010 C   0  0  0  0  0  3  0  0  0  0  0  0
   83.6950   52.2900   41.9450 C   0  0  0  0  0  3  0  0  0  0  0  0
   84.5760   53.3880   41.9580 C   0  0  0  0  0  0  0  0  0  0  0  0
   84.9190   55.7820   41.6970 O   0  0  0  0  0  0  0  0  0  0  0  0
   85.7240   55.7560   42.1780 H   0  0  0  0  0  0  0  0  0  0  0  0
   87.0880   48.4770   43.9890 C   0  0  0  0  0  2  0  0  0  0  0  0
   85.8450   47.6640   43.6880 C   0  0  0  0  0  0  0  0  0  0  0  0
   84.5940   48.2430   43.9870 C   0  0  0  0  0  3  0  0  0  0  0  0
   83.4060   47.5670   43.7120 C   0  0  0  0  0  3  0  0  0  0  0  0
   83.4420   46.2990   43.1350 C   0  0  0  0  0  3  0  0  0  0  0  0
   84.6680   45.7030   42.8390 C   0  0  0  0  0  3  0  0  0  0  0  0
   85.8730   46.3640   43.1100 C   0  0  0  0  0  0  0  0  0  0  0  0
   87.0540   45.6870   42.7950 O   0  0  0  0  0  0  0  0  0  0  0  0
   87.0190   44.8020   42.4890 H   0  0  0  0  0  0  0  0  0  0  0  0
  1  6  1  0  0  0  0
  2  1  2  0  0  0  0
  2  3  1  0  0  0  0
  3  4  2  0  0  0  0
  4  5  1  0  0  0  0
  4 20  1  0  0  0  0
  5 10  1  0  0  0  0
  6  7  1  0  0  0  0
  6  5  2  0  0  0  0
  7  8  1  0  0  0  0
  8 12  1  6  0  0  0
  8  9  1  0  0  0  0
 10  9  1  0  0  0  0
 10 11  2  0  0  0  0
 12 17  1  0  0  0  0
 13 12  2  0  0  0  0
 14 13  1  0  0  0  0
 14 15  2  0  0  0  0
 15 16  1  0  0  0  0
 16 17  2  0  0  0  0
 18  2  1  0  0  0  0
 19 18  1  0  0  0  0
 20 21  1  0  0  0  0
 22  1  1  0  0  0  0
 23 28  1  0  0  0  0
 24 25  1  0  0  0  0
 24 23  2  0  0  0  0
 25 26  2  0  0  0  0
 26 27  1  0  0  0  0
 27 28  2  0  0  0  0
 28 22  1  0  0  0  0
 29 23  1  0  0  0  0
 29 30  1  0  0  0  0
 31  3  1  0  0  0  0
 32 33  1  0  0  0  0
 32 31  1  0  0  0  0
 34 33  2  0  0  0  0
 35 34  1  0  0  0  0
 36 37  1  0  0  0  0
 36 35  2  0  0  0  0
 37 32  2  0  0  0  0
 38 37  1  0  0  0  0
 39 38  1  0  0  0  0
M  END
>  <MODEL>
8

>  <REMARK>
 VINA RESULT:    -9.663      2.202      8.143
 INTER + INTRA:         -15.418
 INTER:                 -13.908
 INTRA:                  -1.510
 UNBOUND:                -1.800
  Name = 
  9 active torsions:
  status: ('A' for Active; 'I' for Inactive)
    1  A    between atoms: O_1  and  C_2
    2  A    between atoms: C_7  and  C_8
    3  A    between atoms: C_8  and  C_9
    4  A    between atoms: C_10  and  O_11
    5  A    between atoms: C_12  and  C_13
    6  A    between atoms: C_13  and  C_14
    7  A    between atoms: C_19  and  O_20
    8  A    between atoms: C_21  and  O_35
    9  A    between atoms: C_25  and  C_29
                            x       y       z     vdW  Elec       q    Type
                         _______ _______ _______ _____ _____    ______ ____

>  <TORSDO>
F 9

$$$$
=
 OpenBabel08112514243D

 39 43  0  0  1  0  0  0  0  0999 V2000
   86.5740   49.8520   44.6110 C   0  0  0  0  0  0  0  0  0  0  0  0
   85.9480   51.1170   44.7450 C   0  0  0  0  0  0  0  0  0  0  0  0
   84.5460   51.2270   44.6300 C   0  0  0  0  0  0  0  0  0  0  0  0
   83.7650   50.0880   44.3370 C   0  0  0  0  0  0  0  0  0  0  0  0
   84.3980   48.8460   44.0880 C   0  0  0  0  0  0  0  0  0  0  0  0
   85.7850   48.7290   44.2980 C   0  0  0  0  0  0  0  0  0  0  0  0
   86.3980   47.4740   44.1830 O   0  0  0  0  0  0  0  0  0  0  0  0
   85.6540   46.2590   44.1600 C   0  0  1  0  0  3  0  0  0  0  0  0
   84.4750   46.4140   43.1890 C   0  0  0  0  0  2  0  0  0  0  0  0
   83.6950   47.6560   43.5180 C   0  0  0  0  0  0  0  0  0  0  0  0
   82.4870   47.7060   43.1700 O   0  0  0  0  0  0  0  0  0  0  0  0
   86.6000   45.1090   43.8630 C   0  0  0  0  0  0  0  0  0  0  0  0
   86.3290   43.8630   44.4580 C   0  0  0  0  0  3  0  0  0  0  0  0
   87.1780   42.7730   44.2490 C   0  0  0  0  0  3  0  0  0  0  0  0
   88.3070   42.9090   43.4400 C   0  0  0  0  0  3  0  0  0  0  0  0
   88.5880   44.1370   42.8370 C   0  0  0  0  0  3  0  0  0  0  0  0
   87.7440   45.2320   43.0430 C   0  0  0  0  0  3  0  0  0  0  0  0
   86.6730   52.2870   44.9990 O   0  0  0  0  0  0  0  0  0  0  0  0
   87.4830   52.2430   45.4670 H   0  0  0  0  0  0  0  0  0  0  0  0
   82.3740   50.2250   44.3240 O   0  0  0  0  0  0  0  0  0  0  0  0
   81.9580   50.7130   43.6410 H   0  0  0  0  0  0  0  0  0  0  0  0
   88.0680   49.6430   44.8060 C   0  0  0  0  0  2  0  0  0  0  0  0
   90.0070   48.8870   43.3390 C   0  0  0  0  0  0  0  0  0  0  0  0
   90.6790   48.8930   42.1070 C   0  0  0  0  0  3  0  0  0  0  0  0
   90.1610   49.6060   41.0240 C   0  0  0  0  0  3  0  0  0  0  0  0
   88.9650   50.3120   41.1590 C   0  0  0  0  0  3  0  0  0  0  0  0
   88.2860   50.3100   42.3800 C   0  0  0  0  0  3  0  0  0  0  0  0
   88.8020   49.6070   43.4850 C   0  0  0  0  0  0  0  0  0  0  0  0
   90.5330   48.1710   44.4120 O   0  0  0  0  0  0  0  0  0  0  0  0
   91.1410   47.4750   44.2580 H   0  0  0  0  0  0  0  0  0  0  0  0
   83.8800   52.5720   44.8670 C   0  0  0  0  0  2  0  0  0  0  0  0
   83.9270   53.4300   43.6190 C   0  0  0  0  0  0  0  0  0  0  0  0
   83.1060   53.0550   42.5350 C   0  0  0  0  0  3  0  0  0  0  0  0
   83.0750   53.8120   41.3640 C   0  0  0  0  0  3  0  0  0  0  0  0
   83.8620   54.9560   41.2500 C   0  0  0  0  0  3  0  0  0  0  0  0
   84.6880   55.3410   42.3060 C   0  0  0  0  0  3  0  0  0  0  0  0
   84.7360   54.5930   43.4900 C   0  0  0  0  0  0  0  0  0  0  0  0
   85.6020   55.0420   44.4900 O   0  0  0  0  0  0  0  0  0  0  0  0
   85.3220   55.0480   45.3850 H   0  0  0  0  0  0  0  0  0  0  0  0
  1  2  1  0  0  0  0
  1 22  1  0  0  0  0
  2 18  1  0  0  0  0
  3  2  2  0  0  0  0
  3 31  1  0  0  0  0
  4  3  1  0  0  0  0
  5  6  1  0  0  0  0
  5  4  2  0  0  0  0
  6  1  2  0  0  0  0
  7  6  1  0  0  0  0
  8 12  1  6  0  0  0
  8  7  1  0  0  0  0
  9 10  1  0  0  0  0
  9  8  1  0  0  0  0
 10  5  1  0  0  0  0
 11 10  2  0  0  0  0
 12 13  1  0  0  0  0
 14 13  2  0  0  0  0
 15 14  1  0  0  0  0
 16 17  1  0  0  0  0
 16 15  2  0  0  0  0
 17 12  2  0  0  0  0
 18 19  1  0  0  0  0
 20  4  1  0  0  0  0
 21 20  1  0  0  0  0
 23 28  1  0  0  0  0
 23 29  1  0  0  0  0
 24 23  2  0  0  0  0
 25 26  2  0  0  0  0
 25 24  1  0  0  0  0
 26 27  1  0  0  0  0
 27 28  2  0  0  0  0
 28 22  1  0  0  0  0
 30 29  1  0  0  0  0
 32 31  1  0  0  0  0
 33 32  2  0  0  0  0
 34 33  1  0  0  0  0
 35 34  2  0  0  0  0
 35 36  1  0  0  0  0
 36 37  2  0  0  0  0
 37 32  1  0  0  0  0
 37 38  1  0  0  0  0
 38 39  1  0  0  0  0
M  END
>  <MODEL>
9

>  <REMARK>
 VINA RESULT:    -9.612      2.469      4.905
 INTER + INTRA:         -15.346
 INTER:                 -13.545
 INTRA:                  -1.800
 UNBOUND:                -1.800
  Name = 
  9 active torsions:
  status: ('A' for Active; 'I' for Inactive)
    1  A    between atoms: O_1  and  C_2
    2  A    between atoms: C_7  and  C_8
    3  A    between atoms: C_8  and  C_9
    4  A    between atoms: C_10  and  O_11
    5  A    between atoms: C_12  and  C_13
    6  A    between atoms: C_13  and  C_14
    7  A    between atoms: C_19  and  O_20
    8  A    between atoms: C_21  and  O_35
    9  A    between atoms: C_25  and  C_29
                            x       y       z     vdW  Elec       q    Type
                         _______ _______ _______ _____ _____    ______ ____

>  <TORSDO>
F 9

$$$$
