MODEL 1
REMARK VINA RESULT:   -11.042      0.000      0.000
REMARK INTER + INTRA:         -16.623
REMARK INTER:                 -14.891
REMARK INTRA:                  -1.732
REMARK UNBOUND:                -1.062
REMARK  Name = 
REMARK  9 active torsions:
REMARK  status: ('A' for Active; 'I' for Inactive)
REMARK    1  A    between atoms: O_1  and  C_2
REMARK    2  A    between atoms: C_7  and  C_8
REMARK    3  A    between atoms: C_8  and  C_9
REMARK    4  A    between atoms: C_10  and  O_11
REMARK    5  A    between atoms: C_12  and  C_13
REMARK    6  A    between atoms: C_13  and  C_14
REMARK    7  A    between atoms: C_19  and  O_20
REMARK    8  A    between atoms: C_21  and  O_35
REMARK    9  A    between atoms: C_25  and  C_29
REMARK                            x       y       z     vdW  Elec       q    Type
REMARK                         _______ _______ _______ _____ _____    ______ ____
ROOT
ATOM      1  C   UNL     1      85.312  50.922  43.997  0.00  0.00    +0.041 A 
ATOM      2  C   UNL     1      86.125  52.073  43.837  0.00  0.00    +0.131 A 
ATOM      3  C   UNL     1      85.591  53.237  43.248  0.00  0.00    +0.041 A 
ATOM      4  C   UNL     1      84.262  53.249  42.772  0.00  0.00    +0.138 A 
ATOM      5  C   UNL     1      83.486  52.066  42.824  0.00  0.00    +0.101 A 
ATOM      6  C   UNL     1      83.996  50.941  43.500  0.00  0.00    +0.142 A 
ATOM      7  O   UNL     1      83.185  49.811  43.672  0.00  0.00    -0.483 OA
ATOM      8  C   UNL     1      81.775  49.844  43.467  0.00  0.00    +0.132 C 
ATOM      9  C   UNL     1      81.479  50.568  42.146  0.00  0.00    +0.052 C 
ATOM     10  C   UNL     1      82.179  51.898  42.118  0.00  0.00    +0.174 C 
ATOM     11  O   UNL     1      81.707  52.800  41.379  0.00  0.00    -0.292 OA
ENDROOT
BRANCH   8  12
ATOM     12  C   UNL     1      81.229  48.431  43.576  0.00  0.00    -0.007 A 
ATOM     13  C   UNL     1      79.849  48.274  43.800  0.00  0.00    -0.055 A 
ATOM     14  C   UNL     1      79.289  47.000  43.940  0.00  0.00    -0.061 A 
ATOM     15  C   UNL     1      80.098  45.866  43.853  0.00  0.00    -0.062 A 
ATOM     16  C   UNL     1      81.469  46.004  43.624  0.00  0.00    -0.061 A 
ATOM     17  C   UNL     1      82.036  47.275  43.485  0.00  0.00    -0.055 A 
ENDBRANCH   8  12
BRANCH   2  18
ATOM     18  O   UNL     1      87.460  52.109  44.255  0.00  0.00    -0.506 OA
ATOM     19  H   UNL     1      87.930  52.920  44.256  0.00  0.00    +0.000 HD
ENDBRANCH   2  18
BRANCH   4  20
ATOM     20  O   UNL     1      83.746  54.451  42.279  0.00  0.00    -0.506 OA
ATOM     21  H   UNL     1      84.212  55.252  42.414  0.00  0.00    +0.000 HD
ENDBRANCH   4  20
BRANCH   1  22
ATOM     22  C   UNL     1      85.792  49.661  44.700  0.00  0.00    +0.008 C 
BRANCH  22  28
ATOM     23  C   UNL     1      86.112  47.301  43.799  0.00  0.00    +0.120 A 
ATOM     24  C   UNL     1      86.714  46.410  42.897  0.00  0.00    -0.020 A 
ATOM     25  C   UNL     1      87.599  46.881  41.926  0.00  0.00    -0.058 A 
ATOM     26  C   UNL     1      87.885  48.244  41.842  0.00  0.00    -0.061 A 
ATOM     27  C   UNL     1      87.288  49.140  42.733  0.00  0.00    -0.055 A 
ATOM     28  C   UNL     1      86.404  48.679  43.725  0.00  0.00    -0.001 A 
BRANCH  23  29
ATOM     29  O   UNL     1      85.228  46.819  44.763  0.00  0.00    -0.506 OA
ATOM     30  H   UNL     1      84.421  46.420  44.502  0.00  0.00    +0.000 HD
ENDBRANCH  23  29
ENDBRANCH  22  28
ENDBRANCH   1  22
BRANCH   3  31
ATOM     31  C   UNL     1      86.444  54.492  43.167  0.00  0.00    +0.008 C 
BRANCH  31  32
ATOM     32  C   UNL     1      86.089  55.463  44.275  0.00  0.00    -0.001 A 
ATOM     33  C   UNL     1      86.457  55.119  45.591  0.00  0.00    -0.055 A 
ATOM     34  C   UNL     1      86.189  55.976  46.659  0.00  0.00    -0.061 A 
ATOM     35  C   UNL     1      85.547  57.192  46.434  0.00  0.00    -0.058 A 
ATOM     36  C   UNL     1      85.165  57.550  45.140  0.00  0.00    -0.020 A 
ATOM     37  C   UNL     1      85.423  56.702  44.055  0.00  0.00    +0.120 A 
BRANCH  37  38
ATOM     38  O   UNL     1      84.994  57.133  42.797  0.00  0.00    -0.506 OA
ATOM     39  H   UNL     1      84.311  57.771  42.729  0.00  0.00    +0.000 HD
ENDBRANCH  37  38
ENDBRANCH  31  32
ENDBRANCH   3  31
TORSDOF 9
ENDMDL
MODEL 2
REMARK VINA RESULT:   -10.539      2.050      8.240
REMARK INTER + INTRA:         -15.914
REMARK INTER:                 -14.334
REMARK INTRA:                  -1.580
REMARK UNBOUND:                -1.062
REMARK  Name = 
REMARK  9 active torsions:
REMARK  status: ('A' for Active; 'I' for Inactive)
REMARK    1  A    between atoms: O_1  and  C_2
REMARK    2  A    between atoms: C_7  and  C_8
REMARK    3  A    between atoms: C_8  and  C_9
REMARK    4  A    between atoms: C_10  and  O_11
REMARK    5  A    between atoms: C_12  and  C_13
REMARK    6  A    between atoms: C_13  and  C_14
REMARK    7  A    between atoms: C_19  and  O_20
REMARK    8  A    between atoms: C_21  and  O_35
REMARK    9  A    between atoms: C_25  and  C_29
REMARK                            x       y       z     vdW  Elec       q    Type
REMARK                         _______ _______ _______ _____ _____    ______ ____
ROOT
ATOM      1  C   UNL     1      86.176  51.743  43.123  0.00  0.00    +0.041 A 
ATOM      2  C   UNL     1      86.438  50.355  42.990  0.00  0.00    +0.131 A 
ATOM      3  C   UNL     1      86.470  49.531  44.134  0.00  0.00    +0.041 A 
ATOM      4  C   UNL     1      86.288  50.088  45.418  0.00  0.00    +0.138 A 
ATOM      5  C   UNL     1      86.143  51.489  45.563  0.00  0.00    +0.101 A 
ATOM      6  C   UNL     1      86.018  52.288  44.411  0.00  0.00    +0.142 A 
ATOM      7  O   UNL     1      85.741  53.655  44.545  0.00  0.00    -0.483 OA
ATOM      8  C   UNL     1      85.284  54.227  45.767  0.00  0.00    +0.132 C 
ATOM      9  C   UNL     1      86.150  53.701  46.920  0.00  0.00    +0.052 C 
ATOM     10  C   UNL     1      86.209  52.200  46.877  0.00  0.00    +0.174 C 
ATOM     11  O   UNL     1      86.454  51.586  47.948  0.00  0.00    -0.292 OA
ENDROOT
BRANCH   8  12
ATOM     12  C   UNL     1      85.240  55.737  45.617  0.00  0.00    -0.007 A 
ATOM     13  C   UNL     1      86.000  56.319  44.586  0.00  0.00    -0.055 A 
ATOM     14  C   UNL     1      86.026  57.707  44.414  0.00  0.00    -0.061 A 
ATOM     15  C   UNL     1      85.290  58.531  45.265  0.00  0.00    -0.062 A 
ATOM     16  C   UNL     1      84.525  57.970  46.290  0.00  0.00    -0.061 A 
ATOM     17  C   UNL     1      84.496  56.584  46.469  0.00  0.00    -0.055 A 
ENDBRANCH   8  12
BRANCH   2  18
ATOM     18  O   UNL     1      86.663  49.753  41.748  0.00  0.00    -0.506 OA
ATOM     19  H   UNL     1      86.263  48.930  41.546  0.00  0.00    +0.000 HD
ENDBRANCH   2  18
BRANCH   4  20
ATOM     20  O   UNL     1      86.237  49.222  46.515  0.00  0.00    -0.506 OA
ATOM     21  H   UNL     1      85.484  49.216  47.072  0.00  0.00    +0.000 HD
ENDBRANCH   4  20
BRANCH   1  22
ATOM     22  C   UNL     1      86.042  52.677  41.931  0.00  0.00    +0.008 C 
BRANCH  22  28
ATOM     23  C   UNL     1      84.218  54.376  41.406  0.00  0.00    +0.120 A 
ATOM     24  C   UNL     1      82.867  54.689  41.193  0.00  0.00    -0.020 A 
ATOM     25  C   UNL     1      81.895  53.687  41.242  0.00  0.00    -0.058 A 
ATOM     26  C   UNL     1      82.264  52.366  41.496  0.00  0.00    -0.061 A 
ATOM     27  C   UNL     1      83.607  52.043  41.705  0.00  0.00    -0.055 A 
ATOM     28  C   UNL     1      84.597  53.043  41.671  0.00  0.00    -0.001 A 
BRANCH  23  29
ATOM     29  O   UNL     1      85.179  55.383  41.353  0.00  0.00    -0.506 OA
ATOM     30  H   UNL     1      85.709  55.566  42.104  0.00  0.00    +0.000 HD
ENDBRANCH  23  29
ENDBRANCH  22  28
ENDBRANCH   1  22
BRANCH   3  31
ATOM     31  C   UNL     1      86.660  48.033  43.970  0.00  0.00    +0.008 C 
BRANCH  31  32
ATOM     32  C   UNL     1      85.324  47.324  43.863  0.00  0.00    -0.001 A 
ATOM     33  C   UNL     1      84.188  48.106  43.572  0.00  0.00    -0.055 A 
ATOM     34  C   UNL     1      82.930  47.520  43.431  0.00  0.00    -0.061 A 
ATOM     35  C   UNL     1      82.781  46.143  43.579  0.00  0.00    -0.058 A 
ATOM     36  C   UNL     1      83.889  45.350  43.877  0.00  0.00    -0.020 A 
ATOM     37  C   UNL     1      85.161  45.919  44.025  0.00  0.00    +0.120 A 
BRANCH  37  38
ATOM     38  O   UNL     1      86.212  45.053  44.337  0.00  0.00    -0.506 OA
ATOM     39  H   UNL     1      86.505  44.973  45.224  0.00  0.00    +0.000 HD
ENDBRANCH  37  38
ENDBRANCH  31  32
ENDBRANCH   3  31
TORSDOF 9
ENDMDL
MODEL 3
REMARK VINA RESULT:   -10.292      2.147      3.341
REMARK INTER + INTRA:         -15.566
REMARK INTER:                 -14.039
REMARK INTRA:                  -1.527
REMARK UNBOUND:                -1.062
REMARK  Name = 
REMARK  9 active torsions:
REMARK  status: ('A' for Active; 'I' for Inactive)
REMARK    1  A    between atoms: O_1  and  C_2
REMARK    2  A    between atoms: C_7  and  C_8
REMARK    3  A    between atoms: C_8  and  C_9
REMARK    4  A    between atoms: C_10  and  O_11
REMARK    5  A    between atoms: C_12  and  C_13
REMARK    6  A    between atoms: C_13  and  C_14
REMARK    7  A    between atoms: C_19  and  O_20
REMARK    8  A    between atoms: C_21  and  O_35
REMARK    9  A    between atoms: C_25  and  C_29
REMARK                            x       y       z     vdW  Elec       q    Type
REMARK                         _______ _______ _______ _____ _____    ______ ____
ROOT
ATOM      1  C   UNL     1      85.438  49.969  43.912  0.00  0.00    +0.041 A 
ATOM      2  C   UNL     1      86.441  50.928  43.616  0.00  0.00    +0.131 A 
ATOM      3  C   UNL     1      86.101  52.119  42.942  0.00  0.00    +0.041 A 
ATOM      4  C   UNL     1      84.773  52.344  42.520  0.00  0.00    +0.138 A 
ATOM      5  C   UNL     1      83.794  51.338  42.711  0.00  0.00    +0.101 A 
ATOM      6  C   UNL     1      84.123  50.197  43.466  0.00  0.00    +0.142 A 
ATOM      7  O   UNL     1      83.126  49.260  43.773  0.00  0.00    -0.483 OA
ATOM      8  C   UNL     1      81.738  49.543  43.620  0.00  0.00    +0.132 C 
ATOM      9  C   UNL     1      81.509  50.198  42.251  0.00  0.00    +0.052 C 
ATOM     10  C   UNL     1      82.442  51.364  42.074  0.00  0.00    +0.174 C 
ATOM     11  O   UNL     1      82.106  52.274  41.273  0.00  0.00    -0.292 OA
ENDROOT
BRANCH   8  12
ATOM     12  C   UNL     1      80.946  48.274  43.880  0.00  0.00    -0.007 A 
ATOM     13  C   UNL     1      81.657  47.064  43.982  0.00  0.00    -0.055 A 
ATOM     14  C   UNL     1      80.983  45.856  44.190  0.00  0.00    -0.061 A 
ATOM     15  C   UNL     1      79.593  45.841  44.305  0.00  0.00    -0.062 A 
ATOM     16  C   UNL     1      78.873  47.033  44.213  0.00  0.00    -0.061 A 
ATOM     17  C   UNL     1      79.539  48.245  44.002  0.00  0.00    -0.055 A 
ENDBRANCH   8  12
BRANCH   2  18
ATOM     18  O   UNL     1      87.780  50.744  43.977  0.00  0.00    -0.506 OA
ATOM     19  H   UNL     1      88.055  49.936  44.364  0.00  0.00    +0.000 HD
ENDBRANCH   2  18
BRANCH   4  20
ATOM     20  O   UNL     1      84.463  53.576  41.938  0.00  0.00    -0.506 OA
ATOM     21  H   UNL     1      85.080  53.997  41.373  0.00  0.00    +0.000 HD
ENDBRANCH   4  20
BRANCH   1  22
ATOM     22  C   UNL     1      85.713  48.703  44.709  0.00  0.00    +0.008 C 
BRANCH  22  28
ATOM     23  C   UNL     1      85.739  46.258  44.000  0.00  0.00    +0.120 A 
ATOM     24  C   UNL     1      86.224  45.231  43.175  0.00  0.00    -0.020 A 
ATOM     25  C   UNL     1      87.157  45.512  42.175  0.00  0.00    -0.058 A 
ATOM     26  C   UNL     1      87.608  46.819  41.986  0.00  0.00    -0.061 A 
ATOM     27  C   UNL     1      87.128  47.849  42.799  0.00  0.00    -0.055 A 
ATOM     28  C   UNL     1      86.197  47.580  43.819  0.00  0.00    -0.001 A 
BRANCH  23  29
ATOM     29  O   UNL     1      84.806  45.966  44.993  0.00  0.00    -0.506 OA
ATOM     30  H   UNL     1      84.318  45.166  44.958  0.00  0.00    +0.000 HD
ENDBRANCH  23  29
ENDBRANCH  22  28
ENDBRANCH   1  22
BRANCH   3  31
ATOM     31  C   UNL     1      87.166  53.178  42.713  0.00  0.00    +0.008 C 
BRANCH  31  32
ATOM     32  C   UNL     1      88.028  52.832  41.515  0.00  0.00    -0.001 A 
ATOM     33  C   UNL     1      89.345  52.392  41.760  0.00  0.00    -0.055 A 
ATOM     34  C   UNL     1      90.187  52.029  40.709  0.00  0.00    -0.061 A 
ATOM     35  C   UNL     1      89.733  52.101  39.394  0.00  0.00    -0.058 A 
ATOM     36  C   UNL     1      88.437  52.542  39.127  0.00  0.00    -0.020 A 
ATOM     37  C   UNL     1      87.576  52.914  40.168  0.00  0.00    +0.120 A 
BRANCH  37  38
ATOM     38  O   UNL     1      86.301  53.358  39.810  0.00  0.00    -0.506 OA
ATOM     39  H   UNL     1      85.554  53.088  40.307  0.00  0.00    +0.000 HD
ENDBRANCH  37  38
ENDBRANCH  31  32
ENDBRANCH   3  31
TORSDOF 9
ENDMDL
MODEL 4
REMARK VINA RESULT:   -10.278      2.316      5.655
REMARK INTER + INTRA:         -15.545
REMARK INTER:                 -13.334
REMARK INTRA:                  -2.212
REMARK UNBOUND:                -1.062
REMARK  Name = 
REMARK  9 active torsions:
REMARK  status: ('A' for Active; 'I' for Inactive)
REMARK    1  A    between atoms: O_1  and  C_2
REMARK    2  A    between atoms: C_7  and  C_8
REMARK    3  A    between atoms: C_8  and  C_9
REMARK    4  A    between atoms: C_10  and  O_11
REMARK    5  A    between atoms: C_12  and  C_13
REMARK    6  A    between atoms: C_13  and  C_14
REMARK    7  A    between atoms: C_19  and  O_20
REMARK    8  A    between atoms: C_21  and  O_35
REMARK    9  A    between atoms: C_25  and  C_29
REMARK                            x       y       z     vdW  Elec       q    Type
REMARK                         _______ _______ _______ _____ _____    ______ ____
ROOT
ATOM      1  C   UNL     1      85.223  50.339  44.181  0.00  0.00    +0.041 A 
ATOM      2  C   UNL     1      86.589  50.718  44.124  0.00  0.00    +0.131 A 
ATOM      3  C   UNL     1      87.552  49.814  43.631  0.00  0.00    +0.041 A 
ATOM      4  C   UNL     1      87.171  48.513  43.237  0.00  0.00    +0.138 A 
ATOM      5  C   UNL     1      85.829  48.093  43.402  0.00  0.00    +0.101 A 
ATOM      6  C   UNL     1      84.861  49.033  43.804  0.00  0.00    +0.142 A 
ATOM      7  O   UNL     1      83.510  48.661  43.843  0.00  0.00    -0.483 OA
ATOM      8  C   UNL     1      83.025  47.478  43.214  0.00  0.00    +0.132 C 
ATOM      9  C   UNL     1      83.953  46.307  43.565  0.00  0.00    +0.052 C 
ATOM     10  C   UNL     1      85.380  46.673  43.266  0.00  0.00    +0.174 C 
ATOM     11  O   UNL     1      86.196  45.741  43.043  0.00  0.00    -0.292 OA
ENDROOT
BRANCH   8  12
ATOM     12  C   UNL     1      81.564  47.289  43.583  0.00  0.00    -0.007 A 
ATOM     13  C   UNL     1      80.731  48.424  43.578  0.00  0.00    -0.055 A 
ATOM     14  C   UNL     1      79.384  48.322  43.937  0.00  0.00    -0.061 A 
ATOM     15  C   UNL     1      78.848  47.086  44.301  0.00  0.00    -0.062 A 
ATOM     16  C   UNL     1      79.658  45.949  44.305  0.00  0.00    -0.061 A 
ATOM     17  C   UNL     1      81.007  46.044  43.949  0.00  0.00    -0.055 A 
ENDBRANCH   8  12
BRANCH   2  18
ATOM     18  O   UNL     1      87.032  51.980  44.535  0.00  0.00    -0.506 OA
ATOM     19  H   UNL     1      87.816  52.060  45.042  0.00  0.00    +0.000 HD
ENDBRANCH   2  18
BRANCH   4  20
ATOM     20  O   UNL     1      88.141  47.682  42.669  0.00  0.00    -0.506 OA
ATOM     21  H   UNL     1      89.050  47.867  42.798  0.00  0.00    +0.000 HD
ENDBRANCH   4  20
BRANCH   1  22
ATOM     22  C   UNL     1      84.119  51.289  44.619  0.00  0.00    +0.008 C 
BRANCH  22  28
ATOM     23  C   UNL     1      84.110  53.370  43.151  0.00  0.00    +0.120 A 
ATOM     24  C   UNL     1      83.578  54.106  42.081  0.00  0.00    -0.020 A 
ATOM     25  C   UNL     1      82.533  53.583  41.316  0.00  0.00    -0.058 A 
ATOM     26  C   UNL     1      82.016  52.321  41.608  0.00  0.00    -0.061 A 
ATOM     27  C   UNL     1      82.541  51.578  42.668  0.00  0.00    -0.055 A 
ATOM     28  C   UNL     1      83.586  52.096  43.456  0.00  0.00    -0.001 A 
BRANCH  23  29
ATOM     29  O   UNL     1      85.153  53.901  43.906  0.00  0.00    -0.506 OA
ATOM     30  H   UNL     1      85.376  54.808  43.827  0.00  0.00    +0.000 HD
ENDBRANCH  23  29
ENDBRANCH  22  28
ENDBRANCH   1  22
BRANCH   3  31
ATOM     31  C   UNL     1      88.996  50.264  43.488  0.00  0.00    +0.008 C 
BRANCH  31  32
ATOM     32  C   UNL     1      89.223  50.947  42.154  0.00  0.00    -0.001 A 
ATOM     33  C   UNL     1      88.922  52.321  42.061  0.00  0.00    -0.055 A 
ATOM     34  C   UNL     1      89.132  53.023  40.874  0.00  0.00    -0.061 A 
ATOM     35  C   UNL     1      89.645  52.368  39.757  0.00  0.00    -0.058 A 
ATOM     36  C   UNL     1      89.943  51.006  39.823  0.00  0.00    -0.020 A 
ATOM     37  C   UNL     1      89.736  50.282  41.005  0.00  0.00    +0.120 A 
BRANCH  37  38
ATOM     38  O   UNL     1      90.047  48.920  40.978  0.00  0.00    -0.506 OA
ATOM     39  H   UNL     1      90.932  48.639  41.108  0.00  0.00    +0.000 HD
ENDBRANCH  37  38
ENDBRANCH  31  32
ENDBRANCH   3  31
TORSDOF 9
ENDMDL
MODEL 5
REMARK VINA RESULT:   -10.220      2.090      3.103
REMARK INTER + INTRA:         -15.464
REMARK INTER:                 -14.187
REMARK INTRA:                  -1.277
REMARK UNBOUND:                -1.062
REMARK  Name = 
REMARK  9 active torsions:
REMARK  status: ('A' for Active; 'I' for Inactive)
REMARK    1  A    between atoms: O_1  and  C_2
REMARK    2  A    between atoms: C_7  and  C_8
REMARK    3  A    between atoms: C_8  and  C_9
REMARK    4  A    between atoms: C_10  and  O_11
REMARK    5  A    between atoms: C_12  and  C_13
REMARK    6  A    between atoms: C_13  and  C_14
REMARK    7  A    between atoms: C_19  and  O_20
REMARK    8  A    between atoms: C_21  and  O_35
REMARK    9  A    between atoms: C_25  and  C_29
REMARK                            x       y       z     vdW  Elec       q    Type
REMARK                         _______ _______ _______ _____ _____    ______ ____
ROOT
ATOM      1  C   UNL     1      85.152  52.222  43.915  0.00  0.00    +0.041 A 
ATOM      2  C   UNL     1      85.709  53.514  43.735  0.00  0.00    +0.131 A 
ATOM      3  C   UNL     1      84.983  54.505  43.042  0.00  0.00    +0.041 A 
ATOM      4  C   UNL     1      83.720  54.204  42.486  0.00  0.00    +0.138 A 
ATOM      5  C   UNL     1      83.214  52.884  42.563  0.00  0.00    +0.101 A 
ATOM      6  C   UNL     1      83.902  51.930  43.337  0.00  0.00    +0.142 A 
ATOM      7  O   UNL     1      83.341  50.660  43.528  0.00  0.00    -0.483 OA
ATOM      8  C   UNL     1      81.976  50.375  43.235  0.00  0.00    +0.132 C 
ATOM      9  C   UNL     1      81.630  50.955  41.856  0.00  0.00    +0.052 C 
ATOM     10  C   UNL     1      82.029  52.402  41.790  0.00  0.00    +0.174 C 
ATOM     11  O   UNL     1      81.430  53.144  40.968  0.00  0.00    -0.292 OA
ENDROOT
BRANCH   8  12
ATOM     12  C   UNL     1      81.740  48.884  43.398  0.00  0.00    -0.007 A 
ATOM     13  C   UNL     1      80.419  48.446  43.611  0.00  0.00    -0.055 A 
ATOM     14  C   UNL     1      80.139  47.090  43.798  0.00  0.00    -0.061 A 
ATOM     15  C   UNL     1      81.171  46.151  43.770  0.00  0.00    -0.062 A 
ATOM     16  C   UNL     1      82.486  46.567  43.553  0.00  0.00    -0.061 A 
ATOM     17  C   UNL     1      82.774  47.923  43.367  0.00  0.00    -0.055 A 
ENDBRANCH   8  12
BRANCH   2  18
ATOM     18  O   UNL     1      86.970  53.860  44.231  0.00  0.00    -0.506 OA
ATOM     19  H   UNL     1      87.637  54.164  43.646  0.00  0.00    +0.000 HD
ENDBRANCH   2  18
BRANCH   4  20
ATOM     20  O   UNL     1      82.996  55.240  41.888  0.00  0.00    -0.506 OA
ATOM     21  H   UNL     1      82.265  55.619  42.335  0.00  0.00    +0.000 HD
ENDBRANCH   4  20
BRANCH   1  22
ATOM     22  C   UNL     1      85.838  51.131  44.722  0.00  0.00    +0.008 C 
BRANCH  22  28
ATOM     23  C   UNL     1      86.725  50.783  47.084  0.00  0.00    +0.120 A 
ATOM     24  C   UNL     1      86.709  51.097  48.452  0.00  0.00    -0.020 A 
ATOM     25  C   UNL     1      85.846  52.080  48.940  0.00  0.00    -0.058 A 
ATOM     26  C   UNL     1      84.998  52.762  48.067  0.00  0.00    -0.061 A 
ATOM     27  C   UNL     1      85.009  52.461  46.703  0.00  0.00    -0.055 A 
ATOM     28  C   UNL     1      85.864  51.464  46.197  0.00  0.00    -0.001 A 
BRANCH  23  29
ATOM     29  O   UNL     1      87.592  49.802  46.608  0.00  0.00    -0.506 OA
ATOM     30  H   UNL     1      87.919  49.850  45.731  0.00  0.00    +0.000 HD
ENDBRANCH  23  29
ENDBRANCH  22  28
ENDBRANCH   1  22
BRANCH   3  31
ATOM     31  C   UNL     1      85.550  55.910  42.936  0.00  0.00    +0.008 C 
BRANCH  31  32
ATOM     32  C   UNL     1      85.160  56.746  44.139  0.00  0.00    -0.001 A 
ATOM     33  C   UNL     1      84.417  56.120  45.160  0.00  0.00    -0.055 A 
ATOM     34  C   UNL     1      84.046  56.817  46.309  0.00  0.00    -0.061 A 
ATOM     35  C   UNL     1      84.408  58.154  46.462  0.00  0.00    -0.058 A 
ATOM     36  C   UNL     1      85.136  58.798  45.461  0.00  0.00    -0.020 A 
ATOM     37  C   UNL     1      85.516  58.115  44.297  0.00  0.00    +0.120 A 
BRANCH  37  38
ATOM     38  O   UNL     1      86.230  58.840  43.340  0.00  0.00    -0.506 OA
ATOM     39  H   UNL     1      87.085  58.557  43.079  0.00  0.00    +0.000 HD
ENDBRANCH  37  38
ENDBRANCH  31  32
ENDBRANCH   3  31
TORSDOF 9
ENDMDL
MODEL 6
REMARK VINA RESULT:   -10.183      2.217      5.308
REMARK INTER + INTRA:         -15.412
REMARK INTER:                 -14.164
REMARK INTRA:                  -1.248
REMARK UNBOUND:                -1.062
REMARK  Name = 
REMARK  9 active torsions:
REMARK  status: ('A' for Active; 'I' for Inactive)
REMARK    1  A    between atoms: O_1  and  C_2
REMARK    2  A    between atoms: C_7  and  C_8
REMARK    3  A    between atoms: C_8  and  C_9
REMARK    4  A    between atoms: C_10  and  O_11
REMARK    5  A    between atoms: C_12  and  C_13
REMARK    6  A    between atoms: C_13  and  C_14
REMARK    7  A    between atoms: C_19  and  O_20
REMARK    8  A    between atoms: C_21  and  O_35
REMARK    9  A    between atoms: C_25  and  C_29
REMARK                            x       y       z     vdW  Elec       q    Type
REMARK                         _______ _______ _______ _____ _____    ______ ____
ROOT
ATOM      1  C   UNL     1      86.402  50.150  43.868  0.00  0.00    +0.041 A 
ATOM      2  C   UNL     1      86.459  51.567  43.872  0.00  0.00    +0.131 A 
ATOM      3  C   UNL     1      87.371  52.238  43.032  0.00  0.00    +0.041 A 
ATOM      4  C   UNL     1      88.263  51.505  42.220  0.00  0.00    +0.138 A 
ATOM      5  C   UNL     1      88.288  50.091  42.301  0.00  0.00    +0.101 A 
ATOM      6  C   UNL     1      87.310  49.431  43.069  0.00  0.00    +0.142 A 
ATOM      7  O   UNL     1      87.245  48.032  43.050  0.00  0.00    -0.483 OA
ATOM      8  C   UNL     1      87.916  47.248  42.067  0.00  0.00    +0.132 C 
ATOM      9  C   UNL     1      89.357  47.758  41.920  0.00  0.00    +0.052 C 
ATOM     10  C   UNL     1      89.357  49.243  41.691  0.00  0.00    +0.174 C 
ATOM     11  O   UNL     1      90.347  49.750  41.101  0.00  0.00    -0.292 OA
ENDROOT
BRANCH   8  12
ATOM     12  C   UNL     1      87.774  45.780  42.428  0.00  0.00    -0.007 A 
ATOM     13  C   UNL     1      86.476  45.243  42.504  0.00  0.00    -0.055 A 
ATOM     14  C   UNL     1      86.276  43.906  42.861  0.00  0.00    -0.061 A 
ATOM     15  C   UNL     1      87.369  43.086  43.141  0.00  0.00    -0.062 A 
ATOM     16  C   UNL     1      88.665  43.600  43.064  0.00  0.00    -0.061 A 
ATOM     17  C   UNL     1      88.872  44.937  42.710  0.00  0.00    -0.055 A 
ENDBRANCH   8  12
BRANCH   2  18
ATOM     18  O   UNL     1      85.626  52.346  44.683  0.00  0.00    -0.506 OA
ATOM     19  H   UNL     1      84.952  51.939  45.191  0.00  0.00    +0.000 HD
ENDBRANCH   2  18
BRANCH   4  20
ATOM     20  O   UNL     1      89.086  52.210  41.336  0.00  0.00    -0.506 OA
ATOM     21  H   UNL     1      89.121  53.145  41.373  0.00  0.00    +0.000 HD
ENDBRANCH   4  20
BRANCH   1  22
ATOM     22  C   UNL     1      85.387  49.361  44.681  0.00  0.00    +0.008 C 
BRANCH  22  28
ATOM     23  C   UNL     1      83.439  48.059  43.683  0.00  0.00    +0.120 A 
ATOM     24  C   UNL     1      82.206  48.030  43.014  0.00  0.00    -0.020 A 
ATOM     25  C   UNL     1      81.575  49.220  42.647  0.00  0.00    -0.058 A 
ATOM     26  C   UNL     1      82.166  50.447  42.949  0.00  0.00    -0.061 A 
ATOM     27  C   UNL     1      83.392  50.487  43.619  0.00  0.00    -0.055 A 
ATOM     28  C   UNL     1      84.046  49.296  43.985  0.00  0.00    -0.001 A 
BRANCH  23  29
ATOM     29  O   UNL     1      84.058  46.864  44.047  0.00  0.00    -0.506 OA
ATOM     30  H   UNL     1      84.132  46.166  43.426  0.00  0.00    +0.000 HD
ENDBRANCH  23  29
ENDBRANCH  22  28
ENDBRANCH   1  22
BRANCH   3  31
ATOM     31  C   UNL     1      87.358  53.756  42.977  0.00  0.00    +0.008 C 
BRANCH  31  32
ATOM     32  C   UNL     1      86.077  54.267  42.348  0.00  0.00    -0.001 A 
ATOM     33  C   UNL     1      85.560  53.558  41.245  0.00  0.00    -0.055 A 
ATOM     34  C   UNL     1      84.370  53.951  40.633  0.00  0.00    -0.061 A 
ATOM     35  C   UNL     1      83.675  55.061  41.107  0.00  0.00    -0.058 A 
ATOM     36  C   UNL     1      84.172  55.784  42.192  0.00  0.00    -0.020 A 
ATOM     37  C   UNL     1      85.367  55.406  42.820  0.00  0.00    +0.120 A 
BRANCH  37  38
ATOM     38  O   UNL     1      85.799  56.195  43.889  0.00  0.00    -0.506 OA
ATOM     39  H   UNL     1      86.011  57.097  43.750  0.00  0.00    +0.000 HD
ENDBRANCH  37  38
ENDBRANCH  31  32
ENDBRANCH   3  31
TORSDOF 9
ENDMDL
MODEL 7
REMARK VINA RESULT:   -10.169      3.044      8.112
REMARK INTER + INTRA:         -15.393
REMARK INTER:                 -14.063
REMARK INTRA:                  -1.329
REMARK UNBOUND:                -1.062
REMARK  Name = 
REMARK  9 active torsions:
REMARK  status: ('A' for Active; 'I' for Inactive)
REMARK    1  A    between atoms: O_1  and  C_2
REMARK    2  A    between atoms: C_7  and  C_8
REMARK    3  A    between atoms: C_8  and  C_9
REMARK    4  A    between atoms: C_10  and  O_11
REMARK    5  A    between atoms: C_12  and  C_13
REMARK    6  A    between atoms: C_13  and  C_14
REMARK    7  A    between atoms: C_19  and  O_20
REMARK    8  A    between atoms: C_21  and  O_35
REMARK    9  A    between atoms: C_25  and  C_29
REMARK                            x       y       z     vdW  Elec       q    Type
REMARK                         _______ _______ _______ _____ _____    ______ ____
ROOT
ATOM      1  C   UNL     1      86.070  52.223  43.029  0.00  0.00    +0.041 A 
ATOM      2  C   UNL     1      86.437  50.877  42.775  0.00  0.00    +0.131 A 
ATOM      3  C   UNL     1      86.544  49.961  43.843  0.00  0.00    +0.041 A 
ATOM      4  C   UNL     1      86.333  50.389  45.171  0.00  0.00    +0.138 A 
ATOM      5  C   UNL     1      86.081  51.757  45.438  0.00  0.00    +0.101 A 
ATOM      6  C   UNL     1      85.883  52.641  44.360  0.00  0.00    +0.142 A 
ATOM      7  O   UNL     1      85.503  53.965  44.613  0.00  0.00    -0.483 OA
ATOM      8  C   UNL     1      85.015  54.392  45.883  0.00  0.00    +0.132 C 
ATOM      9  C   UNL     1      85.931  53.837  46.982  0.00  0.00    +0.052 C 
ATOM     10  C   UNL     1      86.106  52.354  46.809  0.00  0.00    +0.174 C 
ATOM     11  O   UNL     1      86.409  51.671  47.821  0.00  0.00    -0.292 OA
ENDROOT
BRANCH   8  12
ATOM     12  C   UNL     1      84.853  55.901  45.865  0.00  0.00    -0.007 A 
ATOM     13  C   UNL     1      85.573  56.630  44.900  0.00  0.00    -0.055 A 
ATOM     14  C   UNL     1      85.490  58.025  44.851  0.00  0.00    -0.061 A 
ATOM     15  C   UNL     1      84.685  58.711  45.760  0.00  0.00    -0.062 A 
ATOM     16  C   UNL     1      83.959  58.003  46.720  0.00  0.00    -0.061 A 
ATOM     17  C   UNL     1      84.038  56.609  46.777  0.00  0.00    -0.055 A 
ENDBRANCH   8  12
BRANCH   2  18
ATOM     18  O   UNL     1      86.694  50.404  41.484  0.00  0.00    -0.506 OA
ATOM     19  H   UNL     1      86.028  50.448  40.827  0.00  0.00    +0.000 HD
ENDBRANCH   2  18
BRANCH   4  20
ATOM     20  O   UNL     1      86.360  49.430  46.188  0.00  0.00    -0.506 OA
ATOM     21  H   UNL     1      87.042  48.789  46.210  0.00  0.00    +0.000 HD
ENDBRANCH   4  20
BRANCH   1  22
ATOM     22  C   UNL     1      85.851  53.244  41.923  0.00  0.00    +0.008 C 
BRANCH  22  28
ATOM     23  C   UNL     1      83.873  54.732  41.323  0.00  0.00    +0.120 A 
ATOM     24  C   UNL     1      82.499  54.901  41.094  0.00  0.00    -0.020 A 
ATOM     25  C   UNL     1      81.630  53.812  41.180  0.00  0.00    -0.058 A 
ATOM     26  C   UNL     1      82.126  52.545  41.489  0.00  0.00    -0.061 A 
ATOM     27  C   UNL     1      83.492  52.364  41.715  0.00  0.00    -0.055 A 
ATOM     28  C   UNL     1      84.379  53.454  41.644  0.00  0.00    -0.001 A 
BRANCH  23  29
ATOM     29  O   UNL     1      84.731  55.826  41.233  0.00  0.00    -0.506 OA
ATOM     30  H   UNL     1      85.390  55.852  40.567  0.00  0.00    +0.000 HD
ENDBRANCH  23  29
ENDBRANCH  22  28
ENDBRANCH   1  22
BRANCH   3  31
ATOM     31  C   UNL     1      86.847  48.502  43.548  0.00  0.00    +0.008 C 
BRANCH  31  32
ATOM     32  C   UNL     1      88.258  48.335  43.019  0.00  0.00    -0.001 A 
ATOM     33  C   UNL     1      89.266  49.152  43.570  0.00  0.00    -0.055 A 
ATOM     34  C   UNL     1      90.592  49.036  43.153  0.00  0.00    -0.061 A 
ATOM     35  C   UNL     1      90.938  48.104  42.177  0.00  0.00    -0.058 A 
ATOM     36  C   UNL     1      89.955  47.290  41.611  0.00  0.00    -0.020 A 
ATOM     37  C   UNL     1      88.617  47.394  42.014  0.00  0.00    +0.120 A 
BRANCH  37  38
ATOM     38  O   UNL     1      87.698  46.551  41.385  0.00  0.00    -0.506 OA
ATOM     39  H   UNL     1      87.943  45.674  41.161  0.00  0.00    +0.000 HD
ENDBRANCH  37  38
ENDBRANCH  31  32
ENDBRANCH   3  31
TORSDOF 9
ENDMDL
MODEL 8
REMARK VINA RESULT:   -10.125      2.184      7.301
REMARK INTER + INTRA:         -15.330
REMARK INTER:                 -13.276
REMARK INTRA:                  -2.054
REMARK UNBOUND:                -1.062
REMARK  Name = 
REMARK  9 active torsions:
REMARK  status: ('A' for Active; 'I' for Inactive)
REMARK    1  A    between atoms: O_1  and  C_2
REMARK    2  A    between atoms: C_7  and  C_8
REMARK    3  A    between atoms: C_8  and  C_9
REMARK    4  A    between atoms: C_10  and  O_11
REMARK    5  A    between atoms: C_12  and  C_13
REMARK    6  A    between atoms: C_13  and  C_14
REMARK    7  A    between atoms: C_19  and  O_20
REMARK    8  A    between atoms: C_21  and  O_35
REMARK    9  A    between atoms: C_25  and  C_29
REMARK                            x       y       z     vdW  Elec       q    Type
REMARK                         _______ _______ _______ _____ _____    ______ ____
ROOT
ATOM      1  C   UNL     1      86.010  50.396  43.713  0.00  0.00    +0.041 A 
ATOM      2  C   UNL     1      86.678  49.549  42.792  0.00  0.00    +0.131 A 
ATOM      3  C   UNL     1      87.762  50.044  42.037  0.00  0.00    +0.041 A 
ATOM      4  C   UNL     1      88.157  51.393  42.159  0.00  0.00    +0.138 A 
ATOM      5  C   UNL     1      87.418  52.270  42.990  0.00  0.00    +0.101 A 
ATOM      6  C   UNL     1      86.401  51.744  43.809  0.00  0.00    +0.142 A 
ATOM      7  O   UNL     1      85.755  52.579  44.731  0.00  0.00    -0.483 OA
ATOM      8  C   UNL     1      86.270  53.855  45.098  0.00  0.00    +0.132 C 
ATOM      9  C   UNL     1      86.682  54.613  43.829  0.00  0.00    +0.052 C 
ATOM     10  C   UNL     1      87.586  53.756  42.988  0.00  0.00    +0.174 C 
ATOM     11  O   UNL     1      88.375  54.330  42.192  0.00  0.00    -0.292 OA
ENDROOT
BRANCH   8  12
ATOM     12  C   UNL     1      85.254  54.560  45.981  0.00  0.00    -0.007 A 
ATOM     13  C   UNL     1      84.513  53.777  46.886  0.00  0.00    -0.055 A 
ATOM     14  C   UNL     1      83.541  54.361  47.704  0.00  0.00    -0.061 A 
ATOM     15  C   UNL     1      83.300  55.733  47.635  0.00  0.00    -0.062 A 
ATOM     16  C   UNL     1      84.030  56.526  46.747  0.00  0.00    -0.061 A 
ATOM     17  C   UNL     1      85.002  55.949  45.923  0.00  0.00    -0.055 A 
ENDBRANCH   8  12
BRANCH   2  18
ATOM     18  O   UNL     1      86.308  48.214  42.600  0.00  0.00    -0.506 OA
ATOM     19  H   UNL     1      86.168  47.885  41.734  0.00  0.00    +0.000 HD
ENDBRANCH   2  18
BRANCH   4  20
ATOM     20  O   UNL     1      89.292  51.817  41.462  0.00  0.00    -0.506 OA
ATOM     21  H   UNL     1      89.649  51.284  40.779  0.00  0.00    +0.000 HD
ENDBRANCH   4  20
BRANCH   1  22
ATOM     22  C   UNL     1      84.891  49.910  44.622  0.00  0.00    +0.008 C 
BRANCH  22  28
ATOM     23  C   UNL     1      82.968  48.590  43.600  0.00  0.00    +0.120 A 
ATOM     24  C   UNL     1      81.755  48.549  42.895  0.00  0.00    -0.020 A 
ATOM     25  C   UNL     1      81.142  49.732  42.476  0.00  0.00    -0.058 A 
ATOM     26  C   UNL     1      81.730  50.964  42.764  0.00  0.00    -0.061 A 
ATOM     27  C   UNL     1      82.935  51.016  43.469  0.00  0.00    -0.055 A 
ATOM     28  C   UNL     1      83.571  49.833  43.887  0.00  0.00    -0.001 A 
BRANCH  23  29
ATOM     29  O   UNL     1      83.569  47.404  44.014  0.00  0.00    -0.506 OA
ATOM     30  H   UNL     1      83.972  46.837  43.385  0.00  0.00    +0.000 HD
ENDBRANCH  23  29
ENDBRANCH  22  28
ENDBRANCH   1  22
BRANCH   3  31
ATOM     31  C   UNL     1      88.527  49.102  41.123  0.00  0.00    +0.008 C 
BRANCH  31  32
ATOM     32  C   UNL     1      89.437  48.190  41.921  0.00  0.00    -0.001 A 
ATOM     33  C   UNL     1      90.532  48.776  42.588  0.00  0.00    -0.055 A 
ATOM     34  C   UNL     1      91.397  48.005  43.364  0.00  0.00    -0.061 A 
ATOM     35  C   UNL     1      91.187  46.633  43.489  0.00  0.00    -0.058 A 
ATOM     36  C   UNL     1      90.115  46.029  42.831  0.00  0.00    -0.020 A 
ATOM     37  C   UNL     1      89.237  46.787  42.044  0.00  0.00    +0.120 A 
BRANCH  37  38
ATOM     38  O   UNL     1      88.199  46.099  41.410  0.00  0.00    -0.506 OA
ATOM     39  H   UNL     1      87.846  45.322  41.798  0.00  0.00    +0.000 HD
ENDBRANCH  37  38
ENDBRANCH  31  32
ENDBRANCH   3  31
TORSDOF 9
ENDMDL
MODEL 9
REMARK VINA RESULT:   -10.122      2.038      5.017
REMARK INTER + INTRA:         -15.326
REMARK INTER:                 -14.265
REMARK INTRA:                  -1.062
REMARK UNBOUND:                -1.062
REMARK  Name = 
REMARK  9 active torsions:
REMARK  status: ('A' for Active; 'I' for Inactive)
REMARK    1  A    between atoms: O_1  and  C_2
REMARK    2  A    between atoms: C_7  and  C_8
REMARK    3  A    between atoms: C_8  and  C_9
REMARK    4  A    between atoms: C_10  and  O_11
REMARK    5  A    between atoms: C_12  and  C_13
REMARK    6  A    between atoms: C_13  and  C_14
REMARK    7  A    between atoms: C_19  and  O_20
REMARK    8  A    between atoms: C_21  and  O_35
REMARK    9  A    between atoms: C_25  and  C_29
REMARK                            x       y       z     vdW  Elec       q    Type
REMARK                         _______ _______ _______ _____ _____    ______ ____
ROOT
ATOM      1  C   UNL     1      85.510  50.938  43.303  0.00  0.00    +0.041 A 
ATOM      2  C   UNL     1      84.928  52.226  43.196  0.00  0.00    +0.131 A 
ATOM      3  C   UNL     1      85.284  53.075  42.127  0.00  0.00    +0.041 A 
ATOM      4  C   UNL     1      86.255  52.666  41.187  0.00  0.00    +0.138 A 
ATOM      5  C   UNL     1      86.922  51.429  41.357  0.00  0.00    +0.101 A 
ATOM      6  C   UNL     1      86.491  50.552  42.370  0.00  0.00    +0.142 A 
ATOM      7  O   UNL     1      87.055  49.272  42.463  0.00  0.00    -0.483 OA
ATOM      8  C   UNL     1      87.825  48.698  41.410  0.00  0.00    +0.132 C 
ATOM      9  C   UNL     1      88.837  49.737  40.906  0.00  0.00    +0.052 C 
ATOM     10  C   UNL     1      88.135  51.026  40.581  0.00  0.00    +0.174 C 
ATOM     11  O   UNL     1      88.675  51.801  39.750  0.00  0.00    -0.292 OA
ENDROOT
BRANCH   8  12
ATOM     12  C   UNL     1      88.419  47.387  41.894  0.00  0.00    -0.007 A 
ATOM     13  C   UNL     1      89.797  47.352  42.177  0.00  0.00    -0.055 A 
ATOM     14  C   UNL     1      90.409  46.168  42.597  0.00  0.00    -0.061 A 
ATOM     15  C   UNL     1      89.655  45.004  42.745  0.00  0.00    -0.062 A 
ATOM     16  C   UNL     1      88.285  45.022  42.474  0.00  0.00    -0.061 A 
ATOM     17  C   UNL     1      87.666  46.202  42.052  0.00  0.00    -0.055 A 
ENDBRANCH   8  12
BRANCH   2  18
ATOM     18  O   UNL     1      83.989  52.701  44.118  0.00  0.00    -0.506 OA
ATOM     19  H   UNL     1      83.305  53.277  43.837  0.00  0.00    +0.000 HD
ENDBRANCH   2  18
BRANCH   4  20
ATOM     20  O   UNL     1      86.510  53.500  40.094  0.00  0.00    -0.506 OA
ATOM     21  H   UNL     1      86.609  53.134  39.238  0.00  0.00    +0.000 HD
ENDBRANCH   4  20
BRANCH   1  22
ATOM     22  C   UNL     1      85.112  49.936  44.376  0.00  0.00    +0.008 C 
BRANCH  22  28
ATOM     23  C   UNL     1      84.380  47.556  43.845  0.00  0.00    +0.120 A 
ATOM     24  C   UNL     1      83.432  46.656  43.336  0.00  0.00    -0.020 A 
ATOM     25  C   UNL     1      82.212  47.122  42.842  0.00  0.00    -0.058 A 
ATOM     26  C   UNL     1      81.926  48.487  42.859  0.00  0.00    -0.061 A 
ATOM     27  C   UNL     1      82.861  49.391  43.368  0.00  0.00    -0.055 A 
ATOM     28  C   UNL     1      84.100  48.939  43.858  0.00  0.00    -0.001 A 
BRANCH  23  29
ATOM     29  O   UNL     1      85.594  47.079  44.337  0.00  0.00    -0.506 OA
ATOM     30  H   UNL     1      86.236  46.734  43.748  0.00  0.00    +0.000 HD
ENDBRANCH  23  29
ENDBRANCH  22  28
ENDBRANCH   1  22
BRANCH   3  31
ATOM     31  C   UNL     1      84.586  54.415  41.972  0.00  0.00    +0.008 C 
BRANCH  31  32
ATOM     32  C   UNL     1      85.093  55.415  42.992  0.00  0.00    -0.001 A 
ATOM     33  C   UNL     1      84.149  56.267  43.601  0.00  0.00    -0.055 A 
ATOM     34  C   UNL     1      84.537  57.193  44.569  0.00  0.00    -0.061 A 
ATOM     35  C   UNL     1      85.874  57.288  44.948  0.00  0.00    -0.058 A 
ATOM     36  C   UNL     1      86.828  56.461  44.353  0.00  0.00    -0.020 A 
ATOM     37  C   UNL     1      86.458  55.526  43.377  0.00  0.00    +0.120 A 
BRANCH  37  38
ATOM     38  O   UNL     1      87.480  54.749  42.823  0.00  0.00    -0.506 OA
ATOM     39  H   UNL     1      88.366  55.053  42.850  0.00  0.00    +0.000 HD
ENDBRANCH  37  38
ENDBRANCH  31  32
ENDBRANCH   3  31
TORSDOF 9
ENDMDL
