MODEL 1
REMARK VINA RESULT:   -10.443      0.000      0.000
REMARK INTER + INTRA:         -16.517
REMARK INTER:                 -14.782
REMARK INTRA:                  -1.735
REMARK UNBOUND:                -1.800
REMARK  Name = 
REMARK  9 active torsions:
REMARK  status: ('A' for Active; 'I' for Inactive)
REMARK    1  A    between atoms: O_1  and  C_2
REMARK    2  A    between atoms: C_7  and  C_8
REMARK    3  A    between atoms: C_8  and  C_9
REMARK    4  A    between atoms: C_10  and  O_11
REMARK    5  A    between atoms: C_12  and  C_13
REMARK    6  A    between atoms: C_13  and  C_14
REMARK    7  A    between atoms: C_19  and  O_20
REMARK    8  A    between atoms: C_21  and  O_35
REMARK    9  A    between atoms: C_25  and  C_29
REMARK                            x       y       z     vdW  Elec       q    Type
REMARK                         _______ _______ _______ _____ _____    ______ ____
ROOT
ATOM      1  C   UNL     1      85.290  51.182  44.263  0.00  0.00    +0.041 A 
ATOM      2  C   UNL     1      86.103  52.333  44.099  0.00  0.00    +0.131 A 
ATOM      3  C   UNL     1      85.565  53.500  43.517  0.00  0.00    +0.041 A 
ATOM      4  C   UNL     1      84.232  53.514  43.052  0.00  0.00    +0.138 A 
ATOM      5  C   UNL     1      83.455  52.331  43.108  0.00  0.00    +0.101 A 
ATOM      6  C   UNL     1      83.969  51.204  43.777  0.00  0.00    +0.142 A 
ATOM      7  O   UNL     1      83.158  50.075  43.953  0.00  0.00    -0.483 OA
ATOM      8  C   UNL     1      81.747  50.110  43.759  0.00  0.00    +0.132 C 
ATOM      9  C   UNL     1      81.441  50.837  42.443  0.00  0.00    +0.052 C 
ATOM     10  C   UNL     1      82.142  52.166  42.413  0.00  0.00    +0.174 C 
ATOM     11  O   UNL     1      81.665  53.071  41.679  0.00  0.00    -0.292 OA
ENDROOT
BRANCH   8  12
ATOM     12  C   UNL     1      81.201  48.697  43.870  0.00  0.00    -0.007 A 
ATOM     13  C   UNL     1      79.821  48.540  44.095  0.00  0.00    -0.055 A 
ATOM     14  C   UNL     1      79.260  47.267  44.236  0.00  0.00    -0.061 A 
ATOM     15  C   UNL     1      80.069  46.133  44.149  0.00  0.00    -0.062 A 
ATOM     16  C   UNL     1      81.439  46.270  43.920  0.00  0.00    -0.061 A 
ATOM     17  C   UNL     1      82.007  47.540  43.780  0.00  0.00    -0.055 A 
ENDBRANCH   8  12
BRANCH   2  18
ATOM     18  O   UNL     1      87.441  52.367  44.506  0.00  0.00    -0.506 OA
ATOM     19  H   UNL     1      88.126  52.258  43.876  0.00  0.00    +0.000 HD
ENDBRANCH   2  18
BRANCH   4  20
ATOM     20  O   UNL     1      83.713  54.717  42.566  0.00  0.00    -0.506 OA
ATOM     21  H   UNL     1      82.789  54.813  42.443  0.00  0.00    +0.000 HD
ENDBRANCH   4  20
BRANCH   1  22
ATOM     22  C   UNL     1      85.774  49.920  44.959  0.00  0.00    +0.008 C 
BRANCH  22  28
ATOM     23  C   UNL     1      86.081  47.551  44.077  0.00  0.00    +0.120 A 
ATOM     24  C   UNL     1      86.657  46.654  43.164  0.00  0.00    -0.020 A 
ATOM     25  C   UNL     1      87.501  47.120  42.154  0.00  0.00    -0.058 A 
ATOM     26  C   UNL     1      87.771  48.484  42.042  0.00  0.00    -0.061 A 
ATOM     27  C   UNL     1      87.200  49.386  42.944  0.00  0.00    -0.055 A 
ATOM     28  C   UNL     1      86.357  48.931  43.975  0.00  0.00    -0.001 A 
BRANCH  23  29
ATOM     29  O   UNL     1      85.240  47.074  45.080  0.00  0.00    -0.506 OA
ATOM     30  H   UNL     1      84.800  46.253  44.972  0.00  0.00    +0.000 HD
ENDBRANCH  23  29
ENDBRANCH  22  28
ENDBRANCH   1  22
BRANCH   3  31
ATOM     31  C   UNL     1      86.418  54.754  43.432  0.00  0.00    +0.008 C 
BRANCH  31  32
ATOM     32  C   UNL     1      86.050  55.737  44.524  0.00  0.00    -0.001 A 
ATOM     33  C   UNL     1      86.351  55.382  45.855  0.00  0.00    -0.055 A 
ATOM     34  C   UNL     1      86.067  56.249  46.911  0.00  0.00    -0.061 A 
ATOM     35  C   UNL     1      85.476  57.485  46.660  0.00  0.00    -0.058 A 
ATOM     36  C   UNL     1      85.161  57.854  45.352  0.00  0.00    -0.020 A 
ATOM     37  C   UNL     1      85.436  56.997  44.278  0.00  0.00    +0.120 A 
BRANCH  37  38
ATOM     38  O   UNL     1      85.074  57.441  43.003  0.00  0.00    -0.506 OA
ATOM     39  H   UNL     1      85.237  58.329  42.752  0.00  0.00    +0.000 HD
ENDBRANCH  37  38
ENDBRANCH  31  32
ENDBRANCH   3  31
TORSDOF 9
ENDMDL
MODEL 2
REMARK VINA RESULT:   -10.008      2.271      7.185
REMARK INTER + INTRA:         -15.904
REMARK INTER:                 -13.866
REMARK INTRA:                  -2.038
REMARK UNBOUND:                -1.800
REMARK  Name = 
REMARK  9 active torsions:
REMARK  status: ('A' for Active; 'I' for Inactive)
REMARK    1  A    between atoms: O_1  and  C_2
REMARK    2  A    between atoms: C_7  and  C_8
REMARK    3  A    between atoms: C_8  and  C_9
REMARK    4  A    between atoms: C_10  and  O_11
REMARK    5  A    between atoms: C_12  and  C_13
REMARK    6  A    between atoms: C_13  and  C_14
REMARK    7  A    between atoms: C_19  and  O_20
REMARK    8  A    between atoms: C_21  and  O_35
REMARK    9  A    between atoms: C_25  and  C_29
REMARK                            x       y       z     vdW  Elec       q    Type
REMARK                         _______ _______ _______ _____ _____    ______ ____
ROOT
ATOM      1  C   UNL     1      85.928  50.406  44.099  0.00  0.00    +0.041 A 
ATOM      2  C   UNL     1      86.617  49.631  43.132  0.00  0.00    +0.131 A 
ATOM      3  C   UNL     1      87.651  50.212  42.368  0.00  0.00    +0.041 A 
ATOM      4  C   UNL     1      87.975  51.576  42.530  0.00  0.00    +0.138 A 
ATOM      5  C   UNL     1      87.212  52.381  43.411  0.00  0.00    +0.101 A 
ATOM      6  C   UNL     1      86.247  51.770  44.235  0.00  0.00    +0.142 A 
ATOM      7  O   UNL     1      85.581  52.534  45.202  0.00  0.00    -0.483 OA
ATOM      8  C   UNL     1      86.035  53.824  45.604  0.00  0.00    +0.132 C 
ATOM      9  C   UNL     1      86.371  54.648  44.352  0.00  0.00    +0.052 C 
ATOM     10  C   UNL     1      87.297  53.873  43.458  0.00  0.00    +0.174 C 
ATOM     11  O   UNL     1      88.031  54.518  42.665  0.00  0.00    -0.292 OA
ENDROOT
BRANCH   8  12
ATOM     12  C   UNL     1      85.006  54.439  46.536  0.00  0.00    -0.007 A 
ATOM     13  C   UNL     1      84.350  53.589  47.446  0.00  0.00    -0.055 A 
ATOM     14  C   UNL     1      83.371  54.088  48.310  0.00  0.00    -0.061 A 
ATOM     15  C   UNL     1      83.037  55.443  48.282  0.00  0.00    -0.062 A 
ATOM     16  C   UNL     1      83.683  56.301  47.391  0.00  0.00    -0.061 A 
ATOM     17  C   UNL     1      84.661  55.809  46.522  0.00  0.00    -0.055 A 
ENDBRANCH   8  12
BRANCH   2  18
ATOM     18  O   UNL     1      86.316  48.285  42.901  0.00  0.00    -0.506 OA
ATOM     19  H   UNL     1      85.441  47.972  43.024  0.00  0.00    +0.000 HD
ENDBRANCH   2  18
BRANCH   4  20
ATOM     20  O   UNL     1      89.065  52.087  41.820  0.00  0.00    -0.506 OA
ATOM     21  H   UNL     1      89.054  52.973  41.518  0.00  0.00    +0.000 HD
ENDBRANCH   4  20
BRANCH   1  22
ATOM     22  C   UNL     1      84.863  49.827  45.017  0.00  0.00    +0.008 C 
BRANCH  22  28
ATOM     23  C   UNL     1      83.027  48.392  43.990  0.00  0.00    +0.120 A 
ATOM     24  C   UNL     1      81.808  48.277  43.304  0.00  0.00    -0.020 A 
ATOM     25  C   UNL     1      81.098  49.420  42.932  0.00  0.00    -0.058 A 
ATOM     26  C   UNL     1      81.595  50.685  43.246  0.00  0.00    -0.061 A 
ATOM     27  C   UNL     1      82.806  50.811  43.932  0.00  0.00    -0.055 A 
ATOM     28  C   UNL     1      83.539  49.669  44.303  0.00  0.00    -0.001 A 
BRANCH  23  29
ATOM     29  O   UNL     1      83.726  47.244  44.358  0.00  0.00    -0.506 OA
ATOM     30  H   UNL     1      83.347  46.639  44.965  0.00  0.00    +0.000 HD
ENDBRANCH  23  29
ENDBRANCH  22  28
ENDBRANCH   1  22
BRANCH   3  31
ATOM     31  C   UNL     1      88.442  49.347  41.402  0.00  0.00    +0.008 C 
BRANCH  31  32
ATOM     32  C   UNL     1      89.382  48.419  42.146  0.00  0.00    -0.001 A 
ATOM     33  C   UNL     1      90.456  49.001  42.851  0.00  0.00    -0.055 A 
ATOM     34  C   UNL     1      91.345  48.213  43.581  0.00  0.00    -0.061 A 
ATOM     35  C   UNL     1      91.181  46.830  43.622  0.00  0.00    -0.058 A 
ATOM     36  C   UNL     1      90.131  46.232  42.925  0.00  0.00    -0.020 A 
ATOM     37  C   UNL     1      89.229  47.005  42.183  0.00  0.00    +0.120 A 
BRANCH  37  38
ATOM     38  O   UNL     1      88.216  46.322  41.505  0.00  0.00    -0.506 OA
ATOM     39  H   UNL     1      87.338  46.651  41.519  0.00  0.00    +0.000 HD
ENDBRANCH  37  38
ENDBRANCH  31  32
ENDBRANCH   3  31
TORSDOF 9
ENDMDL
MODEL 3
REMARK VINA RESULT:    -9.820      2.491      5.432
REMARK INTER + INTRA:         -15.639
REMARK INTER:                 -13.854
REMARK INTRA:                  -1.785
REMARK UNBOUND:                -1.800
REMARK  Name = 
REMARK  9 active torsions:
REMARK  status: ('A' for Active; 'I' for Inactive)
REMARK    1  A    between atoms: O_1  and  C_2
REMARK    2  A    between atoms: C_7  and  C_8
REMARK    3  A    between atoms: C_8  and  C_9
REMARK    4  A    between atoms: C_10  and  O_11
REMARK    5  A    between atoms: C_12  and  C_13
REMARK    6  A    between atoms: C_13  and  C_14
REMARK    7  A    between atoms: C_19  and  O_20
REMARK    8  A    between atoms: C_21  and  O_35
REMARK    9  A    between atoms: C_25  and  C_29
REMARK                            x       y       z     vdW  Elec       q    Type
REMARK                         _______ _______ _______ _____ _____    ______ ____
ROOT
ATOM      1  C   UNL     1      85.654  51.058  43.694  0.00  0.00    +0.041 A 
ATOM      2  C   UNL     1      85.343  52.437  43.575  0.00  0.00    +0.131 A 
ATOM      3  C   UNL     1      85.844  53.182  42.488  0.00  0.00    +0.041 A 
ATOM      4  C   UNL     1      86.693  52.573  41.539  0.00  0.00    +0.138 A 
ATOM      5  C   UNL     1      87.099  51.228  41.719  0.00  0.00    +0.101 A 
ATOM      6  C   UNL     1      86.519  50.469  42.753  0.00  0.00    +0.142 A 
ATOM      7  O   UNL     1      86.813  49.104  42.857  0.00  0.00    -0.483 OA
ATOM      8  C   UNL     1      87.432  48.372  41.802  0.00  0.00    +0.132 C 
ATOM      9  C   UNL     1      88.623  49.178  41.266  0.00  0.00    +0.052 C 
ATOM     10  C   UNL     1      88.190  50.577  40.931  0.00  0.00    +0.174 C 
ATOM     11  O   UNL     1      88.861  51.216  40.079  0.00  0.00    -0.292 OA
ENDROOT
BRANCH   8  12
ATOM     12  C   UNL     1      87.756  46.974  42.298  0.00  0.00    -0.007 A 
ATOM     13  C   UNL     1      89.111  46.610  42.401  0.00  0.00    -0.055 A 
ATOM     14  C   UNL     1      89.476  45.327  42.822  0.00  0.00    -0.061 A 
ATOM     15  C   UNL     1      88.493  44.392  43.150  0.00  0.00    -0.062 A 
ATOM     16  C   UNL     1      87.144  44.739  43.060  0.00  0.00    -0.061 A 
ATOM     17  C   UNL     1      86.771  46.019  42.637  0.00  0.00    -0.055 A 
ENDBRANCH   8  12
BRANCH   2  18
ATOM     18  O   UNL     1      84.536  53.104  44.504  0.00  0.00    -0.506 OA
ATOM     19  H   UNL     1      84.303  52.685  45.309  0.00  0.00    +0.000 HD
ENDBRANCH   2  18
BRANCH   4  20
ATOM     20  O   UNL     1      87.092  53.323  40.429  0.00  0.00    -0.506 OA
ATOM     21  H   UNL     1      87.854  53.866  40.479  0.00  0.00    +0.000 HD
ENDBRANCH   4  20
BRANCH   1  22
ATOM     22  C   UNL     1      85.081  50.172  44.790  0.00  0.00    +0.008 C 
BRANCH  22  28
ATOM     23  C   UNL     1      83.838  48.018  44.241  0.00  0.00    +0.120 A 
ATOM     24  C   UNL     1      82.693  47.356  43.775  0.00  0.00    -0.020 A 
ATOM     25  C   UNL     1      81.566  48.083  43.387  0.00  0.00    -0.058 A 
ATOM     26  C   UNL     1      81.571  49.476  43.468  0.00  0.00    -0.061 A 
ATOM     27  C   UNL     1      82.705  50.146  43.934  0.00  0.00    -0.055 A 
ATOM     28  C   UNL     1      83.853  49.427  44.317  0.00  0.00    -0.001 A 
BRANCH  23  29
ATOM     29  O   UNL     1      84.956  47.281  44.627  0.00  0.00    -0.506 OA
ATOM     30  H   UNL     1      85.242  46.555  44.108  0.00  0.00    +0.000 HD
ENDBRANCH  23  29
ENDBRANCH  22  28
ENDBRANCH   1  22
BRANCH   3  31
ATOM     31  C   UNL     1      85.428  54.634  42.322  0.00  0.00    +0.008 C 
BRANCH  31  32
ATOM     32  C   UNL     1      84.151  54.745  41.513  0.00  0.00    -0.001 A 
ATOM     33  C   UNL     1      82.939  54.414  42.152  0.00  0.00    -0.055 A 
ATOM     34  C   UNL     1      81.721  54.519  41.479  0.00  0.00    -0.061 A 
ATOM     35  C   UNL     1      81.689  54.954  40.156  0.00  0.00    -0.058 A 
ATOM     36  C   UNL     1      82.878  55.279  39.501  0.00  0.00    -0.020 A 
ATOM     37  C   UNL     1      84.111  55.177  40.158  0.00  0.00    +0.120 A 
BRANCH  37  38
ATOM     38  O   UNL     1      85.252  55.508  39.421  0.00  0.00    -0.506 OA
ATOM     39  H   UNL     1      85.173  55.752  38.519  0.00  0.00    +0.000 HD
ENDBRANCH  37  38
ENDBRANCH  31  32
ENDBRANCH   3  31
TORSDOF 9
ENDMDL
MODEL 4
REMARK VINA RESULT:    -9.778      2.614      5.620
REMARK INTER + INTRA:         -15.580
REMARK INTER:                 -13.659
REMARK INTRA:                  -1.921
REMARK UNBOUND:                -1.800
REMARK  Name = 
REMARK  9 active torsions:
REMARK  status: ('A' for Active; 'I' for Inactive)
REMARK    1  A    between atoms: O_1  and  C_2
REMARK    2  A    between atoms: C_7  and  C_8
REMARK    3  A    between atoms: C_8  and  C_9
REMARK    4  A    between atoms: C_10  and  O_11
REMARK    5  A    between atoms: C_12  and  C_13
REMARK    6  A    between atoms: C_13  and  C_14
REMARK    7  A    between atoms: C_19  and  O_20
REMARK    8  A    between atoms: C_21  and  O_35
REMARK    9  A    between atoms: C_25  and  C_29
REMARK                            x       y       z     vdW  Elec       q    Type
REMARK                         _______ _______ _______ _____ _____    ______ ____
ROOT
ATOM      1  C   UNL     1      86.285  49.989  44.018  0.00  0.00    +0.041 A 
ATOM      2  C   UNL     1      86.294  51.396  43.846  0.00  0.00    +0.131 A 
ATOM      3  C   UNL     1      87.095  51.979  42.842  0.00  0.00    +0.041 A 
ATOM      4  C   UNL     1      87.925  51.171  42.036  0.00  0.00    +0.138 A 
ATOM      5  C   UNL     1      88.006  49.779  42.282  0.00  0.00    +0.101 A 
ATOM      6  C   UNL     1      87.133  49.197  43.221  0.00  0.00    +0.142 A 
ATOM      7  O   UNL     1      87.112  47.805  43.376  0.00  0.00    -0.483 OA
ATOM      8  C   UNL     1      87.708  46.921  42.430  0.00  0.00    +0.132 C 
ATOM      9  C   UNL     1      89.109  47.439  42.075  0.00  0.00    +0.052 C 
ATOM     10  C   UNL     1      89.037  48.885  41.671  0.00  0.00    +0.174 C 
ATOM     11  O   UNL     1      89.945  49.337  40.926  0.00  0.00    -0.292 OA
ENDROOT
BRANCH   8  12
ATOM     12  C   UNL     1      87.652  45.506  42.977  0.00  0.00    -0.007 A 
ATOM     13  C   UNL     1      86.434  45.057  43.520  0.00  0.00    -0.055 A 
ATOM     14  C   UNL     1      86.326  43.775  44.067  0.00  0.00    -0.061 A 
ATOM     15  C   UNL     1      87.429  42.921  44.074  0.00  0.00    -0.062 A 
ATOM     16  C   UNL     1      88.644  43.348  43.533  0.00  0.00    -0.061 A 
ATOM     17  C   UNL     1      88.760  44.630  42.987  0.00  0.00    -0.055 A 
ENDBRANCH   8  12
BRANCH   2  18
ATOM     18  O   UNL     1      85.521  52.251  44.639  0.00  0.00    -0.506 OA
ATOM     19  H   UNL     1      84.688  51.967  44.961  0.00  0.00    +0.000 HD
ENDBRANCH   2  18
BRANCH   4  20
ATOM     20  O   UNL     1      88.632  51.779  40.994  0.00  0.00    -0.506 OA
ATOM     21  H   UNL     1      88.427  51.571  40.104  0.00  0.00    +0.000 HD
ENDBRANCH   4  20
BRANCH   1  22
ATOM     22  C   UNL     1      85.383  49.284  45.020  0.00  0.00    +0.008 C 
BRANCH  22  28
ATOM     23  C   UNL     1      82.994  49.721  44.255  0.00  0.00    +0.120 A 
ATOM     24  C   UNL     1      81.795  49.271  43.682  0.00  0.00    -0.020 A 
ATOM     25  C   UNL     1      81.676  47.953  43.237  0.00  0.00    -0.058 A 
ATOM     26  C   UNL     1      82.755  47.077  43.353  0.00  0.00    -0.061 A 
ATOM     27  C   UNL     1      83.955  47.515  43.918  0.00  0.00    -0.055 A 
ATOM     28  C   UNL     1      84.086  48.837  44.383  0.00  0.00    -0.001 A 
BRANCH  23  29
ATOM     29  O   UNL     1      83.100  51.040  44.694  0.00  0.00    -0.506 OA
ATOM     30  H   UNL     1      83.756  51.273  45.322  0.00  0.00    +0.000 HD
ENDBRANCH  23  29
ENDBRANCH  22  28
ENDBRANCH   1  22
BRANCH   3  31
ATOM     31  C   UNL     1      87.026  53.478  42.608  0.00  0.00    +0.008 C 
BRANCH  31  32
ATOM     32  C   UNL     1      85.772  53.852  41.842  0.00  0.00    -0.001 A 
ATOM     33  C   UNL     1      84.664  54.310  42.583  0.00  0.00    -0.055 A 
ATOM     34  C   UNL     1      83.485  54.698  41.946  0.00  0.00    -0.061 A 
ATOM     35  C   UNL     1      83.389  54.636  40.558  0.00  0.00    -0.058 A 
ATOM     36  C   UNL     1      84.470  54.178  39.804  0.00  0.00    -0.020 A 
ATOM     37  C   UNL     1      85.662  53.780  40.425  0.00  0.00    +0.120 A 
BRANCH  37  38
ATOM     38  O   UNL     1      86.688  53.321  39.595  0.00  0.00    -0.506 OA
ATOM     39  H   UNL     1      87.407  52.843  39.960  0.00  0.00    +0.000 HD
ENDBRANCH  37  38
ENDBRANCH  31  32
ENDBRANCH   3  31
TORSDOF 9
ENDMDL
MODEL 5
REMARK VINA RESULT:    -9.732      2.991      8.099
REMARK INTER + INTRA:         -15.515
REMARK INTER:                 -14.230
REMARK INTRA:                  -1.284
REMARK UNBOUND:                -1.800
REMARK  Name = 
REMARK  9 active torsions:
REMARK  status: ('A' for Active; 'I' for Inactive)
REMARK    1  A    between atoms: O_1  and  C_2
REMARK    2  A    between atoms: C_7  and  C_8
REMARK    3  A    between atoms: C_8  and  C_9
REMARK    4  A    between atoms: C_10  and  O_11
REMARK    5  A    between atoms: C_12  and  C_13
REMARK    6  A    between atoms: C_13  and  C_14
REMARK    7  A    between atoms: C_19  and  O_20
REMARK    8  A    between atoms: C_21  and  O_35
REMARK    9  A    between atoms: C_25  and  C_29
REMARK                            x       y       z     vdW  Elec       q    Type
REMARK                         _______ _______ _______ _____ _____    ______ ____
ROOT
ATOM      1  C   UNL     1      86.176  52.098  43.126  0.00  0.00    +0.041 A 
ATOM      2  C   UNL     1      86.546  50.745  42.918  0.00  0.00    +0.131 A 
ATOM      3  C   UNL     1      86.661  49.868  44.017  0.00  0.00    +0.041 A 
ATOM      4  C   UNL     1      86.453  50.342  45.330  0.00  0.00    +0.138 A 
ATOM      5  C   UNL     1      86.198  51.718  45.550  0.00  0.00    +0.101 A 
ATOM      6  C   UNL     1      85.992  52.562  44.443  0.00  0.00    +0.142 A 
ATOM      7  O   UNL     1      85.609  53.893  44.650  0.00  0.00    -0.483 OA
ATOM      8  C   UNL     1      85.124  54.363  45.905  0.00  0.00    +0.132 C 
ATOM      9  C   UNL     1      86.047  53.850  47.021  0.00  0.00    +0.052 C 
ATOM     10  C   UNL     1      86.226  52.363  46.899  0.00  0.00    +0.174 C 
ATOM     11  O   UNL     1      86.535  51.717  47.934  0.00  0.00    -0.292 OA
ENDROOT
BRANCH   8  12
ATOM     12  C   UNL     1      84.957  55.870  45.835  0.00  0.00    -0.007 A 
ATOM     13  C   UNL     1      85.564  56.551  44.764  0.00  0.00    -0.055 A 
ATOM     14  C   UNL     1      85.473  57.942  44.659  0.00  0.00    -0.061 A 
ATOM     15  C   UNL     1      84.770  58.672  45.618  0.00  0.00    -0.062 A 
ATOM     16  C   UNL     1      84.156  58.012  46.684  0.00  0.00    -0.061 A 
ATOM     17  C   UNL     1      84.245  56.621  46.797  0.00  0.00    -0.055 A 
ENDBRANCH   8  12
BRANCH   2  18
ATOM     18  O   UNL     1      86.801  50.227  41.644  0.00  0.00    -0.506 OA
ATOM     19  H   UNL     1      86.190  50.373  40.948  0.00  0.00    +0.000 HD
ENDBRANCH   2  18
BRANCH   4  20
ATOM     20  O   UNL     1      86.487  49.420  46.380  0.00  0.00    -0.506 OA
ATOM     21  H   UNL     1      86.852  49.664  47.208  0.00  0.00    +0.000 HD
ENDBRANCH   4  20
BRANCH   1  22
ATOM     22  C   UNL     1      85.949  53.079  41.986  0.00  0.00    +0.008 C 
BRANCH  22  28
ATOM     23  C   UNL     1      83.996  54.626  41.463  0.00  0.00    +0.120 A 
ATOM     24  C   UNL     1      82.621  54.836  41.278  0.00  0.00    -0.020 A 
ATOM     25  C   UNL     1      81.725  53.770  41.381  0.00  0.00    -0.058 A 
ATOM     26  C   UNL     1      82.194  52.487  41.662  0.00  0.00    -0.061 A 
ATOM     27  C   UNL     1      83.562  52.266  41.843  0.00  0.00    -0.055 A 
ATOM     28  C   UNL     1      84.476  53.332  41.755  0.00  0.00    -0.001 A 
BRANCH  23  29
ATOM     29  O   UNL     1      84.880  55.698  41.355  0.00  0.00    -0.506 OA
ATOM     30  H   UNL     1      84.662  56.434  40.818  0.00  0.00    +0.000 HD
ENDBRANCH  23  29
ENDBRANCH  22  28
ENDBRANCH   1  22
BRANCH   3  31
ATOM     31  C   UNL     1      86.968  48.401  43.773  0.00  0.00    +0.008 C 
BRANCH  31  32
ATOM     32  C   UNL     1      88.350  48.226  43.176  0.00  0.00    -0.001 A 
ATOM     33  C   UNL     1      89.372  49.086  43.625  0.00  0.00    -0.055 A 
ATOM     34  C   UNL     1      90.675  48.966  43.142  0.00  0.00    -0.061 A 
ATOM     35  C   UNL     1      90.984  47.987  42.200  0.00  0.00    -0.058 A 
ATOM     36  C   UNL     1      89.986  47.130  41.734  0.00  0.00    -0.020 A 
ATOM     37  C   UNL     1      88.670  47.236  42.205  0.00  0.00    +0.120 A 
BRANCH  37  38
ATOM     38  O   UNL     1      87.733  46.347  41.673  0.00  0.00    -0.506 OA
ATOM     39  H   UNL     1      87.816  45.427  41.833  0.00  0.00    +0.000 HD
ENDBRANCH  37  38
ENDBRANCH  31  32
ENDBRANCH   3  31
TORSDOF 9
ENDMDL
MODEL 6
REMARK VINA RESULT:    -9.724      1.925      5.085
REMARK INTER + INTRA:         -15.504
REMARK INTER:                 -13.464
REMARK INTRA:                  -2.040
REMARK UNBOUND:                -1.800
REMARK  Name = 
REMARK  9 active torsions:
REMARK  status: ('A' for Active; 'I' for Inactive)
REMARK    1  A    between atoms: O_1  and  C_2
REMARK    2  A    between atoms: C_7  and  C_8
REMARK    3  A    between atoms: C_8  and  C_9
REMARK    4  A    between atoms: C_10  and  O_11
REMARK    5  A    between atoms: C_12  and  C_13
REMARK    6  A    between atoms: C_13  and  C_14
REMARK    7  A    between atoms: C_19  and  O_20
REMARK    8  A    between atoms: C_21  and  O_35
REMARK    9  A    between atoms: C_25  and  C_29
REMARK                            x       y       z     vdW  Elec       q    Type
REMARK                         _______ _______ _______ _____ _____    ______ ____
ROOT
ATOM      1  C   UNL     1      85.565  51.213  44.411  0.00  0.00    +0.041 A 
ATOM      2  C   UNL     1      84.709  52.339  44.518  0.00  0.00    +0.131 A 
ATOM      3  C   UNL     1      84.888  53.446  43.663  0.00  0.00    +0.041 A 
ATOM      4  C   UNL     1      85.947  53.459  42.729  0.00  0.00    +0.138 A 
ATOM      5  C   UNL     1      86.872  52.388  42.699  0.00  0.00    +0.101 A 
ATOM      6  C   UNL     1      86.628  51.249  43.489  0.00  0.00    +0.142 A 
ATOM      7  O   UNL     1      87.464  50.131  43.368  0.00  0.00    -0.483 OA
ATOM      8  C   UNL     1      88.367  49.966  42.278  0.00  0.00    +0.132 C 
ATOM      9  C   UNL     1      89.129  51.280  42.057  0.00  0.00    +0.052 C 
ATOM     10  C   UNL     1      88.162  52.425  41.943  0.00  0.00    +0.174 C 
ATOM     11  O   UNL     1      88.531  53.452  41.317  0.00  0.00    -0.292 OA
ENDROOT
BRANCH   8  12
ATOM     12  C   UNL     1      89.230  48.744  42.535  0.00  0.00    -0.007 A 
ATOM     13  C   UNL     1      88.895  47.549  41.871  0.00  0.00    -0.055 A 
ATOM     14  C   UNL     1      89.631  46.381  42.088  0.00  0.00    -0.061 A 
ATOM     15  C   UNL     1      90.716  46.390  42.966  0.00  0.00    -0.062 A 
ATOM     16  C   UNL     1      91.066  47.568  43.628  0.00  0.00    -0.061 A 
ATOM     17  C   UNL     1      90.333  48.740  43.418  0.00  0.00    -0.055 A 
ENDBRANCH   8  12
BRANCH   2  18
ATOM     18  O   UNL     1      83.667  52.399  45.450  0.00  0.00    -0.506 OA
ATOM     19  H   UNL     1      83.478  51.657  45.990  0.00  0.00    +0.000 HD
ENDBRANCH   2  18
BRANCH   4  20
ATOM     20  O   UNL     1      86.032  54.535  41.840  0.00  0.00    -0.506 OA
ATOM     21  H   UNL     1      86.869  54.876  41.596  0.00  0.00    +0.000 HD
ENDBRANCH   4  20
BRANCH   1  22
ATOM     22  C   UNL     1      85.379  49.951  45.238  0.00  0.00    +0.008 C 
BRANCH  22  28
ATOM     23  C   UNL     1      84.984  47.732  44.053  0.00  0.00    +0.120 A 
ATOM     24  C   UNL     1      84.130  46.839  43.387  0.00  0.00    -0.020 A 
ATOM     25  C   UNL     1      82.782  47.155  43.205  0.00  0.00    -0.058 A 
ATOM     26  C   UNL     1      82.275  48.360  43.692  0.00  0.00    -0.061 A 
ATOM     27  C   UNL     1      83.115  49.254  44.360  0.00  0.00    -0.055 A 
ATOM     28  C   UNL     1      84.479  48.956  44.540  0.00  0.00    -0.001 A 
BRANCH  23  29
ATOM     29  O   UNL     1      86.327  47.404  44.230  0.00  0.00    -0.506 OA
ATOM     30  H   UNL     1      86.988  47.853  43.739  0.00  0.00    +0.000 HD
ENDBRANCH  23  29
ENDBRANCH  22  28
ENDBRANCH   1  22
BRANCH   3  31
ATOM     31  C   UNL     1      83.909  54.605  43.726  0.00  0.00    +0.008 C 
BRANCH  31  32
ATOM     32  C   UNL     1      84.464  55.742  44.561  0.00  0.00    -0.001 A 
ATOM     33  C   UNL     1      84.536  55.555  45.957  0.00  0.00    -0.055 A 
ATOM     34  C   UNL     1      85.061  56.546  46.787  0.00  0.00    -0.061 A 
ATOM     35  C   UNL     1      85.522  57.742  46.242  0.00  0.00    -0.058 A 
ATOM     36  C   UNL     1      85.453  57.952  44.864  0.00  0.00    -0.020 A 
ATOM     37  C   UNL     1      84.926  56.971  44.013  0.00  0.00    +0.120 A 
BRANCH  37  38
ATOM     38  O   UNL     1      84.881  57.271  42.649  0.00  0.00    -0.506 OA
ATOM     39  H   UNL     1      84.077  57.554  42.258  0.00  0.00    +0.000 HD
ENDBRANCH  37  38
ENDBRANCH  31  32
ENDBRANCH   3  31
TORSDOF 9
ENDMDL
MODEL 7
REMARK VINA RESULT:    -9.683      1.885      2.919
REMARK INTER + INTRA:         -15.445
REMARK INTER:                 -14.150
REMARK INTRA:                  -1.295
REMARK UNBOUND:                -1.800
REMARK  Name = 
REMARK  9 active torsions:
REMARK  status: ('A' for Active; 'I' for Inactive)
REMARK    1  A    between atoms: O_1  and  C_2
REMARK    2  A    between atoms: C_7  and  C_8
REMARK    3  A    between atoms: C_8  and  C_9
REMARK    4  A    between atoms: C_10  and  O_11
REMARK    5  A    between atoms: C_12  and  C_13
REMARK    6  A    between atoms: C_13  and  C_14
REMARK    7  A    between atoms: C_19  and  O_20
REMARK    8  A    between atoms: C_21  and  O_35
REMARK    9  A    between atoms: C_25  and  C_29
REMARK                            x       y       z     vdW  Elec       q    Type
REMARK                         _______ _______ _______ _____ _____    ______ ____
ROOT
ATOM      1  C   UNL     1      85.062  51.989  44.165  0.00  0.00    +0.041 A 
ATOM      2  C   UNL     1      85.707  53.239  43.978  0.00  0.00    +0.131 A 
ATOM      3  C   UNL     1      85.024  54.297  43.344  0.00  0.00    +0.041 A 
ATOM      4  C   UNL     1      83.714  54.106  42.852  0.00  0.00    +0.138 A 
ATOM      5  C   UNL     1      83.113  52.826  42.933  0.00  0.00    +0.101 A 
ATOM      6  C   UNL     1      83.765  51.806  43.650  0.00  0.00    +0.142 A 
ATOM      7  O   UNL     1      83.119  50.579  43.849  0.00  0.00    -0.483 OA
ATOM      8  C   UNL     1      81.722  50.405  43.625  0.00  0.00    +0.132 C 
ATOM      9  C   UNL     1      81.349  51.039  42.278  0.00  0.00    +0.052 C 
ATOM     10  C   UNL     1      81.855  52.453  42.216  0.00  0.00    +0.174 C 
ATOM     11  O   UNL     1      81.272  53.257  41.442  0.00  0.00    -0.292 OA
ENDROOT
BRANCH   8  12
ATOM     12  C   UNL     1      81.380  48.933  43.773  0.00  0.00    -0.007 A 
ATOM     13  C   UNL     1      82.426  47.998  43.655  0.00  0.00    -0.055 A 
ATOM     14  C   UNL     1      82.172  46.627  43.751  0.00  0.00    -0.061 A 
ATOM     15  C   UNL     1      80.872  46.169  43.971  0.00  0.00    -0.062 A 
ATOM     16  C   UNL     1      79.824  47.083  44.098  0.00  0.00    -0.061 A 
ATOM     17  C   UNL     1      80.070  48.456  44.001  0.00  0.00    -0.055 A 
ENDBRANCH   8  12
BRANCH   2  18
ATOM     18  O   UNL     1      87.016  53.476  44.411  0.00  0.00    -0.506 OA
ATOM     19  H   UNL     1      87.722  53.473  43.795  0.00  0.00    +0.000 HD
ENDBRANCH   2  18
BRANCH   4  20
ATOM     20  O   UNL     1      83.042  55.207  42.314  0.00  0.00    -0.506 OA
ATOM     21  H   UNL     1      82.654  55.149  41.463  0.00  0.00    +0.000 HD
ENDBRANCH   4  20
BRANCH   1  22
ATOM     22  C   UNL     1      85.704  50.831  44.914  0.00  0.00    +0.008 C 
BRANCH  22  28
ATOM     23  C   UNL     1      86.941  50.515  47.117  0.00  0.00    +0.120 A 
ATOM     24  C   UNL     1      87.126  50.837  48.470  0.00  0.00    -0.020 A 
ATOM     25  C   UNL     1      86.330  51.810  49.078  0.00  0.00    -0.058 A 
ATOM     26  C   UNL     1      85.349  52.473  48.340  0.00  0.00    -0.061 A 
ATOM     27  C   UNL     1      85.160  52.162  46.991  0.00  0.00    -0.055 A 
ATOM     28  C   UNL     1      85.946  51.175  46.367  0.00  0.00    -0.001 A 
BRANCH  23  29
ATOM     29  O   UNL     1      87.743  49.543  46.521  0.00  0.00    -0.506 OA
ATOM     30  H   UNL     1      87.431  48.663  46.438  0.00  0.00    +0.000 HD
ENDBRANCH  23  29
ENDBRANCH  22  28
ENDBRANCH   1  22
BRANCH   3  31
ATOM     31  C   UNL     1      85.691  55.657  43.233  0.00  0.00    +0.008 C 
BRANCH  31  32
ATOM     32  C   UNL     1      85.280  56.560  44.379  0.00  0.00    -0.001 A 
ATOM     33  C   UNL     1      84.765  55.951  45.542  0.00  0.00    -0.055 A 
ATOM     34  C   UNL     1      84.391  56.716  46.647  0.00  0.00    -0.061 A 
ATOM     35  C   UNL     1      84.524  58.102  46.614  0.00  0.00    -0.058 A 
ATOM     36  C   UNL     1      85.023  58.727  45.471  0.00  0.00    -0.020 A 
ATOM     37  C   UNL     1      85.401  57.978  44.349  0.00  0.00    +0.120 A 
BRANCH  37  38
ATOM     38  O   UNL     1      85.877  58.687  43.243  0.00  0.00    -0.506 OA
ATOM     39  H   UNL     1      85.274  59.100  42.657  0.00  0.00    +0.000 HD
ENDBRANCH  37  38
ENDBRANCH  31  32
ENDBRANCH   3  31
TORSDOF 9
ENDMDL
MODEL 8
REMARK VINA RESULT:    -9.663      2.202      8.143
REMARK INTER + INTRA:         -15.418
REMARK INTER:                 -13.908
REMARK INTRA:                  -1.510
REMARK UNBOUND:                -1.800
REMARK  Name = 
REMARK  9 active torsions:
REMARK  status: ('A' for Active; 'I' for Inactive)
REMARK    1  A    between atoms: O_1  and  C_2
REMARK    2  A    between atoms: C_7  and  C_8
REMARK    3  A    between atoms: C_8  and  C_9
REMARK    4  A    between atoms: C_10  and  O_11
REMARK    5  A    between atoms: C_12  and  C_13
REMARK    6  A    between atoms: C_13  and  C_14
REMARK    7  A    between atoms: C_19  and  O_20
REMARK    8  A    between atoms: C_21  and  O_35
REMARK    9  A    between atoms: C_25  and  C_29
REMARK                            x       y       z     vdW  Elec       q    Type
REMARK                         _______ _______ _______ _____ _____    ______ ____
ROOT
ATOM      1  C   UNL     1      86.242  52.170  43.384  0.00  0.00    +0.041 A 
ATOM      2  C   UNL     1      86.651  50.830  43.165  0.00  0.00    +0.131 A 
ATOM      3  C   UNL     1      86.738  49.932  44.250  0.00  0.00    +0.041 A 
ATOM      4  C   UNL     1      86.464  50.374  45.562  0.00  0.00    +0.138 A 
ATOM      5  C   UNL     1      86.168  51.739  45.798  0.00  0.00    +0.101 A 
ATOM      6  C   UNL     1      85.991  52.601  44.700  0.00  0.00    +0.142 A 
ATOM      7  O   UNL     1      85.569  53.920  44.917  0.00  0.00    -0.483 OA
ATOM      8  C   UNL     1      85.021  54.352  46.160  0.00  0.00    +0.132 C 
ATOM      9  C   UNL     1      85.906  53.836  47.303  0.00  0.00    +0.052 C 
ATOM     10  C   UNL     1      86.123  52.355  47.159  0.00  0.00    +0.174 C 
ATOM     11  O   UNL     1      86.402  51.695  48.193  0.00  0.00    -0.292 OA
ENDROOT
BRANCH   8  12
ATOM     12  C   UNL     1      84.823  55.857  46.113  0.00  0.00    -0.007 A 
ATOM     13  C   UNL     1      85.510  56.581  45.120  0.00  0.00    -0.055 A 
ATOM     14  C   UNL     1      85.394  57.972  45.043  0.00  0.00    -0.061 A 
ATOM     15  C   UNL     1      84.587  58.659  45.951  0.00  0.00    -0.062 A 
ATOM     16  C   UNL     1      83.894  57.955  46.938  0.00  0.00    -0.061 A 
ATOM     17  C   UNL     1      84.007  56.564  47.023  0.00  0.00    -0.055 A 
ENDBRANCH   8  12
BRANCH   2  18
ATOM     18  O   UNL     1      86.972  50.345  41.892  0.00  0.00    -0.506 OA
ATOM     19  H   UNL     1      86.909  49.427  41.711  0.00  0.00    +0.000 HD
ENDBRANCH   2  18
BRANCH   4  20
ATOM     20  O   UNL     1      86.473  49.430  46.594  0.00  0.00    -0.506 OA
ATOM     21  H   UNL     1      86.438  49.712  47.486  0.00  0.00    +0.000 HD
ENDBRANCH   4  20
BRANCH   1  22
ATOM     22  C   UNL     1      86.042  53.169  42.255  0.00  0.00    +0.008 C 
BRANCH  22  28
ATOM     23  C   UNL     1      84.067  54.679  41.704  0.00  0.00    +0.120 A 
ATOM     24  C   UNL     1      82.697  54.854  41.457  0.00  0.00    -0.020 A 
ATOM     25  C   UNL     1      81.834  53.757  41.459  0.00  0.00    -0.058 A 
ATOM     26  C   UNL     1      82.332  52.477  41.701  0.00  0.00    -0.061 A 
ATOM     27  C   UNL     1      83.695  52.290  41.945  0.00  0.00    -0.055 A 
ATOM     28  C   UNL     1      84.576  53.388  41.958  0.00  0.00    -0.001 A 
BRANCH  23  29
ATOM     29  O   UNL     1      84.919  55.782  41.697  0.00  0.00    -0.506 OA
ATOM     30  H   UNL     1      85.724  55.756  42.178  0.00  0.00    +0.000 HD
ENDBRANCH  23  29
ENDBRANCH  22  28
ENDBRANCH   1  22
BRANCH   3  31
ATOM     31  C   UNL     1      87.088  48.477  43.989  0.00  0.00    +0.008 C 
BRANCH  31  32
ATOM     32  C   UNL     1      85.845  47.664  43.688  0.00  0.00    -0.001 A 
ATOM     33  C   UNL     1      84.594  48.243  43.987  0.00  0.00    -0.055 A 
ATOM     34  C   UNL     1      83.406  47.567  43.712  0.00  0.00    -0.061 A 
ATOM     35  C   UNL     1      83.442  46.299  43.135  0.00  0.00    -0.058 A 
ATOM     36  C   UNL     1      84.668  45.703  42.839  0.00  0.00    -0.020 A 
ATOM     37  C   UNL     1      85.873  46.364  43.110  0.00  0.00    +0.120 A 
BRANCH  37  38
ATOM     38  O   UNL     1      87.054  45.687  42.795  0.00  0.00    -0.506 OA
ATOM     39  H   UNL     1      87.019  44.802  42.489  0.00  0.00    +0.000 HD
ENDBRANCH  37  38
ENDBRANCH  31  32
ENDBRANCH   3  31
TORSDOF 9
ENDMDL
MODEL 9
REMARK VINA RESULT:    -9.612      2.469      4.905
REMARK INTER + INTRA:         -15.346
REMARK INTER:                 -13.545
REMARK INTRA:                  -1.800
REMARK UNBOUND:                -1.800
REMARK  Name = 
REMARK  9 active torsions:
REMARK  status: ('A' for Active; 'I' for Inactive)
REMARK    1  A    between atoms: O_1  and  C_2
REMARK    2  A    between atoms: C_7  and  C_8
REMARK    3  A    between atoms: C_8  and  C_9
REMARK    4  A    between atoms: C_10  and  O_11
REMARK    5  A    between atoms: C_12  and  C_13
REMARK    6  A    between atoms: C_13  and  C_14
REMARK    7  A    between atoms: C_19  and  O_20
REMARK    8  A    between atoms: C_21  and  O_35
REMARK    9  A    between atoms: C_25  and  C_29
REMARK                            x       y       z     vdW  Elec       q    Type
REMARK                         _______ _______ _______ _____ _____    ______ ____
ROOT
ATOM      1  C   UNL     1      86.574  49.852  44.611  0.00  0.00    +0.041 A 
ATOM      2  C   UNL     1      85.948  51.117  44.745  0.00  0.00    +0.131 A 
ATOM      3  C   UNL     1      84.546  51.227  44.630  0.00  0.00    +0.041 A 
ATOM      4  C   UNL     1      83.765  50.088  44.337  0.00  0.00    +0.138 A 
ATOM      5  C   UNL     1      84.398  48.846  44.088  0.00  0.00    +0.101 A 
ATOM      6  C   UNL     1      85.785  48.729  44.298  0.00  0.00    +0.142 A 
ATOM      7  O   UNL     1      86.398  47.474  44.183  0.00  0.00    -0.483 OA
ATOM      8  C   UNL     1      85.654  46.259  44.160  0.00  0.00    +0.132 C 
ATOM      9  C   UNL     1      84.475  46.414  43.189  0.00  0.00    +0.052 C 
ATOM     10  C   UNL     1      83.695  47.656  43.518  0.00  0.00    +0.174 C 
ATOM     11  O   UNL     1      82.487  47.706  43.170  0.00  0.00    -0.292 OA
ENDROOT
BRANCH   8  12
ATOM     12  C   UNL     1      86.600  45.109  43.863  0.00  0.00    -0.007 A 
ATOM     13  C   UNL     1      86.329  43.863  44.458  0.00  0.00    -0.055 A 
ATOM     14  C   UNL     1      87.178  42.773  44.249  0.00  0.00    -0.061 A 
ATOM     15  C   UNL     1      88.307  42.909  43.440  0.00  0.00    -0.062 A 
ATOM     16  C   UNL     1      88.588  44.137  42.837  0.00  0.00    -0.061 A 
ATOM     17  C   UNL     1      87.744  45.232  43.043  0.00  0.00    -0.055 A 
ENDBRANCH   8  12
BRANCH   2  18
ATOM     18  O   UNL     1      86.673  52.287  44.999  0.00  0.00    -0.506 OA
ATOM     19  H   UNL     1      87.483  52.243  45.467  0.00  0.00    +0.000 HD
ENDBRANCH   2  18
BRANCH   4  20
ATOM     20  O   UNL     1      82.374  50.225  44.324  0.00  0.00    -0.506 OA
ATOM     21  H   UNL     1      81.958  50.713  43.641  0.00  0.00    +0.000 HD
ENDBRANCH   4  20
BRANCH   1  22
ATOM     22  C   UNL     1      88.068  49.643  44.806  0.00  0.00    +0.008 C 
BRANCH  22  28
ATOM     23  C   UNL     1      90.007  48.887  43.339  0.00  0.00    +0.120 A 
ATOM     24  C   UNL     1      90.679  48.893  42.107  0.00  0.00    -0.020 A 
ATOM     25  C   UNL     1      90.161  49.606  41.024  0.00  0.00    -0.058 A 
ATOM     26  C   UNL     1      88.965  50.312  41.159  0.00  0.00    -0.061 A 
ATOM     27  C   UNL     1      88.286  50.310  42.380  0.00  0.00    -0.055 A 
ATOM     28  C   UNL     1      88.802  49.607  43.485  0.00  0.00    -0.001 A 
BRANCH  23  29
ATOM     29  O   UNL     1      90.533  48.171  44.412  0.00  0.00    -0.506 OA
ATOM     30  H   UNL     1      91.141  47.475  44.258  0.00  0.00    +0.000 HD
ENDBRANCH  23  29
ENDBRANCH  22  28
ENDBRANCH   1  22
BRANCH   3  31
ATOM     31  C   UNL     1      83.880  52.572  44.867  0.00  0.00    +0.008 C 
BRANCH  31  32
ATOM     32  C   UNL     1      83.927  53.430  43.619  0.00  0.00    -0.001 A 
ATOM     33  C   UNL     1      83.106  53.055  42.535  0.00  0.00    -0.055 A 
ATOM     34  C   UNL     1      83.075  53.812  41.364  0.00  0.00    -0.061 A 
ATOM     35  C   UNL     1      83.862  54.956  41.250  0.00  0.00    -0.058 A 
ATOM     36  C   UNL     1      84.688  55.341  42.306  0.00  0.00    -0.020 A 
ATOM     37  C   UNL     1      84.736  54.593  43.490  0.00  0.00    +0.120 A 
BRANCH  37  38
ATOM     38  O   UNL     1      85.602  55.042  44.490  0.00  0.00    -0.506 OA
ATOM     39  H   UNL     1      85.322  55.048  45.385  0.00  0.00    +0.000 HD
ENDBRANCH  37  38
ENDBRANCH  31  32
ENDBRANCH   3  31
TORSDOF 9
ENDMDL
