=
 OpenBabel09092515023D

 39 43  0  0  1  0  0  0  0  0999 V2000
   85.3120   50.9220   43.9970 C   0  0  0  0  0  0  0  0  0  0  0  0
   86.1250   52.0730   43.8370 C   0  0  0  0  0  0  0  0  0  0  0  0
   85.5910   53.2370   43.2480 C   0  0  0  0  0  0  0  0  0  0  0  0
   84.2620   53.2490   42.7720 C   0  0  0  0  0  0  0  0  0  0  0  0
   83.4860   52.0660   42.8240 C   0  0  0  0  0  0  0  0  0  0  0  0
   83.9960   50.9410   43.5000 C   0  0  0  0  0  0  0  0  0  0  0  0
   83.1850   49.8110   43.6720 O   0  0  0  0  0  0  0  0  0  0  0  0
   81.7750   49.8440   43.4670 C   0  0  1  0  0  3  0  0  0  0  0  0
   81.4790   50.5680   42.1460 C   0  0  0  0  0  2  0  0  0  0  0  0
   82.1790   51.8980   42.1180 C   0  0  0  0  0  0  0  0  0  0  0  0
   81.7070   52.8000   41.3790 O   0  0  0  0  0  0  0  0  0  0  0  0
   81.2290   48.4310   43.5760 C   0  0  0  0  0  0  0  0  0  0  0  0
   79.8490   48.2740   43.8000 C   0  0  0  0  0  3  0  0  0  0  0  0
   79.2890   47.0000   43.9400 C   0  0  0  0  0  3  0  0  0  0  0  0
   80.0980   45.8660   43.8530 C   0  0  0  0  0  3  0  0  0  0  0  0
   81.4690   46.0040   43.6240 C   0  0  0  0  0  3  0  0  0  0  0  0
   82.0360   47.2750   43.4850 C   0  0  0  0  0  3  0  0  0  0  0  0
   87.4600   52.1090   44.2550 O   0  0  0  0  0  0  0  0  0  0  0  0
   87.9300   52.9200   44.2560 H   0  0  0  0  0  0  0  0  0  0  0  0
   83.7460   54.4510   42.2790 O   0  0  0  0  0  0  0  0  0  0  0  0
   84.2120   55.2520   42.4140 H   0  0  0  0  0  0  0  0  0  0  0  0
   85.7920   49.6610   44.7000 C   0  0  0  0  0  2  0  0  0  0  0  0
   86.1120   47.3010   43.7990 C   0  0  0  0  0  0  0  0  0  0  0  0
   86.7140   46.4100   42.8970 C   0  0  0  0  0  3  0  0  0  0  0  0
   87.5990   46.8810   41.9260 C   0  0  0  0  0  3  0  0  0  0  0  0
   87.8850   48.2440   41.8420 C   0  0  0  0  0  3  0  0  0  0  0  0
   87.2880   49.1400   42.7330 C   0  0  0  0  0  3  0  0  0  0  0  0
   86.4040   48.6790   43.7250 C   0  0  0  0  0  0  0  0  0  0  0  0
   85.2280   46.8190   44.7630 O   0  0  0  0  0  0  0  0  0  0  0  0
   84.4210   46.4200   44.5020 H   0  0  0  0  0  0  0  0  0  0  0  0
   86.4440   54.4920   43.1670 C   0  0  0  0  0  2  0  0  0  0  0  0
   86.0890   55.4630   44.2750 C   0  0  0  0  0  0  0  0  0  0  0  0
   86.4570   55.1190   45.5910 C   0  0  0  0  0  3  0  0  0  0  0  0
   86.1890   55.9760   46.6590 C   0  0  0  0  0  3  0  0  0  0  0  0
   85.5470   57.1920   46.4340 C   0  0  0  0  0  3  0  0  0  0  0  0
   85.1650   57.5500   45.1400 C   0  0  0  0  0  3  0  0  0  0  0  0
   85.4230   56.7020   44.0550 C   0  0  0  0  0  0  0  0  0  0  0  0
   84.9940   57.1330   42.7970 O   0  0  0  0  0  0  0  0  0  0  0  0
   84.3110   57.7710   42.7290 H   0  0  0  0  0  0  0  0  0  0  0  0
  1 22  1  0  0  0  0
  2  1  1  0  0  0  0
  2 18  1  0  0  0  0
  3  2  2  0  0  0  0
  4  5  2  0  0  0  0
  4  3  1  0  0  0  0
  5  6  1  0  0  0  0
  6  7  1  0  0  0  0
  6  1  2  0  0  0  0
  8 12  1  6  0  0  0
  8  7  1  0  0  0  0
  9  8  1  0  0  0  0
 10  9  1  0  0  0  0
 10  5  1  0  0  0  0
 11 10  2  0  0  0  0
 12 13  1  0  0  0  0
 13 14  2  0  0  0  0
 15 14  1  0  0  0  0
 16 15  2  0  0  0  0
 17 12  2  0  0  0  0
 17 16  1  0  0  0  0
 18 19  1  0  0  0  0
 20 21  1  0  0  0  0
 20  4  1  0  0  0  0
 23 29  1  0  0  0  0
 24 23  2  0  0  0  0
 25 24  1  0  0  0  0
 26 25  2  0  0  0  0
 26 27  1  0  0  0  0
 27 28  2  0  0  0  0
 28 23  1  0  0  0  0
 28 22  1  0  0  0  0
 30 29  1  0  0  0  0
 31  3  1  0  0  0  0
 31 32  1  0  0  0  0
 32 33  1  0  0  0  0
 33 34  2  0  0  0  0
 35 34  1  0  0  0  0
 36 35  2  0  0  0  0
 37 32  2  0  0  0  0
 37 36  1  0  0  0  0
 38 37  1  0  0  0  0
 39 38  1  0  0  0  0
M  END
>  <MODEL>
1

>  <REMARK>
 VINA RESULT:   -11.042      0.000      0.000
 INTER + INTRA:         -16.623
 INTER:                 -14.891
 INTRA:                  -1.732
 UNBOUND:                -1.062
  Name = 
  9 active torsions:
  status: ('A' for Active; 'I' for Inactive)
    1  A    between atoms: O_1  and  C_2
    2  A    between atoms: C_7  and  C_8
    3  A    between atoms: C_8  and  C_9
    4  A    between atoms: C_10  and  O_11
    5  A    between atoms: C_12  and  C_13
    6  A    between atoms: C_13  and  C_14
    7  A    between atoms: C_19  and  O_20
    8  A    between atoms: C_21  and  O_35
    9  A    between atoms: C_25  and  C_29
                            x       y       z     vdW  Elec       q    Type
                         _______ _______ _______ _____ _____    ______ ____

>  <TORSDO>
F 9

$$$$
=
 OpenBabel09092515023D

 39 43  0  0  1  0  0  0  0  0999 V2000
   86.1760   51.7430   43.1230 C   0  0  0  0  0  0  0  0  0  0  0  0
   86.4380   50.3550   42.9900 C   0  0  0  0  0  0  0  0  0  0  0  0
   86.4700   49.5310   44.1340 C   0  0  0  0  0  0  0  0  0  0  0  0
   86.2880   50.0880   45.4180 C   0  0  0  0  0  0  0  0  0  0  0  0
   86.1430   51.4890   45.5630 C   0  0  0  0  0  0  0  0  0  0  0  0
   86.0180   52.2880   44.4110 C   0  0  0  0  0  0  0  0  0  0  0  0
   85.7410   53.6550   44.5450 O   0  0  0  0  0  0  0  0  0  0  0  0
   85.2840   54.2270   45.7670 C   0  0  1  0  0  3  0  0  0  0  0  0
   86.1500   53.7010   46.9200 C   0  0  0  0  0  2  0  0  0  0  0  0
   86.2090   52.2000   46.8770 C   0  0  0  0  0  0  0  0  0  0  0  0
   86.4540   51.5860   47.9480 O   0  0  0  0  0  0  0  0  0  0  0  0
   85.2400   55.7370   45.6170 C   0  0  0  0  0  0  0  0  0  0  0  0
   86.0000   56.3190   44.5860 C   0  0  0  0  0  3  0  0  0  0  0  0
   86.0260   57.7070   44.4140 C   0  0  0  0  0  3  0  0  0  0  0  0
   85.2900   58.5310   45.2650 C   0  0  0  0  0  3  0  0  0  0  0  0
   84.5250   57.9700   46.2900 C   0  0  0  0  0  3  0  0  0  0  0  0
   84.4960   56.5840   46.4690 C   0  0  0  0  0  3  0  0  0  0  0  0
   86.6630   49.7530   41.7480 O   0  0  0  0  0  0  0  0  0  0  0  0
   86.2630   48.9300   41.5460 H   0  0  0  0  0  0  0  0  0  0  0  0
   86.2370   49.2220   46.5150 O   0  0  0  0  0  0  0  0  0  0  0  0
   85.4840   49.2160   47.0720 H   0  0  0  0  0  0  0  0  0  0  0  0
   86.0420   52.6770   41.9310 C   0  0  0  0  0  2  0  0  0  0  0  0
   84.2180   54.3760   41.4060 C   0  0  0  0  0  0  0  0  0  0  0  0
   82.8670   54.6890   41.1930 C   0  0  0  0  0  3  0  0  0  0  0  0
   81.8950   53.6870   41.2420 C   0  0  0  0  0  3  0  0  0  0  0  0
   82.2640   52.3660   41.4960 C   0  0  0  0  0  3  0  0  0  0  0  0
   83.6070   52.0430   41.7050 C   0  0  0  0  0  3  0  0  0  0  0  0
   84.5970   53.0430   41.6710 C   0  0  0  0  0  0  0  0  0  0  0  0
   85.1790   55.3830   41.3530 O   0  0  0  0  0  0  0  0  0  0  0  0
   85.7090   55.5660   42.1040 H   0  0  0  0  0  0  0  0  0  0  0  0
   86.6600   48.0330   43.9700 C   0  0  0  0  0  2  0  0  0  0  0  0
   85.3240   47.3240   43.8630 C   0  0  0  0  0  0  0  0  0  0  0  0
   84.1880   48.1060   43.5720 C   0  0  0  0  0  3  0  0  0  0  0  0
   82.9300   47.5200   43.4310 C   0  0  0  0  0  3  0  0  0  0  0  0
   82.7810   46.1430   43.5790 C   0  0  0  0  0  3  0  0  0  0  0  0
   83.8890   45.3500   43.8770 C   0  0  0  0  0  3  0  0  0  0  0  0
   85.1610   45.9190   44.0250 C   0  0  0  0  0  0  0  0  0  0  0  0
   86.2120   45.0530   44.3370 O   0  0  0  0  0  0  0  0  0  0  0  0
   86.5050   44.9730   45.2240 H   0  0  0  0  0  0  0  0  0  0  0  0
  1  6  1  0  0  0  0
  2  1  2  0  0  0  0
  2  3  1  0  0  0  0
  3  4  2  0  0  0  0
  4  5  1  0  0  0  0
  4 20  1  0  0  0  0
  5 10  1  0  0  0  0
  6  7  1  0  0  0  0
  6  5  2  0  0  0  0
  7  8  1  0  0  0  0
  8 12  1  6  0  0  0
  8  9  1  0  0  0  0
 10  9  1  0  0  0  0
 10 11  2  0  0  0  0
 12 17  1  0  0  0  0
 13 12  2  0  0  0  0
 14 13  1  0  0  0  0
 14 15  2  0  0  0  0
 15 16  1  0  0  0  0
 16 17  2  0  0  0  0
 18  2  1  0  0  0  0
 19 18  1  0  0  0  0
 20 21  1  0  0  0  0
 22  1  1  0  0  0  0
 23 28  1  0  0  0  0
 24 25  1  0  0  0  0
 24 23  2  0  0  0  0
 25 26  2  0  0  0  0
 26 27  1  0  0  0  0
 28 27  2  0  0  0  0
 28 22  1  0  0  0  0
 29 23  1  0  0  0  0
 29 30  1  0  0  0  0
 31  3  1  0  0  0  0
 32 31  1  0  0  0  0
 32 37  1  0  0  0  0
 33 32  2  0  0  0  0
 34 33  1  0  0  0  0
 34 35  2  0  0  0  0
 35 36  1  0  0  0  0
 36 37  2  0  0  0  0
 37 38  1  0  0  0  0
 38 39  1  0  0  0  0
M  END
>  <MODEL>
2

>  <REMARK>
 VINA RESULT:   -10.539      2.050      8.240
 INTER + INTRA:         -15.914
 INTER:                 -14.334
 INTRA:                  -1.580
 UNBOUND:                -1.062
  Name = 
  9 active torsions:
  status: ('A' for Active; 'I' for Inactive)
    1  A    between atoms: O_1  and  C_2
    2  A    between atoms: C_7  and  C_8
    3  A    between atoms: C_8  and  C_9
    4  A    between atoms: C_10  and  O_11
    5  A    between atoms: C_12  and  C_13
    6  A    between atoms: C_13  and  C_14
    7  A    between atoms: C_19  and  O_20
    8  A    between atoms: C_21  and  O_35
    9  A    between atoms: C_25  and  C_29
                            x       y       z     vdW  Elec       q    Type
                         _______ _______ _______ _____ _____    ______ ____

>  <TORSDO>
F 9

$$$$
=
 OpenBabel09092515023D

 39 43  0  0  1  0  0  0  0  0999 V2000
   85.4380   49.9690   43.9120 C   0  0  0  0  0  0  0  0  0  0  0  0
   86.4410   50.9280   43.6160 C   0  0  0  0  0  0  0  0  0  0  0  0
   86.1010   52.1190   42.9420 C   0  0  0  0  0  0  0  0  0  0  0  0
   84.7730   52.3440   42.5200 C   0  0  0  0  0  0  0  0  0  0  0  0
   83.7940   51.3380   42.7110 C   0  0  0  0  0  0  0  0  0  0  0  0
   84.1230   50.1970   43.4660 C   0  0  0  0  0  0  0  0  0  0  0  0
   83.1260   49.2600   43.7730 O   0  0  0  0  0  0  0  0  0  0  0  0
   81.7380   49.5430   43.6200 C   0  0  1  0  0  3  0  0  0  0  0  0
   81.5090   50.1980   42.2510 C   0  0  0  0  0  2  0  0  0  0  0  0
   82.4420   51.3640   42.0740 C   0  0  0  0  0  0  0  0  0  0  0  0
   82.1060   52.2740   41.2730 O   0  0  0  0  0  0  0  0  0  0  0  0
   80.9460   48.2740   43.8800 C   0  0  0  0  0  0  0  0  0  0  0  0
   81.6570   47.0640   43.9820 C   0  0  0  0  0  3  0  0  0  0  0  0
   80.9830   45.8560   44.1900 C   0  0  0  0  0  3  0  0  0  0  0  0
   79.5930   45.8410   44.3050 C   0  0  0  0  0  3  0  0  0  0  0  0
   78.8730   47.0330   44.2130 C   0  0  0  0  0  3  0  0  0  0  0  0
   79.5390   48.2450   44.0020 C   0  0  0  0  0  3  0  0  0  0  0  0
   87.7800   50.7440   43.9770 O   0  0  0  0  0  0  0  0  0  0  0  0
   88.0550   49.9360   44.3640 H   0  0  0  0  0  0  0  0  0  0  0  0
   84.4630   53.5760   41.9380 O   0  0  0  0  0  0  0  0  0  0  0  0
   85.0800   53.9970   41.3730 H   0  0  0  0  0  0  0  0  0  0  0  0
   85.7130   48.7030   44.7090 C   0  0  0  0  0  2  0  0  0  0  0  0
   85.7390   46.2580   44.0000 C   0  0  0  0  0  0  0  0  0  0  0  0
   86.2240   45.2310   43.1750 C   0  0  0  0  0  3  0  0  0  0  0  0
   87.1570   45.5120   42.1750 C   0  0  0  0  0  3  0  0  0  0  0  0
   87.6080   46.8190   41.9860 C   0  0  0  0  0  3  0  0  0  0  0  0
   87.1280   47.8490   42.7990 C   0  0  0  0  0  3  0  0  0  0  0  0
   86.1970   47.5800   43.8190 C   0  0  0  0  0  0  0  0  0  0  0  0
   84.8060   45.9660   44.9930 O   0  0  0  0  0  0  0  0  0  0  0  0
   84.3180   45.1660   44.9580 H   0  0  0  0  0  0  0  0  0  0  0  0
   87.1660   53.1780   42.7130 C   0  0  0  0  0  2  0  0  0  0  0  0
   88.0280   52.8320   41.5150 C   0  0  0  0  0  0  0  0  0  0  0  0
   89.3450   52.3920   41.7600 C   0  0  0  0  0  3  0  0  0  0  0  0
   90.1870   52.0290   40.7090 C   0  0  0  0  0  3  0  0  0  0  0  0
   89.7330   52.1010   39.3940 C   0  0  0  0  0  3  0  0  0  0  0  0
   88.4370   52.5420   39.1270 C   0  0  0  0  0  3  0  0  0  0  0  0
   87.5760   52.9140   40.1680 C   0  0  0  0  0  0  0  0  0  0  0  0
   86.3010   53.3580   39.8100 O   0  0  0  0  0  0  0  0  0  0  0  0
   85.5540   53.0880   40.3070 H   0  0  0  0  0  0  0  0  0  0  0  0
  1 22  1  0  0  0  0
  2  1  1  0  0  0  0
  2 18  1  0  0  0  0
  3  2  2  0  0  0  0
  4  5  2  0  0  0  0
  4  3  1  0  0  0  0
  5  6  1  0  0  0  0
  6  7  1  0  0  0  0
  6  1  2  0  0  0  0
  8  7  1  0  0  0  0
  8 12  1  6  0  0  0
  9  8  1  0  0  0  0
 10  9  1  0  0  0  0
 10  5  1  0  0  0  0
 11 10  2  0  0  0  0
 12 13  2  0  0  0  0
 12 17  1  0  0  0  0
 13 14  1  0  0  0  0
 14 15  2  0  0  0  0
 16 15  1  0  0  0  0
 17 16  2  0  0  0  0
 18 19  1  0  0  0  0
 20  4  1  0  0  0  0
 21 20  1  0  0  0  0
 23 29  1  0  0  0  0
 24 23  2  0  0  0  0
 25 24  1  0  0  0  0
 26 25  2  0  0  0  0
 26 27  1  0  0  0  0
 27 28  2  0  0  0  0
 28 23  1  0  0  0  0
 28 22  1  0  0  0  0
 30 29  1  0  0  0  0
 31  3  1  0  0  0  0
 32 33  1  0  0  0  0
 32 31  1  0  0  0  0
 34 33  2  0  0  0  0
 35 34  1  0  0  0  0
 36 35  2  0  0  0  0
 36 37  1  0  0  0  0
 37 32  2  0  0  0  0
 38 37  1  0  0  0  0
 38 39  1  0  0  0  0
M  END
>  <MODEL>
3

>  <REMARK>
 VINA RESULT:   -10.292      2.147      3.341
 INTER + INTRA:         -15.566
 INTER:                 -14.039
 INTRA:                  -1.527
 UNBOUND:                -1.062
  Name = 
  9 active torsions:
  status: ('A' for Active; 'I' for Inactive)
    1  A    between atoms: O_1  and  C_2
    2  A    between atoms: C_7  and  C_8
    3  A    between atoms: C_8  and  C_9
    4  A    between atoms: C_10  and  O_11
    5  A    between atoms: C_12  and  C_13
    6  A    between atoms: C_13  and  C_14
    7  A    between atoms: C_19  and  O_20
    8  A    between atoms: C_21  and  O_35
    9  A    between atoms: C_25  and  C_29
                            x       y       z     vdW  Elec       q    Type
                         _______ _______ _______ _____ _____    ______ ____

>  <TORSDO>
F 9

$$$$
=
 OpenBabel09092515023D

 39 43  0  0  1  0  0  0  0  0999 V2000
   85.2230   50.3390   44.1810 C   0  0  0  0  0  0  0  0  0  0  0  0
   86.5890   50.7180   44.1240 C   0  0  0  0  0  0  0  0  0  0  0  0
   87.5520   49.8140   43.6310 C   0  0  0  0  0  0  0  0  0  0  0  0
   87.1710   48.5130   43.2370 C   0  0  0  0  0  0  0  0  0  0  0  0
   85.8290   48.0930   43.4020 C   0  0  0  0  0  0  0  0  0  0  0  0
   84.8610   49.0330   43.8040 C   0  0  0  0  0  0  0  0  0  0  0  0
   83.5100   48.6610   43.8430 O   0  0  0  0  0  0  0  0  0  0  0  0
   83.0250   47.4780   43.2140 C   0  0  1  0  0  3  0  0  0  0  0  0
   83.9530   46.3070   43.5650 C   0  0  0  0  0  2  0  0  0  0  0  0
   85.3800   46.6730   43.2660 C   0  0  0  0  0  0  0  0  0  0  0  0
   86.1960   45.7410   43.0430 O   0  0  0  0  0  0  0  0  0  0  0  0
   81.5640   47.2890   43.5830 C   0  0  0  0  0  0  0  0  0  0  0  0
   80.7310   48.4240   43.5780 C   0  0  0  0  0  3  0  0  0  0  0  0
   79.3840   48.3220   43.9370 C   0  0  0  0  0  3  0  0  0  0  0  0
   78.8480   47.0860   44.3010 C   0  0  0  0  0  3  0  0  0  0  0  0
   79.6580   45.9490   44.3050 C   0  0  0  0  0  3  0  0  0  0  0  0
   81.0070   46.0440   43.9490 C   0  0  0  0  0  3  0  0  0  0  0  0
   87.0320   51.9800   44.5350 O   0  0  0  0  0  0  0  0  0  0  0  0
   87.8160   52.0600   45.0420 H   0  0  0  0  0  0  0  0  0  0  0  0
   88.1410   47.6820   42.6690 O   0  0  0  0  0  0  0  0  0  0  0  0
   89.0500   47.8670   42.7980 H   0  0  0  0  0  0  0  0  0  0  0  0
   84.1190   51.2890   44.6190 C   0  0  0  0  0  2  0  0  0  0  0  0
   84.1100   53.3700   43.1510 C   0  0  0  0  0  0  0  0  0  0  0  0
   83.5780   54.1060   42.0810 C   0  0  0  0  0  3  0  0  0  0  0  0
   82.5330   53.5830   41.3160 C   0  0  0  0  0  3  0  0  0  0  0  0
   82.0160   52.3210   41.6080 C   0  0  0  0  0  3  0  0  0  0  0  0
   82.5410   51.5780   42.6680 C   0  0  0  0  0  3  0  0  0  0  0  0
   83.5860   52.0960   43.4560 C   0  0  0  0  0  0  0  0  0  0  0  0
   85.1530   53.9010   43.9060 O   0  0  0  0  0  0  0  0  0  0  0  0
   85.3760   54.8080   43.8270 H   0  0  0  0  0  0  0  0  0  0  0  0
   88.9960   50.2640   43.4880 C   0  0  0  0  0  2  0  0  0  0  0  0
   89.2230   50.9470   42.1540 C   0  0  0  0  0  0  0  0  0  0  0  0
   88.9220   52.3210   42.0610 C   0  0  0  0  0  3  0  0  0  0  0  0
   89.1320   53.0230   40.8740 C   0  0  0  0  0  3  0  0  0  0  0  0
   89.6450   52.3680   39.7570 C   0  0  0  0  0  3  0  0  0  0  0  0
   89.9430   51.0060   39.8230 C   0  0  0  0  0  3  0  0  0  0  0  0
   89.7360   50.2820   41.0050 C   0  0  0  0  0  0  0  0  0  0  0  0
   90.0470   48.9200   40.9780 O   0  0  0  0  0  0  0  0  0  0  0  0
   90.9320   48.6390   41.1080 H   0  0  0  0  0  0  0  0  0  0  0  0
  1 22  1  0  0  0  0
  2  1  1  0  0  0  0
  2 18  1  0  0  0  0
  3  2  2  0  0  0  0
  4  5  2  0  0  0  0
  4  3  1  0  0  0  0
  5  6  1  0  0  0  0
  6  7  1  0  0  0  0
  6  1  2  0  0  0  0
  8  9  1  0  0  0  0
  8 12  1  1  0  0  0
  8  7  1  0  0  0  0
 10  5  1  0  0  0  0
 10  9  1  0  0  0  0
 11 10  2  0  0  0  0
 12 17  1  0  0  0  0
 13 12  2  0  0  0  0
 13 14  1  0  0  0  0
 14 15  2  0  0  0  0
 15 16  1  0  0  0  0
 17 16  2  0  0  0  0
 18 19  1  0  0  0  0
 20 21  1  0  0  0  0
 20  4  1  0  0  0  0
 23 28  1  0  0  0  0
 23 29  1  0  0  0  0
 24 23  2  0  0  0  0
 25 26  2  0  0  0  0
 25 24  1  0  0  0  0
 26 27  1  0  0  0  0
 27 28  2  0  0  0  0
 28 22  1  0  0  0  0
 30 29  1  0  0  0  0
 31  3  1  0  0  0  0
 32 31  1  0  0  0  0
 33 32  1  0  0  0  0
 34 33  2  0  0  0  0
 35 36  2  0  0  0  0
 35 34  1  0  0  0  0
 36 37  1  0  0  0  0
 37 32  2  0  0  0  0
 38 37  1  0  0  0  0
 38 39  1  0  0  0  0
M  END
>  <MODEL>
4

>  <REMARK>
 VINA RESULT:   -10.278      2.316      5.655
 INTER + INTRA:         -15.545
 INTER:                 -13.334
 INTRA:                  -2.212
 UNBOUND:                -1.062
  Name = 
  9 active torsions:
  status: ('A' for Active; 'I' for Inactive)
    1  A    between atoms: O_1  and  C_2
    2  A    between atoms: C_7  and  C_8
    3  A    between atoms: C_8  and  C_9
    4  A    between atoms: C_10  and  O_11
    5  A    between atoms: C_12  and  C_13
    6  A    between atoms: C_13  and  C_14
    7  A    between atoms: C_19  and  O_20
    8  A    between atoms: C_21  and  O_35
    9  A    between atoms: C_25  and  C_29
                            x       y       z     vdW  Elec       q    Type
                         _______ _______ _______ _____ _____    ______ ____

>  <TORSDO>
F 9

$$$$
=
 OpenBabel09092515023D

 39 43  0  0  1  0  0  0  0  0999 V2000
   85.1520   52.2220   43.9150 C   0  0  0  0  0  0  0  0  0  0  0  0
   85.7090   53.5140   43.7350 C   0  0  0  0  0  0  0  0  0  0  0  0
   84.9830   54.5050   43.0420 C   0  0  0  0  0  0  0  0  0  0  0  0
   83.7200   54.2040   42.4860 C   0  0  0  0  0  0  0  0  0  0  0  0
   83.2140   52.8840   42.5630 C   0  0  0  0  0  0  0  0  0  0  0  0
   83.9020   51.9300   43.3370 C   0  0  0  0  0  0  0  0  0  0  0  0
   83.3410   50.6600   43.5280 O   0  0  0  0  0  0  0  0  0  0  0  0
   81.9760   50.3750   43.2350 C   0  0  1  0  0  3  0  0  0  0  0  0
   81.6300   50.9550   41.8560 C   0  0  0  0  0  2  0  0  0  0  0  0
   82.0290   52.4020   41.7900 C   0  0  0  0  0  0  0  0  0  0  0  0
   81.4300   53.1440   40.9680 O   0  0  0  0  0  0  0  0  0  0  0  0
   81.7400   48.8840   43.3980 C   0  0  0  0  0  0  0  0  0  0  0  0
   80.4190   48.4460   43.6110 C   0  0  0  0  0  3  0  0  0  0  0  0
   80.1390   47.0900   43.7980 C   0  0  0  0  0  3  0  0  0  0  0  0
   81.1710   46.1510   43.7700 C   0  0  0  0  0  3  0  0  0  0  0  0
   82.4860   46.5670   43.5530 C   0  0  0  0  0  3  0  0  0  0  0  0
   82.7740   47.9230   43.3670 C   0  0  0  0  0  3  0  0  0  0  0  0
   86.9700   53.8600   44.2310 O   0  0  0  0  0  0  0  0  0  0  0  0
   87.6370   54.1640   43.6460 H   0  0  0  0  0  0  0  0  0  0  0  0
   82.9960   55.2400   41.8880 O   0  0  0  0  0  0  0  0  0  0  0  0
   82.2650   55.6190   42.3350 H   0  0  0  0  0  0  0  0  0  0  0  0
   85.8380   51.1310   44.7220 C   0  0  0  0  0  2  0  0  0  0  0  0
   86.7250   50.7830   47.0840 C   0  0  0  0  0  0  0  0  0  0  0  0
   86.7090   51.0970   48.4520 C   0  0  0  0  0  3  0  0  0  0  0  0
   85.8460   52.0800   48.9400 C   0  0  0  0  0  3  0  0  0  0  0  0
   84.9980   52.7620   48.0670 C   0  0  0  0  0  3  0  0  0  0  0  0
   85.0090   52.4610   46.7030 C   0  0  0  0  0  3  0  0  0  0  0  0
   85.8640   51.4640   46.1970 C   0  0  0  0  0  0  0  0  0  0  0  0
   87.5920   49.8020   46.6080 O   0  0  0  0  0  0  0  0  0  0  0  0
   87.9190   49.8500   45.7310 H   0  0  0  0  0  0  0  0  0  0  0  0
   85.5500   55.9100   42.9360 C   0  0  0  0  0  2  0  0  0  0  0  0
   85.1600   56.7460   44.1390 C   0  0  0  0  0  0  0  0  0  0  0  0
   84.4170   56.1200   45.1600 C   0  0  0  0  0  3  0  0  0  0  0  0
   84.0460   56.8170   46.3090 C   0  0  0  0  0  3  0  0  0  0  0  0
   84.4080   58.1540   46.4620 C   0  0  0  0  0  3  0  0  0  0  0  0
   85.1360   58.7980   45.4610 C   0  0  0  0  0  3  0  0  0  0  0  0
   85.5160   58.1150   44.2970 C   0  0  0  0  0  0  0  0  0  0  0  0
   86.2300   58.8400   43.3400 O   0  0  0  0  0  0  0  0  0  0  0  0
   87.0850   58.5570   43.0790 H   0  0  0  0  0  0  0  0  0  0  0  0
  1 22  1  0  0  0  0
  2  1  1  0  0  0  0
  2 18  1  0  0  0  0
  3  2  2  0  0  0  0
  4  5  2  0  0  0  0
  4  3  1  0  0  0  0
  5  6  1  0  0  0  0
  6  7  1  0  0  0  0
  6  1  2  0  0  0  0
  8 12  1  6  0  0  0
  8  7  1  0  0  0  0
  9  8  1  0  0  0  0
 10  9  1  0  0  0  0
 10  5  1  0  0  0  0
 11 10  2  0  0  0  0
 12 13  1  0  0  0  0
 13 14  2  0  0  0  0
 15 14  1  0  0  0  0
 16 15  2  0  0  0  0
 17 12  2  0  0  0  0
 17 16  1  0  0  0  0
 19 18  1  0  0  0  0
 20 21  1  0  0  0  0
 20  4  1  0  0  0  0
 22 28  1  0  0  0  0
 23 24  1  0  0  0  0
 24 25  2  0  0  0  0
 26 25  1  0  0  0  0
 27 26  2  0  0  0  0
 28 27  1  0  0  0  0
 28 23  2  0  0  0  0
 29 23  1  0  0  0  0
 30 29  1  0  0  0  0
 31  3  1  0  0  0  0
 31 32  1  0  0  0  0
 32 37  2  0  0  0  0
 32 33  1  0  0  0  0
 33 34  2  0  0  0  0
 34 35  1  0  0  0  0
 36 35  2  0  0  0  0
 37 36  1  0  0  0  0
 38 37  1  0  0  0  0
 39 38  1  0  0  0  0
M  END
>  <MODEL>
5

>  <REMARK>
 VINA RESULT:   -10.220      2.090      3.103
 INTER + INTRA:         -15.464
 INTER:                 -14.187
 INTRA:                  -1.277
 UNBOUND:                -1.062
  Name = 
  9 active torsions:
  status: ('A' for Active; 'I' for Inactive)
    1  A    between atoms: O_1  and  C_2
    2  A    between atoms: C_7  and  C_8
    3  A    between atoms: C_8  and  C_9
    4  A    between atoms: C_10  and  O_11
    5  A    between atoms: C_12  and  C_13
    6  A    between atoms: C_13  and  C_14
    7  A    between atoms: C_19  and  O_20
    8  A    between atoms: C_21  and  O_35
    9  A    between atoms: C_25  and  C_29
                            x       y       z     vdW  Elec       q    Type
                         _______ _______ _______ _____ _____    ______ ____

>  <TORSDO>
F 9

$$$$
=
 OpenBabel09092515023D

 39 43  0  0  1  0  0  0  0  0999 V2000
   86.4020   50.1500   43.8680 C   0  0  0  0  0  0  0  0  0  0  0  0
   86.4590   51.5670   43.8720 C   0  0  0  0  0  0  0  0  0  0  0  0
   87.3710   52.2380   43.0320 C   0  0  0  0  0  0  0  0  0  0  0  0
   88.2630   51.5050   42.2200 C   0  0  0  0  0  0  0  0  0  0  0  0
   88.2880   50.0910   42.3010 C   0  0  0  0  0  0  0  0  0  0  0  0
   87.3100   49.4310   43.0690 C   0  0  0  0  0  0  0  0  0  0  0  0
   87.2450   48.0320   43.0500 O   0  0  0  0  0  0  0  0  0  0  0  0
   87.9160   47.2480   42.0670 C   0  0  1  0  0  3  0  0  0  0  0  0
   89.3570   47.7580   41.9200 C   0  0  0  0  0  2  0  0  0  0  0  0
   89.3570   49.2430   41.6910 C   0  0  0  0  0  0  0  0  0  0  0  0
   90.3470   49.7500   41.1010 O   0  0  0  0  0  0  0  0  0  0  0  0
   87.7740   45.7800   42.4280 C   0  0  0  0  0  0  0  0  0  0  0  0
   86.4760   45.2430   42.5040 C   0  0  0  0  0  3  0  0  0  0  0  0
   86.2760   43.9060   42.8610 C   0  0  0  0  0  3  0  0  0  0  0  0
   87.3690   43.0860   43.1410 C   0  0  0  0  0  3  0  0  0  0  0  0
   88.6650   43.6000   43.0640 C   0  0  0  0  0  3  0  0  0  0  0  0
   88.8720   44.9370   42.7100 C   0  0  0  0  0  3  0  0  0  0  0  0
   85.6260   52.3460   44.6830 O   0  0  0  0  0  0  0  0  0  0  0  0
   84.9520   51.9390   45.1910 H   0  0  0  0  0  0  0  0  0  0  0  0
   89.0860   52.2100   41.3360 O   0  0  0  0  0  0  0  0  0  0  0  0
   89.1210   53.1450   41.3730 H   0  0  0  0  0  0  0  0  0  0  0  0
   85.3870   49.3610   44.6810 C   0  0  0  0  0  2  0  0  0  0  0  0
   83.4390   48.0590   43.6830 C   0  0  0  0  0  0  0  0  0  0  0  0
   82.2060   48.0300   43.0140 C   0  0  0  0  0  3  0  0  0  0  0  0
   81.5750   49.2200   42.6470 C   0  0  0  0  0  3  0  0  0  0  0  0
   82.1660   50.4470   42.9490 C   0  0  0  0  0  3  0  0  0  0  0  0
   83.3920   50.4870   43.6190 C   0  0  0  0  0  3  0  0  0  0  0  0
   84.0460   49.2960   43.9850 C   0  0  0  0  0  0  0  0  0  0  0  0
   84.0580   46.8640   44.0470 O   0  0  0  0  0  0  0  0  0  0  0  0
   84.1320   46.1660   43.4260 H   0  0  0  0  0  0  0  0  0  0  0  0
   87.3580   53.7560   42.9770 C   0  0  0  0  0  2  0  0  0  0  0  0
   86.0770   54.2670   42.3480 C   0  0  0  0  0  0  0  0  0  0  0  0
   85.5600   53.5580   41.2450 C   0  0  0  0  0  3  0  0  0  0  0  0
   84.3700   53.9510   40.6330 C   0  0  0  0  0  3  0  0  0  0  0  0
   83.6750   55.0610   41.1070 C   0  0  0  0  0  3  0  0  0  0  0  0
   84.1720   55.7840   42.1920 C   0  0  0  0  0  3  0  0  0  0  0  0
   85.3670   55.4060   42.8200 C   0  0  0  0  0  0  0  0  0  0  0  0
   85.7990   56.1950   43.8890 O   0  0  0  0  0  0  0  0  0  0  0  0
   86.0110   57.0970   43.7500 H   0  0  0  0  0  0  0  0  0  0  0  0
  1  2  1  0  0  0  0
  1 22  1  0  0  0  0
  2 18  1  0  0  0  0
  3  2  2  0  0  0  0
  4  5  2  0  0  0  0
  4  3  1  0  0  0  0
  5  6  1  0  0  0  0
  6  1  2  0  0  0  0
  7  6  1  0  0  0  0
  8 12  1  1  0  0  0
  8  7  1  0  0  0  0
  9  8  1  0  0  0  0
 10  9  1  0  0  0  0
 10  5  1  0  0  0  0
 11 10  2  0  0  0  0
 12 13  2  0  0  0  0
 12 17  1  0  0  0  0
 13 14  1  0  0  0  0
 14 15  2  0  0  0  0
 16 15  1  0  0  0  0
 17 16  2  0  0  0  0
 18 19  1  0  0  0  0
 20 21  1  0  0  0  0
 20  4  1  0  0  0  0
 23 28  1  0  0  0  0
 23 29  1  0  0  0  0
 24 23  2  0  0  0  0
 25 26  2  0  0  0  0
 25 24  1  0  0  0  0
 26 27  1  0  0  0  0
 27 28  2  0  0  0  0
 28 22  1  0  0  0  0
 30 29  1  0  0  0  0
 31  3  1  0  0  0  0
 32 37  1  0  0  0  0
 32 31  1  0  0  0  0
 33 32  2  0  0  0  0
 34 35  2  0  0  0  0
 34 33  1  0  0  0  0
 35 36  1  0  0  0  0
 36 37  2  0  0  0  0
 37 38  1  0  0  0  0
 39 38  1  0  0  0  0
M  END
>  <MODEL>
6

>  <REMARK>
 VINA RESULT:   -10.183      2.217      5.308
 INTER + INTRA:         -15.412
 INTER:                 -14.164
 INTRA:                  -1.248
 UNBOUND:                -1.062
  Name = 
  9 active torsions:
  status: ('A' for Active; 'I' for Inactive)
    1  A    between atoms: O_1  and  C_2
    2  A    between atoms: C_7  and  C_8
    3  A    between atoms: C_8  and  C_9
    4  A    between atoms: C_10  and  O_11
    5  A    between atoms: C_12  and  C_13
    6  A    between atoms: C_13  and  C_14
    7  A    between atoms: C_19  and  O_20
    8  A    between atoms: C_21  and  O_35
    9  A    between atoms: C_25  and  C_29
                            x       y       z     vdW  Elec       q    Type
                         _______ _______ _______ _____ _____    ______ ____

>  <TORSDO>
F 9

$$$$
=
 OpenBabel09092515023D

 39 43  0  0  1  0  0  0  0  0999 V2000
   86.0700   52.2230   43.0290 C   0  0  0  0  0  0  0  0  0  0  0  0
   86.4370   50.8770   42.7750 C   0  0  0  0  0  0  0  0  0  0  0  0
   86.5440   49.9610   43.8430 C   0  0  0  0  0  0  0  0  0  0  0  0
   86.3330   50.3890   45.1710 C   0  0  0  0  0  0  0  0  0  0  0  0
   86.0810   51.7570   45.4380 C   0  0  0  0  0  0  0  0  0  0  0  0
   85.8830   52.6410   44.3600 C   0  0  0  0  0  0  0  0  0  0  0  0
   85.5030   53.9650   44.6130 O   0  0  0  0  0  0  0  0  0  0  0  0
   85.0150   54.3920   45.8830 C   0  0  1  0  0  3  0  0  0  0  0  0
   85.9310   53.8370   46.9820 C   0  0  0  0  0  2  0  0  0  0  0  0
   86.1060   52.3540   46.8090 C   0  0  0  0  0  0  0  0  0  0  0  0
   86.4090   51.6710   47.8210 O   0  0  0  0  0  0  0  0  0  0  0  0
   84.8530   55.9010   45.8650 C   0  0  0  0  0  0  0  0  0  0  0  0
   85.5730   56.6300   44.9000 C   0  0  0  0  0  3  0  0  0  0  0  0
   85.4900   58.0250   44.8510 C   0  0  0  0  0  3  0  0  0  0  0  0
   84.6850   58.7110   45.7600 C   0  0  0  0  0  3  0  0  0  0  0  0
   83.9590   58.0030   46.7200 C   0  0  0  0  0  3  0  0  0  0  0  0
   84.0380   56.6090   46.7770 C   0  0  0  0  0  3  0  0  0  0  0  0
   86.6940   50.4040   41.4840 O   0  0  0  0  0  0  0  0  0  0  0  0
   86.0280   50.4480   40.8270 H   0  0  0  0  0  0  0  0  0  0  0  0
   86.3600   49.4300   46.1880 O   0  0  0  0  0  0  0  0  0  0  0  0
   87.0420   48.7890   46.2100 H   0  0  0  0  0  0  0  0  0  0  0  0
   85.8510   53.2440   41.9230 C   0  0  0  0  0  2  0  0  0  0  0  0
   83.8730   54.7320   41.3230 C   0  0  0  0  0  0  0  0  0  0  0  0
   82.4990   54.9010   41.0940 C   0  0  0  0  0  3  0  0  0  0  0  0
   81.6300   53.8120   41.1800 C   0  0  0  0  0  3  0  0  0  0  0  0
   82.1260   52.5450   41.4890 C   0  0  0  0  0  3  0  0  0  0  0  0
   83.4920   52.3640   41.7150 C   0  0  0  0  0  3  0  0  0  0  0  0
   84.3790   53.4540   41.6440 C   0  0  0  0  0  0  0  0  0  0  0  0
   84.7310   55.8260   41.2330 O   0  0  0  0  0  0  0  0  0  0  0  0
   85.3900   55.8520   40.5670 H   0  0  0  0  0  0  0  0  0  0  0  0
   86.8470   48.5020   43.5480 C   0  0  0  0  0  2  0  0  0  0  0  0
   88.2580   48.3350   43.0190 C   0  0  0  0  0  0  0  0  0  0  0  0
   89.2660   49.1520   43.5700 C   0  0  0  0  0  3  0  0  0  0  0  0
   90.5920   49.0360   43.1530 C   0  0  0  0  0  3  0  0  0  0  0  0
   90.9380   48.1040   42.1770 C   0  0  0  0  0  3  0  0  0  0  0  0
   89.9550   47.2900   41.6110 C   0  0  0  0  0  3  0  0  0  0  0  0
   88.6170   47.3940   42.0140 C   0  0  0  0  0  0  0  0  0  0  0  0
   87.6980   46.5510   41.3850 O   0  0  0  0  0  0  0  0  0  0  0  0
   87.9430   45.6740   41.1610 H   0  0  0  0  0  0  0  0  0  0  0  0
  1  6  1  0  0  0  0
  2  1  2  0  0  0  0
  2  3  1  0  0  0  0
  3  4  2  0  0  0  0
  4  5  1  0  0  0  0
  4 20  1  0  0  0  0
  5 10  1  0  0  0  0
  6  7  1  0  0  0  0
  6  5  2  0  0  0  0
  7  8  1  0  0  0  0
  8 12  1  6  0  0  0
  8  9  1  0  0  0  0
 10  9  1  0  0  0  0
 10 11  2  0  0  0  0
 12 17  1  0  0  0  0
 13 12  2  0  0  0  0
 14 13  1  0  0  0  0
 14 15  2  0  0  0  0
 15 16  1  0  0  0  0
 16 17  2  0  0  0  0
 18  2  1  0  0  0  0
 19 18  1  0  0  0  0
 20 21  1  0  0  0  0
 22  1  1  0  0  0  0
 23 28  1  0  0  0  0
 24 25  1  0  0  0  0
 24 23  2  0  0  0  0
 25 26  2  0  0  0  0
 26 27  1  0  0  0  0
 28 27  2  0  0  0  0
 28 22  1  0  0  0  0
 29 23  1  0  0  0  0
 30 29  1  0  0  0  0
 31  3  1  0  0  0  0
 32 31  1  0  0  0  0
 32 33  1  0  0  0  0
 34 33  2  0  0  0  0
 35 34  1  0  0  0  0
 36 37  1  0  0  0  0
 36 35  2  0  0  0  0
 37 32  2  0  0  0  0
 38 37  1  0  0  0  0
 39 38  1  0  0  0  0
M  END
>  <MODEL>
7

>  <REMARK>
 VINA RESULT:   -10.169      3.044      8.112
 INTER + INTRA:         -15.393
 INTER:                 -14.063
 INTRA:                  -1.329
 UNBOUND:                -1.062
  Name = 
  9 active torsions:
  status: ('A' for Active; 'I' for Inactive)
    1  A    between atoms: O_1  and  C_2
    2  A    between atoms: C_7  and  C_8
    3  A    between atoms: C_8  and  C_9
    4  A    between atoms: C_10  and  O_11
    5  A    between atoms: C_12  and  C_13
    6  A    between atoms: C_13  and  C_14
    7  A    between atoms: C_19  and  O_20
    8  A    between atoms: C_21  and  O_35
    9  A    between atoms: C_25  and  C_29
                            x       y       z     vdW  Elec       q    Type
                         _______ _______ _______ _____ _____    ______ ____

>  <TORSDO>
F 9

$$$$
=
 OpenBabel09092515023D

 39 43  0  0  1  0  0  0  0  0999 V2000
   86.0100   50.3960   43.7130 C   0  0  0  0  0  0  0  0  0  0  0  0
   86.6780   49.5490   42.7920 C   0  0  0  0  0  0  0  0  0  0  0  0
   87.7620   50.0440   42.0370 C   0  0  0  0  0  0  0  0  0  0  0  0
   88.1570   51.3930   42.1590 C   0  0  0  0  0  0  0  0  0  0  0  0
   87.4180   52.2700   42.9900 C   0  0  0  0  0  0  0  0  0  0  0  0
   86.4010   51.7440   43.8090 C   0  0  0  0  0  0  0  0  0  0  0  0
   85.7550   52.5790   44.7310 O   0  0  0  0  0  0  0  0  0  0  0  0
   86.2700   53.8550   45.0980 C   0  0  1  0  0  3  0  0  0  0  0  0
   86.6820   54.6130   43.8290 C   0  0  0  0  0  2  0  0  0  0  0  0
   87.5860   53.7560   42.9880 C   0  0  0  0  0  0  0  0  0  0  0  0
   88.3750   54.3300   42.1920 O   0  0  0  0  0  0  0  0  0  0  0  0
   85.2540   54.5600   45.9810 C   0  0  0  0  0  0  0  0  0  0  0  0
   84.5130   53.7770   46.8860 C   0  0  0  0  0  3  0  0  0  0  0  0
   83.5410   54.3610   47.7040 C   0  0  0  0  0  3  0  0  0  0  0  0
   83.3000   55.7330   47.6350 C   0  0  0  0  0  3  0  0  0  0  0  0
   84.0300   56.5260   46.7470 C   0  0  0  0  0  3  0  0  0  0  0  0
   85.0020   55.9490   45.9230 C   0  0  0  0  0  3  0  0  0  0  0  0
   86.3080   48.2140   42.6000 O   0  0  0  0  0  0  0  0  0  0  0  0
   86.1680   47.8850   41.7340 H   0  0  0  0  0  0  0  0  0  0  0  0
   89.2920   51.8170   41.4620 O   0  0  0  0  0  0  0  0  0  0  0  0
   89.6490   51.2840   40.7790 H   0  0  0  0  0  0  0  0  0  0  0  0
   84.8910   49.9100   44.6220 C   0  0  0  0  0  2  0  0  0  0  0  0
   82.9680   48.5900   43.6000 C   0  0  0  0  0  0  0  0  0  0  0  0
   81.7550   48.5490   42.8950 C   0  0  0  0  0  3  0  0  0  0  0  0
   81.1420   49.7320   42.4760 C   0  0  0  0  0  3  0  0  0  0  0  0
   81.7300   50.9640   42.7640 C   0  0  0  0  0  3  0  0  0  0  0  0
   82.9350   51.0160   43.4690 C   0  0  0  0  0  3  0  0  0  0  0  0
   83.5710   49.8330   43.8870 C   0  0  0  0  0  0  0  0  0  0  0  0
   83.5690   47.4040   44.0140 O   0  0  0  0  0  0  0  0  0  0  0  0
   83.9720   46.8370   43.3850 H   0  0  0  0  0  0  0  0  0  0  0  0
   88.5270   49.1020   41.1230 C   0  0  0  0  0  2  0  0  0  0  0  0
   89.4370   48.1900   41.9210 C   0  0  0  0  0  0  0  0  0  0  0  0
   90.5320   48.7760   42.5880 C   0  0  0  0  0  3  0  0  0  0  0  0
   91.3970   48.0050   43.3640 C   0  0  0  0  0  3  0  0  0  0  0  0
   91.1870   46.6330   43.4890 C   0  0  0  0  0  3  0  0  0  0  0  0
   90.1150   46.0290   42.8310 C   0  0  0  0  0  3  0  0  0  0  0  0
   89.2370   46.7870   42.0440 C   0  0  0  0  0  0  0  0  0  0  0  0
   88.1990   46.0990   41.4100 O   0  0  0  0  0  0  0  0  0  0  0  0
   87.8460   45.3220   41.7980 H   0  0  0  0  0  0  0  0  0  0  0  0
  1  6  1  0  0  0  0
  1 22  1  0  0  0  0
  2  1  2  0  0  0  0
  3  4  2  0  0  0  0
  3  2  1  0  0  0  0
  4  5  1  0  0  0  0
  5  6  2  0  0  0  0
  6  7  1  0  0  0  0
  7  8  1  0  0  0  0
  8 12  1  6  0  0  0
  9  8  1  0  0  0  0
 10  5  1  0  0  0  0
 10  9  1  0  0  0  0
 11 10  2  0  0  0  0
 12 13  1  0  0  0  0
 13 14  2  0  0  0  0
 15 14  1  0  0  0  0
 16 15  2  0  0  0  0
 17 12  2  0  0  0  0
 17 16  1  0  0  0  0
 18  2  1  0  0  0  0
 19 18  1  0  0  0  0
 20  4  1  0  0  0  0
 21 20  1  0  0  0  0
 23 28  1  0  0  0  0
 23 29  1  0  0  0  0
 24 23  2  0  0  0  0
 25 26  2  0  0  0  0
 25 24  1  0  0  0  0
 26 27  1  0  0  0  0
 27 28  2  0  0  0  0
 28 22  1  0  0  0  0
 30 29  1  0  0  0  0
 31 32  1  0  0  0  0
 31  3  1  0  0  0  0
 32 37  2  0  0  0  0
 32 33  1  0  0  0  0
 33 34  2  0  0  0  0
 34 35  1  0  0  0  0
 36 35  2  0  0  0  0
 37 36  1  0  0  0  0
 38 39  1  0  0  0  0
 38 37  1  0  0  0  0
M  END
>  <MODEL>
8

>  <REMARK>
 VINA RESULT:   -10.125      2.184      7.301
 INTER + INTRA:         -15.330
 INTER:                 -13.276
 INTRA:                  -2.054
 UNBOUND:                -1.062
  Name = 
  9 active torsions:
  status: ('A' for Active; 'I' for Inactive)
    1  A    between atoms: O_1  and  C_2
    2  A    between atoms: C_7  and  C_8
    3  A    between atoms: C_8  and  C_9
    4  A    between atoms: C_10  and  O_11
    5  A    between atoms: C_12  and  C_13
    6  A    between atoms: C_13  and  C_14
    7  A    between atoms: C_19  and  O_20
    8  A    between atoms: C_21  and  O_35
    9  A    between atoms: C_25  and  C_29
                            x       y       z     vdW  Elec       q    Type
                         _______ _______ _______ _____ _____    ______ ____

>  <TORSDO>
F 9

$$$$
=
 OpenBabel09092515023D

 39 43  0  0  1  0  0  0  0  0999 V2000
   85.5100   50.9380   43.3030 C   0  0  0  0  0  0  0  0  0  0  0  0
   84.9280   52.2260   43.1960 C   0  0  0  0  0  0  0  0  0  0  0  0
   85.2840   53.0750   42.1270 C   0  0  0  0  0  0  0  0  0  0  0  0
   86.2550   52.6660   41.1870 C   0  0  0  0  0  0  0  0  0  0  0  0
   86.9220   51.4290   41.3570 C   0  0  0  0  0  0  0  0  0  0  0  0
   86.4910   50.5520   42.3700 C   0  0  0  0  0  0  0  0  0  0  0  0
   87.0550   49.2720   42.4630 O   0  0  0  0  0  0  0  0  0  0  0  0
   87.8250   48.6980   41.4100 C   0  0  1  0  0  3  0  0  0  0  0  0
   88.8370   49.7370   40.9060 C   0  0  0  0  0  2  0  0  0  0  0  0
   88.1350   51.0260   40.5810 C   0  0  0  0  0  0  0  0  0  0  0  0
   88.6750   51.8010   39.7500 O   0  0  0  0  0  0  0  0  0  0  0  0
   88.4190   47.3870   41.8940 C   0  0  0  0  0  0  0  0  0  0  0  0
   89.7970   47.3520   42.1770 C   0  0  0  0  0  3  0  0  0  0  0  0
   90.4090   46.1680   42.5970 C   0  0  0  0  0  3  0  0  0  0  0  0
   89.6550   45.0040   42.7450 C   0  0  0  0  0  3  0  0  0  0  0  0
   88.2850   45.0220   42.4740 C   0  0  0  0  0  3  0  0  0  0  0  0
   87.6660   46.2020   42.0520 C   0  0  0  0  0  3  0  0  0  0  0  0
   83.9890   52.7010   44.1180 O   0  0  0  0  0  0  0  0  0  0  0  0
   83.3050   53.2770   43.8370 H   0  0  0  0  0  0  0  0  0  0  0  0
   86.5100   53.5000   40.0940 O   0  0  0  0  0  0  0  0  0  0  0  0
   86.6090   53.1340   39.2380 H   0  0  0  0  0  0  0  0  0  0  0  0
   85.1120   49.9360   44.3760 C   0  0  0  0  0  2  0  0  0  0  0  0
   84.3800   47.5560   43.8450 C   0  0  0  0  0  0  0  0  0  0  0  0
   83.4320   46.6560   43.3360 C   0  0  0  0  0  3  0  0  0  0  0  0
   82.2120   47.1220   42.8420 C   0  0  0  0  0  3  0  0  0  0  0  0
   81.9260   48.4870   42.8590 C   0  0  0  0  0  3  0  0  0  0  0  0
   82.8610   49.3910   43.3680 C   0  0  0  0  0  3  0  0  0  0  0  0
   84.1000   48.9390   43.8580 C   0  0  0  0  0  0  0  0  0  0  0  0
   85.5940   47.0790   44.3370 O   0  0  0  0  0  0  0  0  0  0  0  0
   86.2360   46.7340   43.7480 H   0  0  0  0  0  0  0  0  0  0  0  0
   84.5860   54.4150   41.9720 C   0  0  0  0  0  2  0  0  0  0  0  0
   85.0930   55.4150   42.9920 C   0  0  0  0  0  0  0  0  0  0  0  0
   84.1490   56.2670   43.6010 C   0  0  0  0  0  3  0  0  0  0  0  0
   84.5370   57.1930   44.5690 C   0  0  0  0  0  3  0  0  0  0  0  0
   85.8740   57.2880   44.9480 C   0  0  0  0  0  3  0  0  0  0  0  0
   86.8280   56.4610   44.3530 C   0  0  0  0  0  3  0  0  0  0  0  0
   86.4580   55.5260   43.3770 C   0  0  0  0  0  0  0  0  0  0  0  0
   87.4800   54.7490   42.8230 O   0  0  0  0  0  0  0  0  0  0  0  0
   88.3660   55.0530   42.8500 H   0  0  0  0  0  0  0  0  0  0  0  0
  1 22  1  0  0  0  0
  2  1  1  0  0  0  0
  2 18  1  0  0  0  0
  3  2  2  0  0  0  0
  4  5  2  0  0  0  0
  4  3  1  0  0  0  0
  5  6  1  0  0  0  0
  6  7  1  0  0  0  0
  6  1  2  0  0  0  0
  8 12  1  1  0  0  0
  8  7  1  0  0  0  0
  9  8  1  0  0  0  0
 10  9  1  0  0  0  0
 10  5  1  0  0  0  0
 11 10  2  0  0  0  0
 12 17  2  0  0  0  0
 12 13  1  0  0  0  0
 13 14  2  0  0  0  0
 14 15  1  0  0  0  0
 16 15  2  0  0  0  0
 17 16  1  0  0  0  0
 19 18  1  0  0  0  0
 20  4  1  0  0  0  0
 21 20  1  0  0  0  0
 23 28  1  0  0  0  0
 23 29  1  0  0  0  0
 24 23  2  0  0  0  0
 25 26  2  0  0  0  0
 25 24  1  0  0  0  0
 26 27  1  0  0  0  0
 27 28  2  0  0  0  0
 28 22  1  0  0  0  0
 30 29  1  0  0  0  0
 31  3  1  0  0  0  0
 31 32  1  0  0  0  0
 32 37  2  0  0  0  0
 32 33  1  0  0  0  0
 33 34  2  0  0  0  0
 34 35  1  0  0  0  0
 36 35  2  0  0  0  0
 37 36  1  0  0  0  0
 38 39  1  0  0  0  0
 38 37  1  0  0  0  0
M  END
>  <MODEL>
9

>  <REMARK>
 VINA RESULT:   -10.122      2.038      5.017
 INTER + INTRA:         -15.326
 INTER:                 -14.265
 INTRA:                  -1.062
 UNBOUND:                -1.062
  Name = 
  9 active torsions:
  status: ('A' for Active; 'I' for Inactive)
    1  A    between atoms: O_1  and  C_2
    2  A    between atoms: C_7  and  C_8
    3  A    between atoms: C_8  and  C_9
    4  A    between atoms: C_10  and  O_11
    5  A    between atoms: C_12  and  C_13
    6  A    between atoms: C_13  and  C_14
    7  A    between atoms: C_19  and  O_20
    8  A    between atoms: C_21  and  O_35
    9  A    between atoms: C_25  and  C_29
                            x       y       z     vdW  Elec       q    Type
                         _______ _______ _______ _____ _____    ______ ____

>  <TORSDO>
F 9

$$$$
