MODEL 1
REMARK VINA RESULT:    -7.922      0.000      0.000
REMARK INTER + INTRA:         -25.625
REMARK INTER:                 -20.250
REMARK INTRA:                  -5.375
REMARK UNBOUND:                -4.272
REMARK  Name = 
REMARK  31 active torsions:
REMARK  status: ('A' for Active; 'I' for Inactive)
REMARK    1  A    between atoms: C_1  and  C_2
REMARK    2  A    between atoms: C_2  and  C_3
REMARK    3  A    between atoms: C_3  and  C_4
REMARK    4  A    between atoms: C_4  and  C_5
REMARK    5  A    between atoms: C_5  and  C_6
REMARK    6  A    between atoms: C_6  and  C_7
REMARK    7  A    between atoms: C_7  and  C_8
REMARK    8  A    between atoms: C_8  and  C_9
REMARK    9  A    between atoms: C_9  and  C_10
REMARK   10  A    between atoms: C_10  and  C_11
REMARK   11  A    between atoms: C_13  and  C_14
REMARK   12  A    between atoms: C_14  and  C_15
REMARK   13  A    between atoms: C_15  and  C_16
REMARK   14  A    between atoms: C_18  and  C_19
REMARK   15  A    between atoms: C_19  and  C_20
REMARK   16  A    between atoms: C_20  and  C_21
REMARK   17  A    between atoms: C_21  and  C_22
REMARK   18  A    between atoms: C_22  and  C_23
REMARK   19  A    between atoms: C_23  and  C_24
REMARK   20  A    between atoms: C_24  and  C_25
REMARK   21  A    between atoms: C_25  and  C_26
REMARK   22  A    between atoms: C_26  and  C_27
REMARK   23  A    between atoms: C_27  and  C_28
REMARK   24  A    between atoms: C_28  and  C_29
REMARK   25  A    between atoms: C_29  and  C_30
REMARK   26  A    between atoms: C_30  and  C_31
REMARK   27  A    between atoms: C_31  and  C_32
REMARK   28  A    between atoms: C_32  and  C_33
REMARK   29  A    between atoms: C_33  and  C_34
REMARK   30  A    between atoms: C_34  and  C_35
REMARK   31  A    between atoms: C_37  and  C_41
REMARK                            x       y       z     vdW  Elec       q    Type
REMARK                         _______ _______ _______ _____ _____    ______ ____
ROOT
ATOM      1  C   UNL     1      83.721  51.521  43.170  0.00  0.00    -0.053 C 
ENDROOT
BRANCH   1   2
ATOM      2  C   UNL     1      85.026  51.953  42.479  0.00  0.00    -0.053 C 
BRANCH   2   3
ATOM      3  C   UNL     1      86.104  50.855  42.501  0.00  0.00    -0.053 C 
BRANCH   3   4
ATOM      4  C   UNL     1      85.840  49.690  43.477  0.00  0.00    -0.053 C 
BRANCH   4   5
ATOM      5  C   UNL     1      87.062  49.295  44.339  0.00  0.00    -0.053 C 
BRANCH   5   6
ATOM      6  C   UNL     1      87.015  49.804  45.794  0.00  0.00    -0.053 C 
BRANCH   6   7
ATOM      7  C   UNL     1      87.735  51.144  46.058  0.00  0.00    -0.053 C 
BRANCH   7   8
ATOM      8  C   UNL     1      86.910  52.407  45.745  0.00  0.00    -0.053 C 
BRANCH   8   9
ATOM      9  C   UNL     1      85.585  52.523  46.520  0.00  0.00    -0.053 C 
BRANCH   9  10
ATOM     10  C   UNL     1      85.789  52.613  48.041  0.00  0.00    -0.053 C 
BRANCH  10  11
ATOM     11  C   UNL     1      85.136  53.883  48.608  0.00  0.00    -0.053 C 
BRANCH  11  12
ATOM     12  C   UNL     1      84.114  54.515  47.645  0.00  0.00    -0.053 C 
BRANCH  12  13
ATOM     13  C   UNL     1      84.383  55.988  47.284  0.00  0.00    -0.049 C 
BRANCH  13  14
ATOM     14  C   UNL     1      85.657  56.217  46.457  0.00  0.00    -0.021 C 
BRANCH  14  15
ATOM     15  C   UNL     1      85.367  56.322  44.987  0.00  0.00    +0.036 C 
ATOM     16  C   UNL     1      85.261  55.302  44.144  0.00  0.00    -0.034 C 
ATOM     17  C   UNL     1      85.021  55.799  42.740  0.00  0.00    +0.120 C 
ATOM     18  O   UNL     1      85.004  57.218  42.885  0.00  0.00    -0.454 OA
ATOM     19  C   UNL     1      85.220  57.533  44.213  0.00  0.00    +0.336 C 
ATOM     20  O   UNL     1      85.283  58.708  44.658  0.00  0.00    -0.245 OA
ATOM     21  C   UNL     1      83.686  55.301  42.198  0.00  0.00    -0.024 C 
ENDBRANCH  14  15
ENDBRANCH  13  14
ENDBRANCH  12  13
ENDBRANCH  11  12
ENDBRANCH  10  11
ENDBRANCH   9  10
ENDBRANCH   8   9
ENDBRANCH   7   8
ENDBRANCH   6   7
ENDBRANCH   5   6
ENDBRANCH   4   5
ENDBRANCH   3   4
ENDBRANCH   2   3
ENDBRANCH   1   2
BRANCH   1  22
ATOM     22  C   UNL     1      82.538  51.416  42.190  0.00  0.00    -0.051 C 
BRANCH  22  23
ATOM     23  C   UNL     1      81.578  50.255  42.485  0.00  0.00    -0.024 C 
BRANCH  23  26
ATOM     24  C   UNL     1      82.277  47.814  42.899  0.00  0.00    +0.085 C 
ATOM     25  O   UNL     1      81.294  48.245  43.814  0.00  0.00    -0.368 OA
ATOM     26  C   UNL     1      82.227  49.214  43.400  0.00  0.00    +0.085 C 
BRANCH  24  27
ATOM     27  C   UNL     1      83.369  46.928  43.527  0.00  0.00    -0.022 C 
BRANCH  27  28
ATOM     28  C   UNL     1      84.287  46.242  42.503  0.00  0.00    -0.022 C 
BRANCH  28  31
ATOM     29  C   UNL     1      86.579  45.021  43.009  0.00  0.00    +0.085 C 
ATOM     30  O   UNL     1      85.732  44.312  42.133  0.00  0.00    -0.368 OA
ATOM     31  C   UNL     1      85.093  45.088  43.125  0.00  0.00    +0.085 C 
BRANCH  29  32
ATOM     32  C   UNL     1      87.371  46.108  42.271  0.00  0.00    -0.024 C 
BRANCH  32  33
ATOM     33  C   UNL     1      88.869  45.796  42.318  0.00  0.00    -0.051 C 
BRANCH  33  34
ATOM     34  C   UNL     1      89.691  46.952  41.733  0.00  0.00    -0.053 C 
BRANCH  34  35
ATOM     35  C   UNL     1      90.467  47.741  42.802  0.00  0.00    -0.053 C 
BRANCH  35  36
ATOM     36  C   UNL     1      90.848  49.183  42.410  0.00  0.00    -0.053 C 
BRANCH  36  37
ATOM     37  C   UNL     1      89.696  50.044  41.853  0.00  0.00    -0.053 C 
BRANCH  37  38
ATOM     38  C   UNL     1      90.100  51.508  41.610  0.00  0.00    -0.053 C 
BRANCH  38  39
ATOM     39  C   UNL     1      89.131  52.236  40.661  0.00  0.00    -0.053 C 
BRANCH  39  41
ATOM     40  C   UNL     1      90.688  54.034  39.812  0.00  0.00    -0.065 C 
ATOM     41  C   UNL     1      89.837  52.824  39.430  0.00  0.00    -0.056 C 
ENDBRANCH  39  41
ENDBRANCH  38  39
ENDBRANCH  37  38
ENDBRANCH  36  37
ENDBRANCH  35  36
ENDBRANCH  34  35
ENDBRANCH  33  34
ENDBRANCH  32  33
ENDBRANCH  29  32
ENDBRANCH  28  31
ENDBRANCH  27  28
ENDBRANCH  24  27
ENDBRANCH  23  26
ENDBRANCH  22  23
ENDBRANCH   1  22
TORSDOF 29
ENDMDL
MODEL 2
REMARK VINA RESULT:    -7.696      1.874      7.949
REMARK INTER + INTRA:         -25.016
REMARK INTER:                 -19.184
REMARK INTRA:                  -5.832
REMARK UNBOUND:                -4.272
REMARK  Name = 
REMARK  31 active torsions:
REMARK  status: ('A' for Active; 'I' for Inactive)
REMARK    1  A    between atoms: C_1  and  C_2
REMARK    2  A    between atoms: C_2  and  C_3
REMARK    3  A    between atoms: C_3  and  C_4
REMARK    4  A    between atoms: C_4  and  C_5
REMARK    5  A    between atoms: C_5  and  C_6
REMARK    6  A    between atoms: C_6  and  C_7
REMARK    7  A    between atoms: C_7  and  C_8
REMARK    8  A    between atoms: C_8  and  C_9
REMARK    9  A    between atoms: C_9  and  C_10
REMARK   10  A    between atoms: C_10  and  C_11
REMARK   11  A    between atoms: C_13  and  C_14
REMARK   12  A    between atoms: C_14  and  C_15
REMARK   13  A    between atoms: C_15  and  C_16
REMARK   14  A    between atoms: C_18  and  C_19
REMARK   15  A    between atoms: C_19  and  C_20
REMARK   16  A    between atoms: C_20  and  C_21
REMARK   17  A    between atoms: C_21  and  C_22
REMARK   18  A    between atoms: C_22  and  C_23
REMARK   19  A    between atoms: C_23  and  C_24
REMARK   20  A    between atoms: C_24  and  C_25
REMARK   21  A    between atoms: C_25  and  C_26
REMARK   22  A    between atoms: C_26  and  C_27
REMARK   23  A    between atoms: C_27  and  C_28
REMARK   24  A    between atoms: C_28  and  C_29
REMARK   25  A    between atoms: C_29  and  C_30
REMARK   26  A    between atoms: C_30  and  C_31
REMARK   27  A    between atoms: C_31  and  C_32
REMARK   28  A    between atoms: C_32  and  C_33
REMARK   29  A    between atoms: C_33  and  C_34
REMARK   30  A    between atoms: C_34  and  C_35
REMARK   31  A    between atoms: C_37  and  C_41
REMARK                            x       y       z     vdW  Elec       q    Type
REMARK                         _______ _______ _______ _____ _____    ______ ____
ROOT
ATOM      1  C   UNL     1      81.332  47.662  43.744  0.00  0.00    -0.053 C 
ENDROOT
BRANCH   1   2
ATOM      2  C   UNL     1      82.300  46.871  42.845  0.00  0.00    -0.053 C 
BRANCH   2   3
ATOM      3  C   UNL     1      83.504  46.306  43.619  0.00  0.00    -0.053 C 
BRANCH   3   4
ATOM      4  C   UNL     1      84.881  46.552  42.970  0.00  0.00    -0.053 C 
BRANCH   4   5
ATOM      5  C   UNL     1      85.823  47.453  43.803  0.00  0.00    -0.053 C 
BRANCH   5   6
ATOM      6  C   UNL     1      85.345  48.911  43.963  0.00  0.00    -0.053 C 
BRANCH   6   7
ATOM      7  C   UNL     1      85.941  49.683  45.160  0.00  0.00    -0.053 C 
BRANCH   7   8
ATOM      8  C   UNL     1      87.449  49.984  45.064  0.00  0.00    -0.053 C 
BRANCH   8   9
ATOM      9  C   UNL     1      87.803  51.476  44.924  0.00  0.00    -0.053 C 
BRANCH   9  10
ATOM     10  C   UNL     1      86.837  52.235  44.001  0.00  0.00    -0.053 C 
BRANCH  10  11
ATOM     11  C   UNL     1      87.585  52.851  42.810  0.00  0.00    -0.053 C 
BRANCH  11  12
ATOM     12  C   UNL     1      87.042  52.376  41.448  0.00  0.00    -0.053 C 
BRANCH  12  13
ATOM     13  C   UNL     1      87.863  51.261  40.773  0.00  0.00    -0.049 C 
BRANCH  13  14
ATOM     14  C   UNL     1      87.543  49.844  41.273  0.00  0.00    -0.021 C 
BRANCH  14  15
ATOM     15  C   UNL     1      88.782  49.086  41.653  0.00  0.00    +0.036 C 
ATOM     16  C   UNL     1      89.925  49.624  42.061  0.00  0.00    -0.034 C 
ATOM     17  C   UNL     1      90.960  48.552  42.296  0.00  0.00    +0.120 C 
ATOM     18  O   UNL     1      90.272  47.345  41.975  0.00  0.00    -0.454 OA
ATOM     19  C   UNL     1      88.984  47.657  41.582  0.00  0.00    +0.336 C 
ATOM     20  O   UNL     1      88.134  46.806  41.213  0.00  0.00    -0.245 OA
ATOM     21  C   UNL     1      91.418  48.535  43.751  0.00  0.00    -0.024 C 
ENDBRANCH  14  15
ENDBRANCH  13  14
ENDBRANCH  12  13
ENDBRANCH  11  12
ENDBRANCH  10  11
ENDBRANCH   9  10
ENDBRANCH   8   9
ENDBRANCH   7   8
ENDBRANCH   6   7
ENDBRANCH   5   6
ENDBRANCH   4   5
ENDBRANCH   3   4
ENDBRANCH   2   3
ENDBRANCH   1   2
BRANCH   1  22
ATOM     22  C   UNL     1      81.692  49.157  43.829  0.00  0.00    -0.051 C 
BRANCH  22  23
ATOM     23  C   UNL     1      82.074  49.788  42.482  0.00  0.00    -0.024 C 
BRANCH  23  26
ATOM     24  C   UNL     1      82.616  52.142  41.602  0.00  0.00    +0.085 C 
ATOM     25  O   UNL     1      82.810  52.042  42.996  0.00  0.00    -0.368 OA
ATOM     26  C   UNL     1      81.753  51.284  42.456  0.00  0.00    +0.085 C 
BRANCH  24  27
ATOM     27  C   UNL     1      81.984  53.473  41.153  0.00  0.00    -0.022 C 
BRANCH  27  28
ATOM     28  C   UNL     1      82.674  54.721  41.728  0.00  0.00    -0.022 C 
BRANCH  28  31
ATOM     29  C   UNL     1      85.090  55.589  42.369  0.00  0.00    +0.085 C 
ATOM     30  O   UNL     1      84.757  55.766  41.010  0.00  0.00    -0.368 OA
ATOM     31  C   UNL     1      84.207  54.629  41.642  0.00  0.00    +0.085 C 
BRANCH  29  32
ATOM     32  C   UNL     1      84.504  56.705  43.243  0.00  0.00    -0.024 C 
BRANCH  32  33
ATOM     33  C   UNL     1      85.535  57.164  44.278  0.00  0.00    -0.051 C 
BRANCH  33  34
ATOM     34  C   UNL     1      86.723  56.195  44.339  0.00  0.00    -0.053 C 
BRANCH  34  35
ATOM     35  C   UNL     1      86.784  55.397  45.653  0.00  0.00    -0.053 C 
BRANCH  35  36
ATOM     36  C   UNL     1      86.028  56.027  46.841  0.00  0.00    -0.053 C 
BRANCH  36  37
ATOM     37  C   UNL     1      84.619  55.461  47.106  0.00  0.00    -0.053 C 
BRANCH  37  38
ATOM     38  C   UNL     1      84.251  54.296  46.170  0.00  0.00    -0.053 C 
BRANCH  38  39
ATOM     39  C   UNL     1      84.674  52.929  46.738  0.00  0.00    -0.053 C 
BRANCH  39  41
ATOM     40  C   UNL     1      85.975  52.271  48.799  0.00  0.00    -0.065 C 
ATOM     41  C   UNL     1      84.686  52.902  48.273  0.00  0.00    -0.056 C 
ENDBRANCH  39  41
ENDBRANCH  38  39
ENDBRANCH  37  38
ENDBRANCH  36  37
ENDBRANCH  35  36
ENDBRANCH  34  35
ENDBRANCH  33  34
ENDBRANCH  32  33
ENDBRANCH  29  32
ENDBRANCH  28  31
ENDBRANCH  27  28
ENDBRANCH  24  27
ENDBRANCH  23  26
ENDBRANCH  22  23
ENDBRANCH   1  22
TORSDOF 29
ENDMDL
MODEL 3
REMARK VINA RESULT:    -7.669      1.614      3.482
REMARK INTER + INTRA:         -24.943
REMARK INTER:                 -19.497
REMARK INTRA:                  -5.446
REMARK UNBOUND:                -4.272
REMARK  Name = 
REMARK  31 active torsions:
REMARK  status: ('A' for Active; 'I' for Inactive)
REMARK    1  A    between atoms: C_1  and  C_2
REMARK    2  A    between atoms: C_2  and  C_3
REMARK    3  A    between atoms: C_3  and  C_4
REMARK    4  A    between atoms: C_4  and  C_5
REMARK    5  A    between atoms: C_5  and  C_6
REMARK    6  A    between atoms: C_6  and  C_7
REMARK    7  A    between atoms: C_7  and  C_8
REMARK    8  A    between atoms: C_8  and  C_9
REMARK    9  A    between atoms: C_9  and  C_10
REMARK   10  A    between atoms: C_10  and  C_11
REMARK   11  A    between atoms: C_13  and  C_14
REMARK   12  A    between atoms: C_14  and  C_15
REMARK   13  A    between atoms: C_15  and  C_16
REMARK   14  A    between atoms: C_18  and  C_19
REMARK   15  A    between atoms: C_19  and  C_20
REMARK   16  A    between atoms: C_20  and  C_21
REMARK   17  A    between atoms: C_21  and  C_22
REMARK   18  A    between atoms: C_22  and  C_23
REMARK   19  A    between atoms: C_23  and  C_24
REMARK   20  A    between atoms: C_24  and  C_25
REMARK   21  A    between atoms: C_25  and  C_26
REMARK   22  A    between atoms: C_26  and  C_27
REMARK   23  A    between atoms: C_27  and  C_28
REMARK   24  A    between atoms: C_28  and  C_29
REMARK   25  A    between atoms: C_29  and  C_30
REMARK   26  A    between atoms: C_30  and  C_31
REMARK   27  A    between atoms: C_31  and  C_32
REMARK   28  A    between atoms: C_32  and  C_33
REMARK   29  A    between atoms: C_33  and  C_34
REMARK   30  A    between atoms: C_34  and  C_35
REMARK   31  A    between atoms: C_37  and  C_41
REMARK                            x       y       z     vdW  Elec       q    Type
REMARK                         _______ _______ _______ _____ _____    ______ ____
ROOT
ATOM      1  C   UNL     1      80.686  49.043  44.195  0.00  0.00    -0.053 C 
ENDROOT
BRANCH   1   2
ATOM      2  C   UNL     1      80.292  49.962  43.025  0.00  0.00    -0.053 C 
BRANCH   2   3
ATOM      3  C   UNL     1      81.447  50.196  42.036  0.00  0.00    -0.053 C 
BRANCH   3   4
ATOM      4  C   UNL     1      81.962  51.647  41.954  0.00  0.00    -0.053 C 
BRANCH   4   5
ATOM      5  C   UNL     1      83.447  51.817  42.353  0.00  0.00    -0.053 C 
BRANCH   5   6
ATOM      6  C   UNL     1      83.757  51.502  43.831  0.00  0.00    -0.053 C 
BRANCH   6   7
ATOM      7  C   UNL     1      84.319  50.091  44.110  0.00  0.00    -0.053 C 
BRANCH   7   8
ATOM      8  C   UNL     1      85.822  49.913  43.825  0.00  0.00    -0.053 C 
BRANCH   8   9
ATOM      9  C   UNL     1      86.631  49.302  44.984  0.00  0.00    -0.053 C 
BRANCH   9  10
ATOM     10  C   UNL     1      87.890  50.113  45.326  0.00  0.00    -0.053 C 
BRANCH  10  11
ATOM     11  C   UNL     1      87.530  51.379  46.118  0.00  0.00    -0.053 C 
BRANCH  11  12
ATOM     12  C   UNL     1      86.787  51.074  47.433  0.00  0.00    -0.053 C 
BRANCH  12  13
ATOM     13  C   UNL     1      85.881  52.208  47.948  0.00  0.00    -0.049 C 
BRANCH  13  14
ATOM     14  C   UNL     1      84.925  52.787  46.893  0.00  0.00    -0.021 C 
BRANCH  14  15
ATOM     15  C   UNL     1      84.977  54.286  46.845  0.00  0.00    +0.036 C 
ATOM     16  C   UNL     1      86.008  55.013  46.434  0.00  0.00    -0.034 C 
ATOM     17  C   UNL     1      85.713  56.484  46.584  0.00  0.00    +0.120 C 
ATOM     18  O   UNL     1      84.394  56.508  47.127  0.00  0.00    -0.454 OA
ATOM     19  C   UNL     1      83.958  55.207  47.295  0.00  0.00    +0.336 C 
ATOM     20  O   UNL     1      82.838  54.895  47.777  0.00  0.00    -0.245 OA
ATOM     21  C   UNL     1      85.748  57.196  45.235  0.00  0.00    -0.024 C 
ENDBRANCH  14  15
ENDBRANCH  13  14
ENDBRANCH  12  13
ENDBRANCH  11  12
ENDBRANCH  10  11
ENDBRANCH   9  10
ENDBRANCH   8   9
ENDBRANCH   7   8
ENDBRANCH   6   7
ENDBRANCH   5   6
ENDBRANCH   4   5
ENDBRANCH   3   4
ENDBRANCH   2   3
ENDBRANCH   1   2
BRANCH   1  22
ATOM     22  C   UNL     1      79.970  47.680  44.144  0.00  0.00    -0.051 C 
BRANCH  22  23
ATOM     23  C   UNL     1      80.847  46.530  43.630  0.00  0.00    -0.024 C 
BRANCH  23  26
ATOM     24  C   UNL     1      83.299  45.795  43.385  0.00  0.00    +0.085 C 
ATOM     25  O   UNL     1      82.970  46.101  44.723  0.00  0.00    -0.368 OA
ATOM     26  C   UNL     1      82.334  46.873  43.732  0.00  0.00    +0.085 C 
BRANCH  24  27
ATOM     27  C   UNL     1      84.700  46.276  42.961  0.00  0.00    -0.022 C 
BRANCH  27  28
ATOM     28  C   UNL     1      85.817  45.905  43.950  0.00  0.00    -0.022 C 
BRANCH  28  31
ATOM     29  C   UNL     1      87.720  44.508  42.756  0.00  0.00    +0.085 C 
ATOM     30  O   UNL     1      86.436  44.317  42.205  0.00  0.00    -0.368 OA
ATOM     31  C   UNL     1      86.487  44.566  43.595  0.00  0.00    +0.085 C 
BRANCH  29  32
ATOM     32  C   UNL     1      88.379  45.784  42.219  0.00  0.00    -0.024 C 
BRANCH  32  33
ATOM     33  C   UNL     1      89.893  45.734  42.447  0.00  0.00    -0.051 C 
BRANCH  33  34
ATOM     34  C   UNL     1      90.470  47.145  42.621  0.00  0.00    -0.053 C 
BRANCH  34  35
ATOM     35  C   UNL     1      89.909  48.156  41.606  0.00  0.00    -0.053 C 
BRANCH  35  36
ATOM     36  C   UNL     1      89.591  49.554  42.176  0.00  0.00    -0.053 C 
BRANCH  36  37
ATOM     37  C   UNL     1      89.122  50.599  41.144  0.00  0.00    -0.053 C 
BRANCH  37  38
ATOM     38  C   UNL     1      89.175  52.041  41.677  0.00  0.00    -0.053 C 
BRANCH  38  39
ATOM     39  C   UNL     1      87.828  52.772  41.535  0.00  0.00    -0.053 C 
BRANCH  39  41
ATOM     40  C   UNL     1      86.248  54.237  42.852  0.00  0.00    -0.065 C 
ATOM     41  C   UNL     1      87.123  52.984  42.883  0.00  0.00    -0.056 C 
ENDBRANCH  39  41
ENDBRANCH  38  39
ENDBRANCH  37  38
ENDBRANCH  36  37
ENDBRANCH  35  36
ENDBRANCH  34  35
ENDBRANCH  33  34
ENDBRANCH  32  33
ENDBRANCH  29  32
ENDBRANCH  28  31
ENDBRANCH  27  28
ENDBRANCH  24  27
ENDBRANCH  23  26
ENDBRANCH  22  23
ENDBRANCH   1  22
TORSDOF 29
ENDMDL
MODEL 4
REMARK VINA RESULT:    -7.622      1.290      2.605
REMARK INTER + INTRA:         -24.816
REMARK INTER:                 -19.852
REMARK INTRA:                  -4.964
REMARK UNBOUND:                -4.272
REMARK  Name = 
REMARK  31 active torsions:
REMARK  status: ('A' for Active; 'I' for Inactive)
REMARK    1  A    between atoms: C_1  and  C_2
REMARK    2  A    between atoms: C_2  and  C_3
REMARK    3  A    between atoms: C_3  and  C_4
REMARK    4  A    between atoms: C_4  and  C_5
REMARK    5  A    between atoms: C_5  and  C_6
REMARK    6  A    between atoms: C_6  and  C_7
REMARK    7  A    between atoms: C_7  and  C_8
REMARK    8  A    between atoms: C_8  and  C_9
REMARK    9  A    between atoms: C_9  and  C_10
REMARK   10  A    between atoms: C_10  and  C_11
REMARK   11  A    between atoms: C_13  and  C_14
REMARK   12  A    between atoms: C_14  and  C_15
REMARK   13  A    between atoms: C_15  and  C_16
REMARK   14  A    between atoms: C_18  and  C_19
REMARK   15  A    between atoms: C_19  and  C_20
REMARK   16  A    between atoms: C_20  and  C_21
REMARK   17  A    between atoms: C_21  and  C_22
REMARK   18  A    between atoms: C_22  and  C_23
REMARK   19  A    between atoms: C_23  and  C_24
REMARK   20  A    between atoms: C_24  and  C_25
REMARK   21  A    between atoms: C_25  and  C_26
REMARK   22  A    between atoms: C_26  and  C_27
REMARK   23  A    between atoms: C_27  and  C_28
REMARK   24  A    between atoms: C_28  and  C_29
REMARK   25  A    between atoms: C_29  and  C_30
REMARK   26  A    between atoms: C_30  and  C_31
REMARK   27  A    between atoms: C_31  and  C_32
REMARK   28  A    between atoms: C_32  and  C_33
REMARK   29  A    between atoms: C_33  and  C_34
REMARK   30  A    between atoms: C_34  and  C_35
REMARK   31  A    between atoms: C_37  and  C_41
REMARK                            x       y       z     vdW  Elec       q    Type
REMARK                         _______ _______ _______ _____ _____    ______ ____
ROOT
ATOM      1  C   UNL     1      85.565  50.042  44.510  0.00  0.00    -0.053 C 
ENDROOT
BRANCH   1   2
ATOM      2  C   UNL     1      86.836  50.839  44.163  0.00  0.00    -0.053 C 
BRANCH   2   3
ATOM      3  C   UNL     1      87.702  51.145  45.397  0.00  0.00    -0.053 C 
BRANCH   3   4
ATOM      4  C   UNL     1      87.483  50.214  46.607  0.00  0.00    -0.053 C 
BRANCH   4   5
ATOM      5  C   UNL     1      86.923  50.924  47.861  0.00  0.00    -0.053 C 
BRANCH   5   6
ATOM      6  C   UNL     1      85.965  52.096  47.565  0.00  0.00    -0.053 C 
BRANCH   6   7
ATOM      7  C   UNL     1      85.234  52.689  48.789  0.00  0.00    -0.053 C 
BRANCH   7   8
ATOM      8  C   UNL     1      85.091  54.223  48.790  0.00  0.00    -0.053 C 
BRANCH   8   9
ATOM      9  C   UNL     1      83.862  54.758  48.032  0.00  0.00    -0.053 C 
BRANCH   9  10
ATOM     10  C   UNL     1      84.234  55.495  46.736  0.00  0.00    -0.053 C 
BRANCH  10  11
ATOM     11  C   UNL     1      85.630  56.126  46.844  0.00  0.00    -0.053 C 
BRANCH  11  12
ATOM     12  C   UNL     1      86.675  55.429  45.953  0.00  0.00    -0.053 C 
BRANCH  12  13
ATOM     13  C   UNL     1      86.107  54.370  44.988  0.00  0.00    -0.049 C 
BRANCH  13  14
ATOM     14  C   UNL     1      86.563  54.529  43.530  0.00  0.00    -0.021 C 
BRANCH  14  15
ATOM     15  C   UNL     1      85.405  54.568  42.576  0.00  0.00    +0.036 C 
ATOM     16  C   UNL     1      84.951  53.543  41.866  0.00  0.00    -0.034 C 
ATOM     17  C   UNL     1      83.812  53.976  40.977  0.00  0.00    +0.120 C 
ATOM     18  O   UNL     1      83.673  55.366  41.265  0.00  0.00    -0.454 OA
ATOM     19  C   UNL     1      84.623  55.725  42.203  0.00  0.00    +0.336 C 
ATOM     20  O   UNL     1      84.770  56.893  42.646  0.00  0.00    -0.245 OA
ATOM     21  C   UNL     1      82.528  53.229  41.320  0.00  0.00    -0.024 C 
ENDBRANCH  14  15
ENDBRANCH  13  14
ENDBRANCH  12  13
ENDBRANCH  11  12
ENDBRANCH  10  11
ENDBRANCH   9  10
ENDBRANCH   8   9
ENDBRANCH   7   8
ENDBRANCH   6   7
ENDBRANCH   5   6
ENDBRANCH   4   5
ENDBRANCH   3   4
ENDBRANCH   2   3
ENDBRANCH   1   2
BRANCH   1  22
ATOM     22  C   UNL     1      84.290  50.902  44.439  0.00  0.00    -0.051 C 
BRANCH  22  23
ATOM     23  C   UNL     1      83.210  50.347  43.499  0.00  0.00    -0.024 C 
BRANCH  23  26
ATOM     24  C   UNL     1      82.834  47.871  42.915  0.00  0.00    +0.085 C 
ATOM     25  O   UNL     1      81.624  48.535  43.207  0.00  0.00    -0.368 OA
ATOM     26  C   UNL     1      82.755  48.952  43.933  0.00  0.00    +0.085 C 
BRANCH  24  27
ATOM     27  C   UNL     1      82.913  46.440  43.477  0.00  0.00    -0.022 C 
BRANCH  27  28
ATOM     28  C   UNL     1      84.127  45.637  42.983  0.00  0.00    -0.022 C 
BRANCH  28  31
ATOM     29  C   UNL     1      86.461  44.720  43.828  0.00  0.00    +0.085 C 
ATOM     30  O   UNL     1      85.349  44.026  44.347  0.00  0.00    -0.368 OA
ATOM     31  C   UNL     1      85.162  45.404  44.098  0.00  0.00    +0.085 C 
BRANCH  29  32
ATOM     32  C   UNL     1      86.825  44.229  42.421  0.00  0.00    -0.024 C 
BRANCH  32  33
ATOM     33  C   UNL     1      87.823  45.188  41.767  0.00  0.00    -0.051 C 
BRANCH  33  34
ATOM     34  C   UNL     1      89.039  45.421  42.674  0.00  0.00    -0.053 C 
BRANCH  34  35
ATOM     35  C   UNL     1      90.062  46.400  42.072  0.00  0.00    -0.053 C 
BRANCH  35  36
ATOM     36  C   UNL     1      90.834  47.258  43.096  0.00  0.00    -0.053 C 
BRANCH  36  37
ATOM     37  C   UNL     1      90.521  48.766  43.066  0.00  0.00    -0.053 C 
BRANCH  37  38
ATOM     38  C   UNL     1      89.263  49.106  42.248  0.00  0.00    -0.053 C 
BRANCH  38  39
ATOM     39  C   UNL     1      89.539  50.144  41.146  0.00  0.00    -0.053 C 
BRANCH  39  41
ATOM     40  C   UNL     1      89.571  52.645  40.795  0.00  0.00    -0.065 C 
ATOM     41  C   UNL     1      90.001  51.497  41.708  0.00  0.00    -0.056 C 
ENDBRANCH  39  41
ENDBRANCH  38  39
ENDBRANCH  37  38
ENDBRANCH  36  37
ENDBRANCH  35  36
ENDBRANCH  34  35
ENDBRANCH  33  34
ENDBRANCH  32  33
ENDBRANCH  29  32
ENDBRANCH  28  31
ENDBRANCH  27  28
ENDBRANCH  24  27
ENDBRANCH  23  26
ENDBRANCH  22  23
ENDBRANCH   1  22
TORSDOF 29
ENDMDL
MODEL 5
REMARK VINA RESULT:    -7.550      1.907      8.416
REMARK INTER + INTRA:         -24.622
REMARK INTER:                 -19.550
REMARK INTRA:                  -5.072
REMARK UNBOUND:                -4.272
REMARK  Name = 
REMARK  31 active torsions:
REMARK  status: ('A' for Active; 'I' for Inactive)
REMARK    1  A    between atoms: C_1  and  C_2
REMARK    2  A    between atoms: C_2  and  C_3
REMARK    3  A    between atoms: C_3  and  C_4
REMARK    4  A    between atoms: C_4  and  C_5
REMARK    5  A    between atoms: C_5  and  C_6
REMARK    6  A    between atoms: C_6  and  C_7
REMARK    7  A    between atoms: C_7  and  C_8
REMARK    8  A    between atoms: C_8  and  C_9
REMARK    9  A    between atoms: C_9  and  C_10
REMARK   10  A    between atoms: C_10  and  C_11
REMARK   11  A    between atoms: C_13  and  C_14
REMARK   12  A    between atoms: C_14  and  C_15
REMARK   13  A    between atoms: C_15  and  C_16
REMARK   14  A    between atoms: C_18  and  C_19
REMARK   15  A    between atoms: C_19  and  C_20
REMARK   16  A    between atoms: C_20  and  C_21
REMARK   17  A    between atoms: C_21  and  C_22
REMARK   18  A    between atoms: C_22  and  C_23
REMARK   19  A    between atoms: C_23  and  C_24
REMARK   20  A    between atoms: C_24  and  C_25
REMARK   21  A    between atoms: C_25  and  C_26
REMARK   22  A    between atoms: C_26  and  C_27
REMARK   23  A    between atoms: C_27  and  C_28
REMARK   24  A    between atoms: C_28  and  C_29
REMARK   25  A    between atoms: C_29  and  C_30
REMARK   26  A    between atoms: C_30  and  C_31
REMARK   27  A    between atoms: C_31  and  C_32
REMARK   28  A    between atoms: C_32  and  C_33
REMARK   29  A    between atoms: C_33  and  C_34
REMARK   30  A    between atoms: C_34  and  C_35
REMARK   31  A    between atoms: C_37  and  C_41
REMARK                            x       y       z     vdW  Elec       q    Type
REMARK                         _______ _______ _______ _____ _____    ______ ____
ROOT
ATOM      1  C   UNL     1      89.257  49.511  42.433  0.00  0.00    -0.053 C 
ENDROOT
BRANCH   1   2
ATOM      2  C   UNL     1      88.567  48.290  41.799  0.00  0.00    -0.053 C 
BRANCH   2   3
ATOM      3  C   UNL     1      89.245  46.961  42.176  0.00  0.00    -0.053 C 
BRANCH   3   4
ATOM      4  C   UNL     1      88.438  45.690  41.841  0.00  0.00    -0.053 C 
BRANCH   4   5
ATOM      5  C   UNL     1      88.651  44.523  42.834  0.00  0.00    -0.053 C 
BRANCH   5   6
ATOM      6  C   UNL     1      87.549  43.444  42.806  0.00  0.00    -0.053 C 
BRANCH   6   7
ATOM      7  C   UNL     1      86.532  43.495  43.967  0.00  0.00    -0.053 C 
BRANCH   7   8
ATOM      8  C   UNL     1      85.231  44.264  43.669  0.00  0.00    -0.053 C 
BRANCH   8   9
ATOM      9  C   UNL     1      85.122  45.640  44.351  0.00  0.00    -0.053 C 
BRANCH   9  10
ATOM     10  C   UNL     1      85.435  46.805  43.399  0.00  0.00    -0.053 C 
BRANCH  10  11
ATOM     11  C   UNL     1      85.829  48.065  44.184  0.00  0.00    -0.053 C 
BRANCH  11  12
ATOM     12  C   UNL     1      85.271  49.359  43.563  0.00  0.00    -0.053 C 
BRANCH  12  13
ATOM     13  C   UNL     1      83.990  49.901  44.226  0.00  0.00    -0.049 C 
BRANCH  13  14
ATOM     14  C   UNL     1      82.811  50.102  43.261  0.00  0.00    -0.021 C 
BRANCH  14  15
ATOM     15  C   UNL     1      81.748  49.058  43.442  0.00  0.00    +0.036 C 
ATOM     16  C   UNL     1      81.960  47.760  43.620  0.00  0.00    -0.034 C 
ATOM     17  C   UNL     1      80.651  47.016  43.705  0.00  0.00    +0.120 C 
ATOM     18  O   UNL     1      79.672  48.043  43.556  0.00  0.00    -0.454 OA
ATOM     19  C   UNL     1      80.318  49.253  43.387  0.00  0.00    +0.336 C 
ATOM     20  O   UNL     1      79.726  50.349  43.206  0.00  0.00    -0.245 OA
ATOM     21  C   UNL     1      80.495  46.323  45.055  0.00  0.00    -0.024 C 
ENDBRANCH  14  15
ENDBRANCH  13  14
ENDBRANCH  12  13
ENDBRANCH  11  12
ENDBRANCH  10  11
ENDBRANCH   9  10
ENDBRANCH   8   9
ENDBRANCH   7   8
ENDBRANCH   6   7
ENDBRANCH   5   6
ENDBRANCH   4   5
ENDBRANCH   3   4
ENDBRANCH   2   3
ENDBRANCH   1   2
BRANCH   1  22
ATOM     22  C   UNL     1      89.892  50.442  41.384  0.00  0.00    -0.051 C 
BRANCH  22  23
ATOM     23  C   UNL     1      89.030  51.660  41.022  0.00  0.00    -0.024 C 
BRANCH  23  26
ATOM     24  C   UNL     1      87.027  52.834  42.129  0.00  0.00    +0.085 C 
ATOM     25  O   UNL     1      88.166  53.666  42.079  0.00  0.00    -0.368 OA
ATOM     26  C   UNL     1      88.405  52.292  42.268  0.00  0.00    +0.085 C 
BRANCH  24  27
ATOM     27  C   UNL     1      86.229  52.948  43.441  0.00  0.00    -0.022 C 
BRANCH  27  28
ATOM     28  C   UNL     1      84.901  53.710  43.303  0.00  0.00    -0.022 C 
BRANCH  28  31
ATOM     29  C   UNL     1      84.906  56.354  43.206  0.00  0.00    +0.085 C 
ATOM     30  O   UNL     1      83.853  55.754  42.483  0.00  0.00    -0.368 OA
ATOM     31  C   UNL     1      85.066  55.031  42.533  0.00  0.00    +0.085 C 
BRANCH  29  32
ATOM     32  C   UNL     1      84.578  56.452  44.701  0.00  0.00    -0.024 C 
BRANCH  32  33
ATOM     33  C   UNL     1      85.868  56.534  45.522  0.00  0.00    -0.051 C 
BRANCH  33  34
ATOM     34  C   UNL     1      86.002  55.326  46.458  0.00  0.00    -0.053 C 
BRANCH  34  35
ATOM     35  C   UNL     1      84.673  54.924  47.119  0.00  0.00    -0.053 C 
BRANCH  35  36
ATOM     36  C   UNL     1      84.632  53.496  47.702  0.00  0.00    -0.053 C 
BRANCH  36  37
ATOM     37  C   UNL     1      85.715  53.180  48.753  0.00  0.00    -0.053 C 
BRANCH  37  38
ATOM     38  C   UNL     1      86.099  51.691  48.795  0.00  0.00    -0.053 C 
BRANCH  38  39
ATOM     39  C   UNL     1      86.285  51.091  47.390  0.00  0.00    -0.053 C 
BRANCH  39  41
ATOM     40  C   UNL     1      88.030  50.561  45.644  0.00  0.00    -0.065 C 
ATOM     41  C   UNL     1      87.719  50.600  47.139  0.00  0.00    -0.056 C 
ENDBRANCH  39  41
ENDBRANCH  38  39
ENDBRANCH  37  38
ENDBRANCH  36  37
ENDBRANCH  35  36
ENDBRANCH  34  35
ENDBRANCH  33  34
ENDBRANCH  32  33
ENDBRANCH  29  32
ENDBRANCH  28  31
ENDBRANCH  27  28
ENDBRANCH  24  27
ENDBRANCH  23  26
ENDBRANCH  22  23
ENDBRANCH   1  22
TORSDOF 29
ENDMDL
MODEL 6
REMARK VINA RESULT:    -7.531      2.136      7.752
REMARK INTER + INTRA:         -24.569
REMARK INTER:                 -20.242
REMARK INTRA:                  -4.327
REMARK UNBOUND:                -4.272
REMARK  Name = 
REMARK  31 active torsions:
REMARK  status: ('A' for Active; 'I' for Inactive)
REMARK    1  A    between atoms: C_1  and  C_2
REMARK    2  A    between atoms: C_2  and  C_3
REMARK    3  A    between atoms: C_3  and  C_4
REMARK    4  A    between atoms: C_4  and  C_5
REMARK    5  A    between atoms: C_5  and  C_6
REMARK    6  A    between atoms: C_6  and  C_7
REMARK    7  A    between atoms: C_7  and  C_8
REMARK    8  A    between atoms: C_8  and  C_9
REMARK    9  A    between atoms: C_9  and  C_10
REMARK   10  A    between atoms: C_10  and  C_11
REMARK   11  A    between atoms: C_13  and  C_14
REMARK   12  A    between atoms: C_14  and  C_15
REMARK   13  A    between atoms: C_15  and  C_16
REMARK   14  A    between atoms: C_18  and  C_19
REMARK   15  A    between atoms: C_19  and  C_20
REMARK   16  A    between atoms: C_20  and  C_21
REMARK   17  A    between atoms: C_21  and  C_22
REMARK   18  A    between atoms: C_22  and  C_23
REMARK   19  A    between atoms: C_23  and  C_24
REMARK   20  A    between atoms: C_24  and  C_25
REMARK   21  A    between atoms: C_25  and  C_26
REMARK   22  A    between atoms: C_26  and  C_27
REMARK   23  A    between atoms: C_27  and  C_28
REMARK   24  A    between atoms: C_28  and  C_29
REMARK   25  A    between atoms: C_29  and  C_30
REMARK   26  A    between atoms: C_30  and  C_31
REMARK   27  A    between atoms: C_31  and  C_32
REMARK   28  A    between atoms: C_32  and  C_33
REMARK   29  A    between atoms: C_33  and  C_34
REMARK   30  A    between atoms: C_34  and  C_35
REMARK   31  A    between atoms: C_37  and  C_41
REMARK                            x       y       z     vdW  Elec       q    Type
REMARK                         _______ _______ _______ _____ _____    ______ ____
ROOT
ATOM      1  C   UNL     1      82.084  51.496  42.653  0.00  0.00    -0.053 C 
ENDROOT
BRANCH   1   2
ATOM      2  C   UNL     1      81.833  52.546  41.556  0.00  0.00    -0.053 C 
BRANCH   2   3
ATOM      3  C   UNL     1      82.919  53.635  41.515  0.00  0.00    -0.053 C 
BRANCH   3   4
ATOM      4  C   UNL     1      84.259  53.210  40.882  0.00  0.00    -0.053 C 
BRANCH   4   5
ATOM      5  C   UNL     1      85.492  53.451  41.783  0.00  0.00    -0.053 C 
BRANCH   5   6
ATOM      6  C   UNL     1      86.616  52.404  41.631  0.00  0.00    -0.053 C 
BRANCH   6   7
ATOM      7  C   UNL     1      87.967  52.773  42.281  0.00  0.00    -0.053 C 
BRANCH   7   8
ATOM      8  C   UNL     1      89.171  52.807  41.322  0.00  0.00    -0.053 C 
BRANCH   8   9
ATOM      9  C   UNL     1      89.714  51.425  40.916  0.00  0.00    -0.053 C 
BRANCH   9  10
ATOM     10  C   UNL     1      89.736  50.425  42.082  0.00  0.00    -0.053 C 
BRANCH  10  11
ATOM     11  C   UNL     1      90.887  49.420  41.922  0.00  0.00    -0.053 C 
BRANCH  11  12
ATOM     12  C   UNL     1      91.204  48.658  43.223  0.00  0.00    -0.053 C 
BRANCH  12  13
ATOM     13  C   UNL     1      90.805  47.170  43.220  0.00  0.00    -0.049 C 
BRANCH  13  14
ATOM     14  C   UNL     1      90.141  46.692  41.920  0.00  0.00    -0.021 C 
BRANCH  14  15
ATOM     15  C   UNL     1      88.726  46.242  42.140  0.00  0.00    +0.036 C 
ATOM     16  C   UNL     1      88.351  45.033  42.538  0.00  0.00    -0.034 C 
ATOM     17  C   UNL     1      86.846  44.936  42.592  0.00  0.00    +0.120 C 
ATOM     18  O   UNL     1      86.412  46.230  42.177  0.00  0.00    -0.454 OA
ATOM     19  C   UNL     1      87.522  47.004  41.897  0.00  0.00    +0.336 C 
ATOM     20  O   UNL     1      87.468  48.192  41.485  0.00  0.00    -0.245 OA
ATOM     21  C   UNL     1      86.361  44.637  44.006  0.00  0.00    -0.024 C 
ENDBRANCH  14  15
ENDBRANCH  13  14
ENDBRANCH  12  13
ENDBRANCH  11  12
ENDBRANCH  10  11
ENDBRANCH   9  10
ENDBRANCH   8   9
ENDBRANCH   7   8
ENDBRANCH   6   7
ENDBRANCH   5   6
ENDBRANCH   4   5
ENDBRANCH   3   4
ENDBRANCH   2   3
ENDBRANCH   1   2
BRANCH   1  22
ATOM     22  C   UNL     1      81.268  50.208  42.436  0.00  0.00    -0.051 C 
BRANCH  22  23
ATOM     23  C   UNL     1      81.981  48.928  42.897  0.00  0.00    -0.024 C 
BRANCH  23  26
ATOM     24  C   UNL     1      84.506  49.167  43.321  0.00  0.00    +0.085 C 
ATOM     25  O   UNL     1      83.941  48.117  44.075  0.00  0.00    -0.368 OA
ATOM     26  C   UNL     1      83.124  49.244  43.864  0.00  0.00    +0.085 C 
BRANCH  24  27
ATOM     27  C   UNL     1      85.562  49.986  44.086  0.00  0.00    -0.022 C 
BRANCH  27  28
ATOM     28  C   UNL     1      86.465  49.146  45.003  0.00  0.00    -0.022 C 
BRANCH  28  31
ATOM     29  C   UNL     1      87.989  50.546  46.652  0.00  0.00    +0.085 C 
ATOM     30  O   UNL     1      87.584  51.255  45.503  0.00  0.00    -0.368 OA
ATOM     31  C   UNL     1      87.783  49.866  45.339  0.00  0.00    +0.085 C 
BRANCH  29  32
ATOM     32  C   UNL     1      86.897  50.546  47.729  0.00  0.00    -0.024 C 
BRANCH  32  33
ATOM     33  C   UNL     1      85.995  51.773  47.568  0.00  0.00    -0.051 C 
BRANCH  33  34
ATOM     34  C   UNL     1      85.754  52.462  48.917  0.00  0.00    -0.053 C 
BRANCH  34  35
ATOM     35  C   UNL     1      84.642  53.524  48.863  0.00  0.00    -0.053 C 
BRANCH  35  36
ATOM     36  C   UNL     1      84.393  54.145  47.473  0.00  0.00    -0.053 C 
BRANCH  36  37
ATOM     37  C   UNL     1      84.772  55.633  47.335  0.00  0.00    -0.053 C 
BRANCH  37  38
ATOM     38  C   UNL     1      86.172  55.847  46.737  0.00  0.00    -0.053 C 
BRANCH  38  39
ATOM     39  C   UNL     1      86.354  55.124  45.390  0.00  0.00    -0.053 C 
BRANCH  39  41
ATOM     40  C   UNL     1      85.539  56.688  43.584  0.00  0.00    -0.065 C 
ATOM     41  C   UNL     1      86.766  56.075  44.257  0.00  0.00    -0.056 C 
ENDBRANCH  39  41
ENDBRANCH  38  39
ENDBRANCH  37  38
ENDBRANCH  36  37
ENDBRANCH  35  36
ENDBRANCH  34  35
ENDBRANCH  33  34
ENDBRANCH  32  33
ENDBRANCH  29  32
ENDBRANCH  28  31
ENDBRANCH  27  28
ENDBRANCH  24  27
ENDBRANCH  23  26
ENDBRANCH  22  23
ENDBRANCH   1  22
TORSDOF 29
ENDMDL
MODEL 7
REMARK VINA RESULT:    -7.510      2.125      7.320
REMARK INTER + INTRA:         -24.515
REMARK INTER:                 -18.515
REMARK INTRA:                  -6.000
REMARK UNBOUND:                -4.272
REMARK  Name = 
REMARK  31 active torsions:
REMARK  status: ('A' for Active; 'I' for Inactive)
REMARK    1  A    between atoms: C_1  and  C_2
REMARK    2  A    between atoms: C_2  and  C_3
REMARK    3  A    between atoms: C_3  and  C_4
REMARK    4  A    between atoms: C_4  and  C_5
REMARK    5  A    between atoms: C_5  and  C_6
REMARK    6  A    between atoms: C_6  and  C_7
REMARK    7  A    between atoms: C_7  and  C_8
REMARK    8  A    between atoms: C_8  and  C_9
REMARK    9  A    between atoms: C_9  and  C_10
REMARK   10  A    between atoms: C_10  and  C_11
REMARK   11  A    between atoms: C_13  and  C_14
REMARK   12  A    between atoms: C_14  and  C_15
REMARK   13  A    between atoms: C_15  and  C_16
REMARK   14  A    between atoms: C_18  and  C_19
REMARK   15  A    between atoms: C_19  and  C_20
REMARK   16  A    between atoms: C_20  and  C_21
REMARK   17  A    between atoms: C_21  and  C_22
REMARK   18  A    between atoms: C_22  and  C_23
REMARK   19  A    between atoms: C_23  and  C_24
REMARK   20  A    between atoms: C_24  and  C_25
REMARK   21  A    between atoms: C_25  and  C_26
REMARK   22  A    between atoms: C_26  and  C_27
REMARK   23  A    between atoms: C_27  and  C_28
REMARK   24  A    between atoms: C_28  and  C_29
REMARK   25  A    between atoms: C_29  and  C_30
REMARK   26  A    between atoms: C_30  and  C_31
REMARK   27  A    between atoms: C_31  and  C_32
REMARK   28  A    between atoms: C_32  and  C_33
REMARK   29  A    between atoms: C_33  and  C_34
REMARK   30  A    between atoms: C_34  and  C_35
REMARK   31  A    between atoms: C_37  and  C_41
REMARK                            x       y       z     vdW  Elec       q    Type
REMARK                         _______ _______ _______ _____ _____    ______ ____
ROOT
ATOM      1  C   UNL     1      84.980  57.065  45.447  0.00  0.00    -0.053 C 
ENDROOT
BRANCH   1   2
ATOM      2  C   UNL     1      84.544  56.709  46.880  0.00  0.00    -0.053 C 
BRANCH   2   3
ATOM      3  C   UNL     1      84.104  55.243  47.022  0.00  0.00    -0.053 C 
BRANCH   3   4
ATOM      4  C   UNL     1      85.146  54.297  47.651  0.00  0.00    -0.053 C 
BRANCH   4   5
ATOM      5  C   UNL     1      84.986  52.813  47.245  0.00  0.00    -0.053 C 
BRANCH   5   6
ATOM      6  C   UNL     1      84.490  52.591  45.801  0.00  0.00    -0.053 C 
BRANCH   6   7
ATOM      7  C   UNL     1      85.590  52.521  44.720  0.00  0.00    -0.053 C 
BRANCH   7   8
ATOM      8  C   UNL     1      87.022  52.318  45.250  0.00  0.00    -0.053 C 
BRANCH   8   9
ATOM      9  C   UNL     1      87.658  50.962  44.895  0.00  0.00    -0.053 C 
BRANCH   9  10
ATOM     10  C   UNL     1      87.146  49.813  45.777  0.00  0.00    -0.053 C 
BRANCH  10  11
ATOM     11  C   UNL     1      86.212  48.886  44.984  0.00  0.00    -0.053 C 
BRANCH  11  12
ATOM     12  C   UNL     1      86.374  49.030  43.459  0.00  0.00    -0.053 C 
BRANCH  12  13
ATOM     13  C   UNL     1      87.380  48.055  42.816  0.00  0.00    -0.049 C 
BRANCH  13  14
ATOM     14  C   UNL     1      87.831  48.451  41.401  0.00  0.00    -0.021 C 
BRANCH  14  15
ATOM     15  C   UNL     1      88.484  49.802  41.373  0.00  0.00    +0.036 C 
ATOM     16  C   UNL     1      87.919  50.926  40.952  0.00  0.00    -0.034 C 
ATOM     17  C   UNL     1      88.901  52.070  41.018  0.00  0.00    +0.120 C 
ATOM     18  O   UNL     1      90.087  51.463  41.526  0.00  0.00    -0.454 OA
ATOM     19  C   UNL     1      89.849  50.117  41.727  0.00  0.00    +0.336 C 
ATOM     20  O   UNL     1      90.712  49.303  42.149  0.00  0.00    -0.245 OA
ATOM     21  C   UNL     1      88.413  53.163  41.963  0.00  0.00    -0.024 C 
ENDBRANCH  14  15
ENDBRANCH  13  14
ENDBRANCH  12  13
ENDBRANCH  11  12
ENDBRANCH  10  11
ENDBRANCH   9  10
ENDBRANCH   8   9
ENDBRANCH   7   8
ENDBRANCH   6   7
ENDBRANCH   5   6
ENDBRANCH   4   5
ENDBRANCH   3   4
ENDBRANCH   2   3
ENDBRANCH   1   2
BRANCH   1  22
ATOM     22  C   UNL     1      86.339  56.446  45.071  0.00  0.00    -0.051 C 
BRANCH  22  23
ATOM     23  C   UNL     1      86.367  55.787  43.685  0.00  0.00    -0.024 C 
BRANCH  23  26
ATOM     24  C   UNL     1      84.835  54.966  41.789  0.00  0.00    +0.085 C 
ATOM     25  O   UNL     1      84.835  56.373  41.897  0.00  0.00    -0.368 OA
ATOM     26  C   UNL     1      84.958  55.655  43.101  0.00  0.00    +0.085 C 
BRANCH  24  27
ATOM     27  C   UNL     1      83.451  54.363  41.488  0.00  0.00    -0.022 C 
BRANCH  27  28
ATOM     28  C   UNL     1      83.414  52.827  41.523  0.00  0.00    -0.022 C 
BRANCH  28  31
ATOM     29  C   UNL     1      81.770  51.074  42.629  0.00  0.00    +0.085 C 
ATOM     30  O   UNL     1      81.822  51.003  41.222  0.00  0.00    -0.368 OA
ATOM     31  C   UNL     1      81.998  52.285  41.788  0.00  0.00    +0.085 C 
BRANCH  29  32
ATOM     32  C   UNL     1      82.939  50.320  43.275  0.00  0.00    -0.024 C 
BRANCH  32  33
ATOM     33  C   UNL     1      82.440  49.030  43.931  0.00  0.00    -0.051 C 
BRANCH  33  34
ATOM     34  C   UNL     1      82.861  47.799  43.117  0.00  0.00    -0.053 C 
BRANCH  34  35
ATOM     35  C   UNL     1      82.843  46.498  43.938  0.00  0.00    -0.053 C 
BRANCH  35  36
ATOM     36  C   UNL     1      83.748  45.369  43.403  0.00  0.00    -0.053 C 
BRANCH  36  37
ATOM     37  C   UNL     1      85.179  45.340  43.975  0.00  0.00    -0.053 C 
BRANCH  37  38
ATOM     38  C   UNL     1      86.183  44.627  43.054  0.00  0.00    -0.053 C 
BRANCH  38  39
ATOM     39  C   UNL     1      86.905  43.463  43.757  0.00  0.00    -0.053 C 
BRANCH  39  41
ATOM     40  C   UNL     1      88.847  44.682  42.698  0.00  0.00    -0.065 C 
ATOM     41  C   UNL     1      88.409  43.424  43.447  0.00  0.00    -0.056 C 
ENDBRANCH  39  41
ENDBRANCH  38  39
ENDBRANCH  37  38
ENDBRANCH  36  37
ENDBRANCH  35  36
ENDBRANCH  34  35
ENDBRANCH  33  34
ENDBRANCH  32  33
ENDBRANCH  29  32
ENDBRANCH  28  31
ENDBRANCH  27  28
ENDBRANCH  24  27
ENDBRANCH  23  26
ENDBRANCH  22  23
ENDBRANCH   1  22
TORSDOF 29
ENDMDL
MODEL 8
REMARK VINA RESULT:    -7.463      1.903      7.240
REMARK INTER + INTRA:         -24.387
REMARK INTER:                 -20.115
REMARK INTRA:                  -4.272
REMARK UNBOUND:                -4.272
REMARK  Name = 
REMARK  31 active torsions:
REMARK  status: ('A' for Active; 'I' for Inactive)
REMARK    1  A    between atoms: C_1  and  C_2
REMARK    2  A    between atoms: C_2  and  C_3
REMARK    3  A    between atoms: C_3  and  C_4
REMARK    4  A    between atoms: C_4  and  C_5
REMARK    5  A    between atoms: C_5  and  C_6
REMARK    6  A    between atoms: C_6  and  C_7
REMARK    7  A    between atoms: C_7  and  C_8
REMARK    8  A    between atoms: C_8  and  C_9
REMARK    9  A    between atoms: C_9  and  C_10
REMARK   10  A    between atoms: C_10  and  C_11
REMARK   11  A    between atoms: C_13  and  C_14
REMARK   12  A    between atoms: C_14  and  C_15
REMARK   13  A    between atoms: C_15  and  C_16
REMARK   14  A    between atoms: C_18  and  C_19
REMARK   15  A    between atoms: C_19  and  C_20
REMARK   16  A    between atoms: C_20  and  C_21
REMARK   17  A    between atoms: C_21  and  C_22
REMARK   18  A    between atoms: C_22  and  C_23
REMARK   19  A    between atoms: C_23  and  C_24
REMARK   20  A    between atoms: C_24  and  C_25
REMARK   21  A    between atoms: C_25  and  C_26
REMARK   22  A    between atoms: C_26  and  C_27
REMARK   23  A    between atoms: C_27  and  C_28
REMARK   24  A    between atoms: C_28  and  C_29
REMARK   25  A    between atoms: C_29  and  C_30
REMARK   26  A    between atoms: C_30  and  C_31
REMARK   27  A    between atoms: C_31  and  C_32
REMARK   28  A    between atoms: C_32  and  C_33
REMARK   29  A    between atoms: C_33  and  C_34
REMARK   30  A    between atoms: C_34  and  C_35
REMARK   31  A    between atoms: C_37  and  C_41
REMARK                            x       y       z     vdW  Elec       q    Type
REMARK                         _______ _______ _______ _____ _____    ______ ____
ROOT
ATOM      1  C   UNL     1      85.485  57.544  44.172  0.00  0.00    -0.053 C 
ENDROOT
BRANCH   1   2
ATOM      2  C   UNL     1      85.194  58.069  45.590  0.00  0.00    -0.053 C 
BRANCH   2   3
ATOM      3  C   UNL     1      84.930  56.941  46.601  0.00  0.00    -0.053 C 
BRANCH   3   4
ATOM      4  C   UNL     1      83.498  56.369  46.596  0.00  0.00    -0.053 C 
BRANCH   4   5
ATOM      5  C   UNL     1      83.258  55.246  47.631  0.00  0.00    -0.053 C 
BRANCH   5   6
ATOM      6  C   UNL     1      84.396  55.063  48.658  0.00  0.00    -0.053 C 
BRANCH   6   7
ATOM      7  C   UNL     1      85.108  53.693  48.630  0.00  0.00    -0.053 C 
BRANCH   7   8
ATOM      8  C   UNL     1      84.819  52.826  47.390  0.00  0.00    -0.053 C 
BRANCH   8   9
ATOM      9  C   UNL     1      85.623  53.206  46.134  0.00  0.00    -0.053 C 
BRANCH   9  10
ATOM     10  C   UNL     1      87.029  52.586  46.113  0.00  0.00    -0.053 C 
BRANCH  10  11
ATOM     11  C   UNL     1      87.082  51.315  46.973  0.00  0.00    -0.053 C 
BRANCH  11  12
ATOM     12  C   UNL     1      87.686  50.110  46.229  0.00  0.00    -0.053 C 
BRANCH  12  13
ATOM     13  C   UNL     1      87.229  49.952  44.765  0.00  0.00    -0.049 C 
BRANCH  13  14
ATOM     14  C   UNL     1      88.327  49.469  43.806  0.00  0.00    -0.021 C 
BRANCH  14  15
ATOM     15  C   UNL     1      88.376  50.284  42.546  0.00  0.00    +0.036 C 
ATOM     16  C   UNL     1      88.611  51.588  42.476  0.00  0.00    -0.034 C 
ATOM     17  C   UNL     1      88.524  52.067  41.049  0.00  0.00    +0.120 C 
ATOM     18  O   UNL     1      88.214  50.882  40.317  0.00  0.00    -0.454 OA
ATOM     19  C   UNL     1      88.114  49.825  41.201  0.00  0.00    +0.336 C 
ATOM     20  O   UNL     1      87.827  48.647  40.863  0.00  0.00    -0.245 OA
ATOM     21  C   UNL     1      89.852  52.652  40.580  0.00  0.00    -0.024 C 
ENDBRANCH  14  15
ENDBRANCH  13  14
ENDBRANCH  12  13
ENDBRANCH  11  12
ENDBRANCH  10  11
ENDBRANCH   9  10
ENDBRANCH   8   9
ENDBRANCH   7   8
ENDBRANCH   6   7
ENDBRANCH   5   6
ENDBRANCH   4   5
ENDBRANCH   3   4
ENDBRANCH   2   3
ENDBRANCH   1   2
BRANCH   1  22
ATOM     22  C   UNL     1      86.502  56.388  44.167  0.00  0.00    -0.051 C 
BRANCH  22  23
ATOM     23  C   UNL     1      86.168  55.263  43.178  0.00  0.00    -0.024 C 
BRANCH  23  26
ATOM     24  C   UNL     1      84.304  54.393  41.634  0.00  0.00    +0.085 C 
ATOM     25  O   UNL     1      84.845  55.613  41.175  0.00  0.00    -0.368 OA
ATOM     26  C   UNL     1      84.776  55.448  42.571  0.00  0.00    +0.085 C 
BRANCH  24  27
ATOM     27  C   UNL     1      82.776  54.289  41.475  0.00  0.00    -0.022 C 
BRANCH  27  28
ATOM     28  C   UNL     1      82.254  52.848  41.355  0.00  0.00    -0.022 C 
BRANCH  28  31
ATOM     29  C   UNL     1      82.687  50.632  42.734  0.00  0.00    +0.085 C 
ATOM     30  O   UNL     1      83.054  51.813  43.413  0.00  0.00    -0.368 OA
ATOM     31  C   UNL     1      83.204  51.830  42.009  0.00  0.00    +0.085 C 
BRANCH  29  32
ATOM     32  C   UNL     1      81.181  50.360  42.852  0.00  0.00    -0.024 C 
BRANCH  32  33
ATOM     33  C   UNL     1      80.934  48.884  43.175  0.00  0.00    -0.051 C 
BRANCH  33  34
ATOM     34  C   UNL     1      82.161  48.031  42.828  0.00  0.00    -0.053 C 
BRANCH  34  35
ATOM     35  C   UNL     1      82.112  46.624  43.450  0.00  0.00    -0.053 C 
BRANCH  35  36
ATOM     36  C   UNL     1      83.480  46.034  43.852  0.00  0.00    -0.053 C 
BRANCH  36  37
ATOM     37  C   UNL     1      84.711  46.778  43.297  0.00  0.00    -0.053 C 
BRANCH  37  38
ATOM     38  C   UNL     1      86.040  46.078  43.630  0.00  0.00    -0.053 C 
BRANCH  38  39
ATOM     39  C   UNL     1      85.844  44.609  44.044  0.00  0.00    -0.053 C 
BRANCH  39  41
ATOM     40  C   UNL     1      87.856  44.445  42.527  0.00  0.00    -0.065 C 
ATOM     41  C   UNL     1      86.847  43.663  43.367  0.00  0.00    -0.056 C 
ENDBRANCH  39  41
ENDBRANCH  38  39
ENDBRANCH  37  38
ENDBRANCH  36  37
ENDBRANCH  35  36
ENDBRANCH  34  35
ENDBRANCH  33  34
ENDBRANCH  32  33
ENDBRANCH  29  32
ENDBRANCH  28  31
ENDBRANCH  27  28
ENDBRANCH  24  27
ENDBRANCH  23  26
ENDBRANCH  22  23
ENDBRANCH   1  22
TORSDOF 29
ENDMDL
MODEL 9
REMARK VINA RESULT:    -7.408      1.648      5.437
REMARK INTER + INTRA:         -24.240
REMARK INTER:                 -19.112
REMARK INTRA:                  -5.127
REMARK UNBOUND:                -4.272
REMARK  Name = 
REMARK  31 active torsions:
REMARK  status: ('A' for Active; 'I' for Inactive)
REMARK    1  A    between atoms: C_1  and  C_2
REMARK    2  A    between atoms: C_2  and  C_3
REMARK    3  A    between atoms: C_3  and  C_4
REMARK    4  A    between atoms: C_4  and  C_5
REMARK    5  A    between atoms: C_5  and  C_6
REMARK    6  A    between atoms: C_6  and  C_7
REMARK    7  A    between atoms: C_7  and  C_8
REMARK    8  A    between atoms: C_8  and  C_9
REMARK    9  A    between atoms: C_9  and  C_10
REMARK   10  A    between atoms: C_10  and  C_11
REMARK   11  A    between atoms: C_13  and  C_14
REMARK   12  A    between atoms: C_14  and  C_15
REMARK   13  A    between atoms: C_15  and  C_16
REMARK   14  A    between atoms: C_18  and  C_19
REMARK   15  A    between atoms: C_19  and  C_20
REMARK   16  A    between atoms: C_20  and  C_21
REMARK   17  A    between atoms: C_21  and  C_22
REMARK   18  A    between atoms: C_22  and  C_23
REMARK   19  A    between atoms: C_23  and  C_24
REMARK   20  A    between atoms: C_24  and  C_25
REMARK   21  A    between atoms: C_25  and  C_26
REMARK   22  A    between atoms: C_26  and  C_27
REMARK   23  A    between atoms: C_27  and  C_28
REMARK   24  A    between atoms: C_28  and  C_29
REMARK   25  A    between atoms: C_29  and  C_30
REMARK   26  A    between atoms: C_30  and  C_31
REMARK   27  A    between atoms: C_31  and  C_32
REMARK   28  A    between atoms: C_32  and  C_33
REMARK   29  A    between atoms: C_33  and  C_34
REMARK   30  A    between atoms: C_34  and  C_35
REMARK   31  A    between atoms: C_37  and  C_41
REMARK                            x       y       z     vdW  Elec       q    Type
REMARK                         _______ _______ _______ _____ _____    ______ ____
ROOT
ATOM      1  C   UNL     1      87.492  52.004  42.278  0.00  0.00    -0.053 C 
ENDROOT
BRANCH   1   2
ATOM      2  C   UNL     1      86.213  51.348  41.728  0.00  0.00    -0.053 C 
BRANCH   2   3
ATOM      3  C   UNL     1      84.973  51.648  42.588  0.00  0.00    -0.053 C 
BRANCH   3   4
ATOM      4  C   UNL     1      84.728  50.673  43.757  0.00  0.00    -0.053 C 
BRANCH   4   5
ATOM      5  C   UNL     1      85.560  49.371  43.684  0.00  0.00    -0.053 C 
BRANCH   5   6
ATOM      6  C   UNL     1      86.373  49.054  44.956  0.00  0.00    -0.053 C 
BRANCH   6   7
ATOM      7  C   UNL     1      87.641  49.909  45.170  0.00  0.00    -0.053 C 
BRANCH   7   8
ATOM      8  C   UNL     1      87.612  50.831  46.404  0.00  0.00    -0.053 C 
BRANCH   8   9
ATOM      9  C   UNL     1      87.037  52.236  46.148  0.00  0.00    -0.053 C 
BRANCH   9  10
ATOM     10  C   UNL     1      85.660  52.444  46.796  0.00  0.00    -0.053 C 
BRANCH  10  11
ATOM     11  C   UNL     1      85.802  52.915  48.251  0.00  0.00    -0.053 C 
BRANCH  11  12
ATOM     12  C   UNL     1      85.569  54.428  48.419  0.00  0.00    -0.053 C 
BRANCH  12  13
ATOM     13  C   UNL     1      84.888  55.120  47.222  0.00  0.00    -0.049 C 
BRANCH  13  14
ATOM     14  C   UNL     1      85.752  56.184  46.527  0.00  0.00    -0.021 C 
BRANCH  14  15
ATOM     15  C   UNL     1      85.466  56.271  45.056  0.00  0.00    +0.036 C 
ATOM     16  C   UNL     1      85.364  55.241  44.225  0.00  0.00    -0.034 C 
ATOM     17  C   UNL     1      85.129  55.720  42.814  0.00  0.00    +0.120 C 
ATOM     18  O   UNL     1      85.109  57.141  42.942  0.00  0.00    -0.454 OA
ATOM     19  C   UNL     1      85.320  57.472  44.267  0.00  0.00    +0.336 C 
ATOM     20  O   UNL     1      85.381  58.653  44.697  0.00  0.00    -0.245 OA
ATOM     21  C   UNL     1      83.796  55.214  42.273  0.00  0.00    -0.024 C 
ENDBRANCH  14  15
ENDBRANCH  13  14
ENDBRANCH  12  13
ENDBRANCH  11  12
ENDBRANCH  10  11
ENDBRANCH   9  10
ENDBRANCH   8   9
ENDBRANCH   7   8
ENDBRANCH   6   7
ENDBRANCH   5   6
ENDBRANCH   4   5
ENDBRANCH   3   4
ENDBRANCH   2   3
ENDBRANCH   1   2
BRANCH   1  22
ATOM     22  C   UNL     1      88.696  51.837  41.332  0.00  0.00    -0.051 C 
BRANCH  22  23
ATOM     23  C   UNL     1      89.907  51.147  41.974  0.00  0.00    -0.024 C 
BRANCH  23  26
ATOM     24  C   UNL     1      89.901  48.621  42.453  0.00  0.00    +0.085 C 
ATOM     25  O   UNL     1      91.176  49.081  42.060  0.00  0.00    -0.368 OA
ATOM     26  C   UNL     1      90.072  49.715  41.460  0.00  0.00    +0.085 C 
BRANCH  24  27
ATOM     27  C   UNL     1      89.524  47.249  41.862  0.00  0.00    -0.022 C 
BRANCH  27  28
ATOM     28  C   UNL     1      88.079  46.815  42.157  0.00  0.00    -0.022 C 
BRANCH  28  31
ATOM     29  C   UNL     1      86.911  44.524  42.780  0.00  0.00    +0.085 C 
ATOM     30  O   UNL     1      88.290  44.565  43.076  0.00  0.00    -0.368 OA
ATOM     31  C   UNL     1      87.872  45.304  41.946  0.00  0.00    +0.085 C 
BRANCH  29  32
ATOM     32  C   UNL     1      86.079  45.198  43.878  0.00  0.00    -0.024 C 
BRANCH  32  33
ATOM     33  C   UNL     1      84.585  44.997  43.609  0.00  0.00    -0.051 C 
BRANCH  33  34
ATOM     34  C   UNL     1      84.111  45.880  42.448  0.00  0.00    -0.053 C 
BRANCH  34  35
ATOM     35  C   UNL     1      82.958  46.821  42.838  0.00  0.00    -0.053 C 
BRANCH  35  36
ATOM     36  C   UNL     1      82.215  46.450  44.138  0.00  0.00    -0.053 C 
BRANCH  36  37
ATOM     37  C   UNL     1      80.710  46.778  44.158  0.00  0.00    -0.053 C 
BRANCH  37  38
ATOM     38  C   UNL     1      80.406  48.188  44.693  0.00  0.00    -0.053 C 
BRANCH  38  39
ATOM     39  C   UNL     1      79.305  48.899  43.888  0.00  0.00    -0.053 C 
BRANCH  39  41
ATOM     40  C   UNL     1      81.382  50.068  43.052  0.00  0.00    -0.065 C 
ATOM     41  C   UNL     1      79.863  49.954  42.921  0.00  0.00    -0.056 C 
ENDBRANCH  39  41
ENDBRANCH  38  39
ENDBRANCH  37  38
ENDBRANCH  36  37
ENDBRANCH  35  36
ENDBRANCH  34  35
ENDBRANCH  33  34
ENDBRANCH  32  33
ENDBRANCH  29  32
ENDBRANCH  28  31
ENDBRANCH  27  28
ENDBRANCH  24  27
ENDBRANCH  23  26
ENDBRANCH  22  23
ENDBRANCH   1  22
TORSDOF 29
ENDMDL
