MODEL 1
REMARK VINA RESULT:    -7.490      0.000      0.000
REMARK INTER + INTRA:         -25.374
REMARK INTER:                 -19.309
REMARK INTRA:                  -6.065
REMARK UNBOUND:                -5.187
REMARK  Name = 
REMARK  31 active torsions:
REMARK  status: ('A' for Active; 'I' for Inactive)
REMARK    1  A    between atoms: C_1  and  C_2
REMARK    2  A    between atoms: C_2  and  C_3
REMARK    3  A    between atoms: C_3  and  C_4
REMARK    4  A    between atoms: C_4  and  C_5
REMARK    5  A    between atoms: C_5  and  C_6
REMARK    6  A    between atoms: C_6  and  C_7
REMARK    7  A    between atoms: C_7  and  C_8
REMARK    8  A    between atoms: C_8  and  C_9
REMARK    9  A    between atoms: C_9  and  C_10
REMARK   10  A    between atoms: C_10  and  C_11
REMARK   11  A    between atoms: C_13  and  C_14
REMARK   12  A    between atoms: C_14  and  C_15
REMARK   13  A    between atoms: C_15  and  C_16
REMARK   14  A    between atoms: C_18  and  C_19
REMARK   15  A    between atoms: C_19  and  C_20
REMARK   16  A    between atoms: C_20  and  C_21
REMARK   17  A    between atoms: C_21  and  C_22
REMARK   18  A    between atoms: C_22  and  C_23
REMARK   19  A    between atoms: C_23  and  C_24
REMARK   20  A    between atoms: C_24  and  C_25
REMARK   21  A    between atoms: C_25  and  C_26
REMARK   22  A    between atoms: C_26  and  C_27
REMARK   23  A    between atoms: C_27  and  C_28
REMARK   24  A    between atoms: C_28  and  C_29
REMARK   25  A    between atoms: C_29  and  C_30
REMARK   26  A    between atoms: C_30  and  C_31
REMARK   27  A    between atoms: C_31  and  C_32
REMARK   28  A    between atoms: C_32  and  C_33
REMARK   29  A    between atoms: C_33  and  C_34
REMARK   30  A    between atoms: C_34  and  C_35
REMARK   31  A    between atoms: C_37  and  C_41
REMARK                            x       y       z     vdW  Elec       q    Type
REMARK                         _______ _______ _______ _____ _____    ______ ____
ROOT
ATOM      1  C   UNL     1      85.658  48.643  45.073  0.00  0.00    -0.053 C 
ENDROOT
BRANCH   1   2
ATOM      2  C   UNL     1      84.399  49.011  44.267  0.00  0.00    -0.053 C 
BRANCH   2   3
ATOM      3  C   UNL     1      84.411  50.469  43.776  0.00  0.00    -0.053 C 
BRANCH   3   4
ATOM      4  C   UNL     1      84.273  51.539  44.879  0.00  0.00    -0.053 C 
BRANCH   4   5
ATOM      5  C   UNL     1      84.760  52.947  44.462  0.00  0.00    -0.053 C 
BRANCH   5   6
ATOM      6  C   UNL     1      86.288  53.148  44.537  0.00  0.00    -0.053 C 
BRANCH   6   7
ATOM      7  C   UNL     1      87.000  53.375  43.187  0.00  0.00    -0.053 C 
BRANCH   7   8
ATOM      8  C   UNL     1      87.548  52.105  42.510  0.00  0.00    -0.053 C 
BRANCH   8   9
ATOM      9  C   UNL     1      88.875  52.297  41.753  0.00  0.00    -0.053 C 
BRANCH   9  10
ATOM     10  C   UNL     1      89.383  51.003  41.099  0.00  0.00    -0.053 C 
BRANCH  10  11
ATOM     11  C   UNL     1      89.392  49.844  42.107  0.00  0.00    -0.053 C 
BRANCH  11  12
ATOM     12  C   UNL     1      90.390  48.731  41.735  0.00  0.00    -0.053 C 
BRANCH  12  13
ATOM     13  C   UNL     1      89.820  47.301  41.784  0.00  0.00    -0.049 C 
BRANCH  13  14
ATOM     14  C   UNL     1      88.315  47.226  42.085  0.00  0.00    -0.021 C 
BRANCH  14  15
ATOM     15  C   UNL     1      87.907  45.874  42.596  0.00  0.00    +0.036 C 
ATOM     16  C   UNL     1      88.723  44.852  42.818  0.00  0.00    -0.034 C 
ATOM     17  C   UNL     1      87.945  43.642  43.272  0.00  0.00    +0.120 C 
ATOM     18  O   UNL     1      86.593  44.098  43.282  0.00  0.00    -0.454 OA
ATOM     19  C   UNL     1      86.564  45.417  42.870  0.00  0.00    +0.336 C 
ATOM     20  O   UNL     1      85.511  46.095  42.752  0.00  0.00    -0.245 OA
ATOM     21  C   UNL     1      88.371  43.203  44.669  0.00  0.00    -0.024 C 
ENDBRANCH  14  15
ENDBRANCH  13  14
ENDBRANCH  12  13
ENDBRANCH  11  12
ENDBRANCH  10  11
ENDBRANCH   9  10
ENDBRANCH   8   9
ENDBRANCH   7   8
ENDBRANCH   6   7
ENDBRANCH   5   6
ENDBRANCH   4   5
ENDBRANCH   3   4
ENDBRANCH   2   3
ENDBRANCH   1   2
BRANCH   1  22
ATOM     22  C   UNL     1      86.915  49.380  44.575  0.00  0.00    -0.051 C 
BRANCH  22  23
ATOM     23  C   UNL     1      87.801  49.939  45.697  0.00  0.00    -0.024 C 
BRANCH  23  26
ATOM     24  C   UNL     1      87.096  51.398  47.695  0.00  0.00    +0.085 C 
ATOM     25  O   UNL     1      87.884  50.299  48.095  0.00  0.00    -0.368 OA
ATOM     26  C   UNL     1      87.020  50.082  47.006  0.00  0.00    +0.085 C 
BRANCH  24  27
ATOM     27  C   UNL     1      85.928  51.710  48.650  0.00  0.00    -0.022 C 
BRANCH  27  28
ATOM     28  C   UNL     1      85.649  53.210  48.831  0.00  0.00    -0.022 C 
BRANCH  28  31
ATOM     29  C   UNL     1      84.413  55.014  47.340  0.00  0.00    +0.085 C 
ATOM     30  O   UNL     1      83.815  54.802  48.599  0.00  0.00    -0.368 OA
ATOM     31  C   UNL     1      84.436  53.679  48.008  0.00  0.00    +0.085 C 
BRANCH  29  32
ATOM     32  C   UNL     1      85.606  55.974  47.438  0.00  0.00    -0.024 C 
BRANCH  32  33
ATOM     33  C   UNL     1      85.629  56.914  46.229  0.00  0.00    -0.051 C 
BRANCH  33  34
ATOM     34  C   UNL     1      84.458  56.622  45.281  0.00  0.00    -0.053 C 
BRANCH  34  35
ATOM     35  C   UNL     1      84.865  56.634  43.798  0.00  0.00    -0.053 C 
BRANCH  35  36
ATOM     36  C   UNL     1      83.832  56.028  42.826  0.00  0.00    -0.053 C 
BRANCH  36  37
ATOM     37  C   UNL     1      84.399  55.527  41.483  0.00  0.00    -0.053 C 
BRANCH  37  38
ATOM     38  C   UNL     1      83.430  54.606  40.724  0.00  0.00    -0.053 C 
BRANCH  38  39
ATOM     39  C   UNL     1      83.457  53.160  41.249  0.00  0.00    -0.053 C 
BRANCH  39  41
ATOM     40  C   UNL     1      81.054  53.807  41.672  0.00  0.00    -0.065 C 
ATOM     41  C   UNL     1      82.083  52.680  41.741  0.00  0.00    -0.056 C 
ENDBRANCH  39  41
ENDBRANCH  38  39
ENDBRANCH  37  38
ENDBRANCH  36  37
ENDBRANCH  35  36
ENDBRANCH  34  35
ENDBRANCH  33  34
ENDBRANCH  32  33
ENDBRANCH  29  32
ENDBRANCH  28  31
ENDBRANCH  27  28
ENDBRANCH  24  27
ENDBRANCH  23  26
ENDBRANCH  22  23
ENDBRANCH   1  22
TORSDOF 29
ENDMDL
MODEL 2
REMARK VINA RESULT:    -7.366      2.149      8.993
REMARK INTER + INTRA:         -25.041
REMARK INTER:                 -20.044
REMARK INTRA:                  -4.997
REMARK UNBOUND:                -5.187
REMARK  Name = 
REMARK  31 active torsions:
REMARK  status: ('A' for Active; 'I' for Inactive)
REMARK    1  A    between atoms: C_1  and  C_2
REMARK    2  A    between atoms: C_2  and  C_3
REMARK    3  A    between atoms: C_3  and  C_4
REMARK    4  A    between atoms: C_4  and  C_5
REMARK    5  A    between atoms: C_5  and  C_6
REMARK    6  A    between atoms: C_6  and  C_7
REMARK    7  A    between atoms: C_7  and  C_8
REMARK    8  A    between atoms: C_8  and  C_9
REMARK    9  A    between atoms: C_9  and  C_10
REMARK   10  A    between atoms: C_10  and  C_11
REMARK   11  A    between atoms: C_13  and  C_14
REMARK   12  A    between atoms: C_14  and  C_15
REMARK   13  A    between atoms: C_15  and  C_16
REMARK   14  A    between atoms: C_18  and  C_19
REMARK   15  A    between atoms: C_19  and  C_20
REMARK   16  A    between atoms: C_20  and  C_21
REMARK   17  A    between atoms: C_21  and  C_22
REMARK   18  A    between atoms: C_22  and  C_23
REMARK   19  A    between atoms: C_23  and  C_24
REMARK   20  A    between atoms: C_24  and  C_25
REMARK   21  A    between atoms: C_25  and  C_26
REMARK   22  A    between atoms: C_26  and  C_27
REMARK   23  A    between atoms: C_27  and  C_28
REMARK   24  A    between atoms: C_28  and  C_29
REMARK   25  A    between atoms: C_29  and  C_30
REMARK   26  A    between atoms: C_30  and  C_31
REMARK   27  A    between atoms: C_31  and  C_32
REMARK   28  A    between atoms: C_32  and  C_33
REMARK   29  A    between atoms: C_33  and  C_34
REMARK   30  A    between atoms: C_34  and  C_35
REMARK   31  A    between atoms: C_37  and  C_41
REMARK                            x       y       z     vdW  Elec       q    Type
REMARK                         _______ _______ _______ _____ _____    ______ ____
ROOT
ATOM      1  C   UNL     1      80.012  49.278  43.569  0.00  0.00    -0.053 C 
ENDROOT
BRANCH   1   2
ATOM      2  C   UNL     1      80.349  50.595  42.849  0.00  0.00    -0.053 C 
BRANCH   2   3
ATOM      3  C   UNL     1      81.786  50.624  42.301  0.00  0.00    -0.053 C 
BRANCH   3   4
ATOM      4  C   UNL     1      82.552  51.944  42.521  0.00  0.00    -0.053 C 
BRANCH   4   5
ATOM      5  C   UNL     1      83.420  51.969  43.802  0.00  0.00    -0.053 C 
BRANCH   5   6
ATOM      6  C   UNL     1      84.225  50.678  44.059  0.00  0.00    -0.053 C 
BRANCH   6   7
ATOM      7  C   UNL     1      85.227  50.737  45.232  0.00  0.00    -0.053 C 
BRANCH   7   8
ATOM      8  C   UNL     1      85.197  52.038  46.058  0.00  0.00    -0.053 C 
BRANCH   8   9
ATOM      9  C   UNL     1      86.277  52.134  47.151  0.00  0.00    -0.053 C 
BRANCH   9  10
ATOM     10  C   UNL     1      85.711  52.563  48.514  0.00  0.00    -0.053 C 
BRANCH  10  11
ATOM     11  C   UNL     1      85.684  54.093  48.641  0.00  0.00    -0.053 C 
BRANCH  11  12
ATOM     12  C   UNL     1      84.258  54.673  48.612  0.00  0.00    -0.053 C 
BRANCH  12  13
ATOM     13  C   UNL     1      83.940  55.562  47.394  0.00  0.00    -0.049 C 
BRANCH  13  14
ATOM     14  C   UNL     1      85.163  56.263  46.782  0.00  0.00    -0.021 C 
BRANCH  14  15
ATOM     15  C   UNL     1      85.055  56.389  45.290  0.00  0.00    +0.036 C 
ATOM     16  C   UNL     1      85.037  55.381  44.427  0.00  0.00    -0.034 C 
ATOM     17  C   UNL     1      84.977  55.897  43.011  0.00  0.00    +0.120 C 
ATOM     18  O   UNL     1      84.963  57.315  43.172  0.00  0.00    -0.454 OA
ATOM     19  C   UNL     1      85.021  57.611  44.520  0.00  0.00    +0.336 C 
ATOM     20  O   UNL     1      85.048  58.780  44.985  0.00  0.00    -0.245 OA
ATOM     21  C   UNL     1      83.710  55.428  42.304  0.00  0.00    -0.024 C 
ENDBRANCH  14  15
ENDBRANCH  13  14
ENDBRANCH  12  13
ENDBRANCH  11  12
ENDBRANCH  10  11
ENDBRANCH   9  10
ENDBRANCH   8   9
ENDBRANCH   7   8
ENDBRANCH   6   7
ENDBRANCH   5   6
ENDBRANCH   4   5
ENDBRANCH   3   4
ENDBRANCH   2   3
ENDBRANCH   1   2
BRANCH   1  22
ATOM     22  C   UNL     1      81.261  48.573  44.129  0.00  0.00    -0.051 C 
BRANCH  22  23
ATOM     23  C   UNL     1      81.372  47.091  43.742  0.00  0.00    -0.024 C 
BRANCH  23  26
ATOM     24  C   UNL     1      83.521  45.748  44.181  0.00  0.00    +0.085 C 
ATOM     25  O   UNL     1      83.734  47.138  44.297  0.00  0.00    -0.368 OA
ATOM     26  C   UNL     1      82.800  46.729  43.327  0.00  0.00    +0.085 C 
BRANCH  24  27
ATOM     27  C   UNL     1      84.675  44.996  43.491  0.00  0.00    -0.022 C 
BRANCH  27  28
ATOM     28  C   UNL     1      85.981  44.972  44.300  0.00  0.00    -0.022 C 
BRANCH  28  31
ATOM     29  C   UNL     1      88.117  44.708  42.760  0.00  0.00    +0.085 C 
ATOM     30  O   UNL     1      86.947  44.134  42.222  0.00  0.00    -0.368 OA
ATOM     31  C   UNL     1      87.064  44.107  43.630  0.00  0.00    +0.085 C 
BRANCH  29  32
ATOM     32  C   UNL     1      88.171  46.220  42.504  0.00  0.00    -0.024 C 
BRANCH  32  33
ATOM     33  C   UNL     1      89.573  46.629  42.044  0.00  0.00    -0.051 C 
BRANCH  33  34
ATOM     34  C   UNL     1      90.363  47.274  43.191  0.00  0.00    -0.053 C 
BRANCH  34  35
ATOM     35  C   UNL     1      90.489  48.801  43.052  0.00  0.00    -0.053 C 
BRANCH  35  36
ATOM     36  C   UNL     1      90.365  49.344  41.613  0.00  0.00    -0.053 C 
BRANCH  36  37
ATOM     37  C   UNL     1      89.518  50.623  41.459  0.00  0.00    -0.053 C 
BRANCH  37  38
ATOM     38  C   UNL     1      88.183  50.558  42.220  0.00  0.00    -0.053 C 
BRANCH  38  39
ATOM     39  C   UNL     1      88.031  51.700  43.241  0.00  0.00    -0.053 C 
BRANCH  39  41
ATOM     40  C   UNL     1      86.379  52.391  41.462  0.00  0.00    -0.065 C 
ATOM     41  C   UNL     1      87.051  52.787  42.776  0.00  0.00    -0.056 C 
ENDBRANCH  39  41
ENDBRANCH  38  39
ENDBRANCH  37  38
ENDBRANCH  36  37
ENDBRANCH  35  36
ENDBRANCH  34  35
ENDBRANCH  33  34
ENDBRANCH  32  33
ENDBRANCH  29  32
ENDBRANCH  28  31
ENDBRANCH  27  28
ENDBRANCH  24  27
ENDBRANCH  23  26
ENDBRANCH  22  23
ENDBRANCH   1  22
TORSDOF 29
ENDMDL
MODEL 3
REMARK VINA RESULT:    -7.308      2.384      8.640
REMARK INTER + INTRA:         -24.884
REMARK INTER:                 -20.160
REMARK INTRA:                  -4.724
REMARK UNBOUND:                -5.187
REMARK  Name = 
REMARK  31 active torsions:
REMARK  status: ('A' for Active; 'I' for Inactive)
REMARK    1  A    between atoms: C_1  and  C_2
REMARK    2  A    between atoms: C_2  and  C_3
REMARK    3  A    between atoms: C_3  and  C_4
REMARK    4  A    between atoms: C_4  and  C_5
REMARK    5  A    between atoms: C_5  and  C_6
REMARK    6  A    between atoms: C_6  and  C_7
REMARK    7  A    between atoms: C_7  and  C_8
REMARK    8  A    between atoms: C_8  and  C_9
REMARK    9  A    between atoms: C_9  and  C_10
REMARK   10  A    between atoms: C_10  and  C_11
REMARK   11  A    between atoms: C_13  and  C_14
REMARK   12  A    between atoms: C_14  and  C_15
REMARK   13  A    between atoms: C_15  and  C_16
REMARK   14  A    between atoms: C_18  and  C_19
REMARK   15  A    between atoms: C_19  and  C_20
REMARK   16  A    between atoms: C_20  and  C_21
REMARK   17  A    between atoms: C_21  and  C_22
REMARK   18  A    between atoms: C_22  and  C_23
REMARK   19  A    between atoms: C_23  and  C_24
REMARK   20  A    between atoms: C_24  and  C_25
REMARK   21  A    between atoms: C_25  and  C_26
REMARK   22  A    between atoms: C_26  and  C_27
REMARK   23  A    between atoms: C_27  and  C_28
REMARK   24  A    between atoms: C_28  and  C_29
REMARK   25  A    between atoms: C_29  and  C_30
REMARK   26  A    between atoms: C_30  and  C_31
REMARK   27  A    between atoms: C_31  and  C_32
REMARK   28  A    between atoms: C_32  and  C_33
REMARK   29  A    between atoms: C_33  and  C_34
REMARK   30  A    between atoms: C_34  and  C_35
REMARK   31  A    between atoms: C_37  and  C_41
REMARK                            x       y       z     vdW  Elec       q    Type
REMARK                         _______ _______ _______ _____ _____    ______ ____
ROOT
ATOM      1  C   UNL     1      81.966  50.811  42.417  0.00  0.00    -0.053 C 
ENDROOT
BRANCH   1   2
ATOM      2  C   UNL     1      82.693  52.037  42.996  0.00  0.00    -0.053 C 
BRANCH   2   3
ATOM      3  C   UNL     1      84.089  51.697  43.547  0.00  0.00    -0.053 C 
BRANCH   3   4
ATOM      4  C   UNL     1      84.192  51.615  45.083  0.00  0.00    -0.053 C 
BRANCH   4   5
ATOM      5  C   UNL     1      84.671  52.921  45.758  0.00  0.00    -0.053 C 
BRANCH   5   6
ATOM      6  C   UNL     1      84.292  53.054  47.248  0.00  0.00    -0.053 C 
BRANCH   6   7
ATOM      7  C   UNL     1      84.941  54.234  48.002  0.00  0.00    -0.053 C 
BRANCH   7   8
ATOM      8  C   UNL     1      84.691  55.625  47.388  0.00  0.00    -0.053 C 
BRANCH   8   9
ATOM      9  C   UNL     1      85.961  56.381  46.960  0.00  0.00    -0.053 C 
BRANCH   9  10
ATOM     10  C   UNL     1      86.417  56.027  45.536  0.00  0.00    -0.053 C 
BRANCH  10  11
ATOM     11  C   UNL     1      86.087  57.161  44.555  0.00  0.00    -0.053 C 
BRANCH  11  12
ATOM     12  C   UNL     1      84.601  57.197  44.154  0.00  0.00    -0.053 C 
BRANCH  12  13
ATOM     13  C   UNL     1      84.051  55.881  43.570  0.00  0.00    -0.049 C 
BRANCH  13  14
ATOM     14  C   UNL     1      85.076  55.068  42.764  0.00  0.00    -0.021 C 
BRANCH  14  15
ATOM     15  C   UNL     1      84.657  54.890  41.333  0.00  0.00    +0.036 C 
ATOM     16  C   UNL     1      83.621  55.480  40.750  0.00  0.00    -0.034 C 
ATOM     17  C   UNL     1      83.479  55.014  39.323  0.00  0.00    +0.120 C 
ATOM     18  O   UNL     1      84.555  54.091  39.164  0.00  0.00    -0.454 OA
ATOM     19  C   UNL     1      85.249  54.005  40.356  0.00  0.00    +0.336 C 
ATOM     20  O   UNL     1      86.241  53.254  40.542  0.00  0.00    -0.245 OA
ATOM     21  C   UNL     1      83.623  56.175  38.345  0.00  0.00    -0.024 C 
ENDBRANCH  14  15
ENDBRANCH  13  14
ENDBRANCH  12  13
ENDBRANCH  11  12
ENDBRANCH  10  11
ENDBRANCH   9  10
ENDBRANCH   8   9
ENDBRANCH   7   8
ENDBRANCH   6   7
ENDBRANCH   5   6
ENDBRANCH   4   5
ENDBRANCH   3   4
ENDBRANCH   2   3
ENDBRANCH   1   2
BRANCH   1  22
ATOM     22  C   UNL     1      81.554  49.800  43.503  0.00  0.00    -0.051 C 
BRANCH  22  23
ATOM     23  C   UNL     1      81.767  48.332  43.106  0.00  0.00    -0.024 C 
BRANCH  23  26
ATOM     24  C   UNL     1      83.271  46.302  43.589  0.00  0.00    +0.085 C 
ATOM     25  O   UNL     1      82.310  46.501  44.603  0.00  0.00    -0.368 OA
ATOM     26  C   UNL     1      82.820  47.662  43.991  0.00  0.00    +0.085 C 
BRANCH  24  27
ATOM     27  C   UNL     1      84.656  45.885  44.116  0.00  0.00    -0.022 C 
BRANCH  27  28
ATOM     28  C   UNL     1      85.786  46.009  43.081  0.00  0.00    -0.022 C 
BRANCH  28  31
ATOM     29  C   UNL     1      88.276  45.174  42.760  0.00  0.00    +0.085 C 
ATOM     30  O   UNL     1      87.314  44.380  42.100  0.00  0.00    -0.368 OA
ATOM     31  C   UNL     1      86.903  44.977  43.313  0.00  0.00    +0.085 C 
BRANCH  29  32
ATOM     32  C   UNL     1      88.634  46.421  41.941  0.00  0.00    -0.024 C 
BRANCH  32  33
ATOM     33  C   UNL     1      89.923  47.051  42.474  0.00  0.00    -0.051 C 
BRANCH  33  34
ATOM     34  C   UNL     1      90.272  48.330  41.701  0.00  0.00    -0.053 C 
BRANCH  34  35
ATOM     35  C   UNL     1      90.111  49.607  42.544  0.00  0.00    -0.053 C 
BRANCH  35  36
ATOM     36  C   UNL     1      88.710  50.253  42.501  0.00  0.00    -0.053 C 
BRANCH  36  37
ATOM     37  C   UNL     1      88.038  50.467  43.871  0.00  0.00    -0.053 C 
BRANCH  37  38
ATOM     38  C   UNL     1      87.212  49.254  44.335  0.00  0.00    -0.053 C 
BRANCH  38  39
ATOM     39  C   UNL     1      86.766  49.372  45.803  0.00  0.00    -0.053 C 
BRANCH  39  41
ATOM     40  C   UNL     1      87.341  50.314  48.075  0.00  0.00    -0.065 C 
ATOM     41  C   UNL     1      87.518  50.474  46.565  0.00  0.00    -0.056 C 
ENDBRANCH  39  41
ENDBRANCH  38  39
ENDBRANCH  37  38
ENDBRANCH  36  37
ENDBRANCH  35  36
ENDBRANCH  34  35
ENDBRANCH  33  34
ENDBRANCH  32  33
ENDBRANCH  29  32
ENDBRANCH  28  31
ENDBRANCH  27  28
ENDBRANCH  24  27
ENDBRANCH  23  26
ENDBRANCH  22  23
ENDBRANCH   1  22
TORSDOF 29
ENDMDL
MODEL 4
REMARK VINA RESULT:    -7.178      2.238      6.621
REMARK INTER + INTRA:         -24.535
REMARK INTER:                 -19.284
REMARK INTRA:                  -5.250
REMARK UNBOUND:                -5.187
REMARK  Name = 
REMARK  31 active torsions:
REMARK  status: ('A' for Active; 'I' for Inactive)
REMARK    1  A    between atoms: C_1  and  C_2
REMARK    2  A    between atoms: C_2  and  C_3
REMARK    3  A    between atoms: C_3  and  C_4
REMARK    4  A    between atoms: C_4  and  C_5
REMARK    5  A    between atoms: C_5  and  C_6
REMARK    6  A    between atoms: C_6  and  C_7
REMARK    7  A    between atoms: C_7  and  C_8
REMARK    8  A    between atoms: C_8  and  C_9
REMARK    9  A    between atoms: C_9  and  C_10
REMARK   10  A    between atoms: C_10  and  C_11
REMARK   11  A    between atoms: C_13  and  C_14
REMARK   12  A    between atoms: C_14  and  C_15
REMARK   13  A    between atoms: C_15  and  C_16
REMARK   14  A    between atoms: C_18  and  C_19
REMARK   15  A    between atoms: C_19  and  C_20
REMARK   16  A    between atoms: C_20  and  C_21
REMARK   17  A    between atoms: C_21  and  C_22
REMARK   18  A    between atoms: C_22  and  C_23
REMARK   19  A    between atoms: C_23  and  C_24
REMARK   20  A    between atoms: C_24  and  C_25
REMARK   21  A    between atoms: C_25  and  C_26
REMARK   22  A    between atoms: C_26  and  C_27
REMARK   23  A    between atoms: C_27  and  C_28
REMARK   24  A    between atoms: C_28  and  C_29
REMARK   25  A    between atoms: C_29  and  C_30
REMARK   26  A    between atoms: C_30  and  C_31
REMARK   27  A    between atoms: C_31  and  C_32
REMARK   28  A    between atoms: C_32  and  C_33
REMARK   29  A    between atoms: C_33  and  C_34
REMARK   30  A    between atoms: C_34  and  C_35
REMARK   31  A    between atoms: C_37  and  C_41
REMARK                            x       y       z     vdW  Elec       q    Type
REMARK                         _______ _______ _______ _____ _____    ______ ____
ROOT
ATOM      1  C   UNL     1      88.687  51.618  42.389  0.00  0.00    -0.053 C 
ENDROOT
BRANCH   1   2
ATOM      2  C   UNL     1      88.807  50.862  41.054  0.00  0.00    -0.053 C 
BRANCH   2   3
ATOM      3  C   UNL     1      88.658  49.340  41.216  0.00  0.00    -0.053 C 
BRANCH   3   4
ATOM      4  C   UNL     1      89.674  48.673  42.165  0.00  0.00    -0.053 C 
BRANCH   4   5
ATOM      5  C   UNL     1      89.755  47.135  42.030  0.00  0.00    -0.053 C 
BRANCH   5   6
ATOM      6  C   UNL     1      88.464  46.385  42.418  0.00  0.00    -0.053 C 
BRANCH   6   7
ATOM      7  C   UNL     1      88.624  44.875  42.695  0.00  0.00    -0.053 C 
BRANCH   7   8
ATOM      8  C   UNL     1      87.310  44.071  42.741  0.00  0.00    -0.053 C 
BRANCH   8   9
ATOM      9  C   UNL     1      86.717  43.882  44.149  0.00  0.00    -0.053 C 
BRANCH   9  10
ATOM     10  C   UNL     1      85.303  44.466  44.285  0.00  0.00    -0.053 C 
BRANCH  10  11
ATOM     11  C   UNL     1      85.207  45.839  43.604  0.00  0.00    -0.053 C 
BRANCH  11  12
ATOM     12  C   UNL     1      85.656  46.996  44.516  0.00  0.00    -0.053 C 
BRANCH  12  13
ATOM     13  C   UNL     1      85.617  48.392  43.866  0.00  0.00    -0.049 C 
BRANCH  13  14
ATOM     14  C   UNL     1      84.918  49.468  44.713  0.00  0.00    -0.021 C 
BRANCH  14  15
ATOM     15  C   UNL     1      83.586  49.860  44.141  0.00  0.00    +0.036 C 
ATOM     16  C   UNL     1      83.274  51.055  43.655  0.00  0.00    -0.034 C 
ATOM     17  C   UNL     1      81.829  51.090  43.225  0.00  0.00    +0.120 C 
ATOM     18  O   UNL     1      81.358  49.777  43.523  0.00  0.00    -0.454 OA
ATOM     19  C   UNL     1      82.393  49.048  44.078  0.00  0.00    +0.336 C 
ATOM     20  O   UNL     1      82.286  47.857  44.469  0.00  0.00    -0.245 OA
ATOM     21  C   UNL     1      81.703  51.376  41.732  0.00  0.00    -0.024 C 
ENDBRANCH  14  15
ENDBRANCH  13  14
ENDBRANCH  12  13
ENDBRANCH  11  12
ENDBRANCH  10  11
ENDBRANCH   9  10
ENDBRANCH   8   9
ENDBRANCH   7   8
ENDBRANCH   6   7
ENDBRANCH   5   6
ENDBRANCH   4   5
ENDBRANCH   3   4
ENDBRANCH   2   3
ENDBRANCH   1   2
BRANCH   1  22
ATOM     22  C   UNL     1      87.226  51.768  42.854  0.00  0.00    -0.051 C 
BRANCH  22  23
ATOM     23  C   UNL     1      86.214  51.910  41.709  0.00  0.00    -0.024 C 
BRANCH  23  26
ATOM     24  C   UNL     1      84.549  53.862  41.537  0.00  0.00    +0.085 C 
ATOM     25  O   UNL     1      85.077  53.506  40.278  0.00  0.00    -0.368 OA
ATOM     26  C   UNL     1      85.947  53.380  41.378  0.00  0.00    +0.085 C 
BRANCH  24  27
ATOM     27  C   UNL     1      84.395  55.381  41.742  0.00  0.00    -0.022 C 
BRANCH  27  28
ATOM     28  C   UNL     1      84.303  55.809  43.216  0.00  0.00    -0.022 C 
BRANCH  28  31
ATOM     29  C   UNL     1      85.833  57.020  45.003  0.00  0.00    +0.085 C 
ATOM     30  O   UNL     1      85.995  57.502  43.687  0.00  0.00    -0.368 OA
ATOM     31  C   UNL     1      85.684  56.130  43.814  0.00  0.00    +0.085 C 
BRANCH  29  32
ATOM     32  C   UNL     1      84.612  57.648  45.686  0.00  0.00    -0.024 C 
BRANCH  32  33
ATOM     33  C   UNL     1      84.033  56.685  46.726  0.00  0.00    -0.051 C 
BRANCH  33  34
ATOM     34  C   UNL     1      85.143  56.081  47.596  0.00  0.00    -0.053 C 
BRANCH  34  35
ATOM     35  C   UNL     1      84.927  54.588  47.899  0.00  0.00    -0.053 C 
BRANCH  35  36
ATOM     36  C   UNL     1      84.245  53.780  46.776  0.00  0.00    -0.053 C 
BRANCH  36  37
ATOM     37  C   UNL     1      85.200  53.025  45.829  0.00  0.00    -0.053 C 
BRANCH  37  38
ATOM     38  C   UNL     1      86.681  53.181  46.216  0.00  0.00    -0.053 C 
BRANCH  38  39
ATOM     39  C   UNL     1      87.380  51.826  46.428  0.00  0.00    -0.053 C 
BRANCH  39  41
ATOM     40  C   UNL     1      87.859  49.924  48.018  0.00  0.00    -0.065 C 
ATOM     41  C   UNL     1      87.013  51.172  47.768  0.00  0.00    -0.056 C 
ENDBRANCH  39  41
ENDBRANCH  38  39
ENDBRANCH  37  38
ENDBRANCH  36  37
ENDBRANCH  35  36
ENDBRANCH  34  35
ENDBRANCH  33  34
ENDBRANCH  32  33
ENDBRANCH  29  32
ENDBRANCH  28  31
ENDBRANCH  27  28
ENDBRANCH  24  27
ENDBRANCH  23  26
ENDBRANCH  22  23
ENDBRANCH   1  22
TORSDOF 29
ENDMDL
MODEL 5
REMARK VINA RESULT:    -7.127      2.260      8.480
REMARK INTER + INTRA:         -24.397
REMARK INTER:                 -19.058
REMARK INTRA:                  -5.339
REMARK UNBOUND:                -5.187
REMARK  Name = 
REMARK  31 active torsions:
REMARK  status: ('A' for Active; 'I' for Inactive)
REMARK    1  A    between atoms: C_1  and  C_2
REMARK    2  A    between atoms: C_2  and  C_3
REMARK    3  A    between atoms: C_3  and  C_4
REMARK    4  A    between atoms: C_4  and  C_5
REMARK    5  A    between atoms: C_5  and  C_6
REMARK    6  A    between atoms: C_6  and  C_7
REMARK    7  A    between atoms: C_7  and  C_8
REMARK    8  A    between atoms: C_8  and  C_9
REMARK    9  A    between atoms: C_9  and  C_10
REMARK   10  A    between atoms: C_10  and  C_11
REMARK   11  A    between atoms: C_13  and  C_14
REMARK   12  A    between atoms: C_14  and  C_15
REMARK   13  A    between atoms: C_15  and  C_16
REMARK   14  A    between atoms: C_18  and  C_19
REMARK   15  A    between atoms: C_19  and  C_20
REMARK   16  A    between atoms: C_20  and  C_21
REMARK   17  A    between atoms: C_21  and  C_22
REMARK   18  A    between atoms: C_22  and  C_23
REMARK   19  A    between atoms: C_23  and  C_24
REMARK   20  A    between atoms: C_24  and  C_25
REMARK   21  A    between atoms: C_25  and  C_26
REMARK   22  A    between atoms: C_26  and  C_27
REMARK   23  A    between atoms: C_27  and  C_28
REMARK   24  A    between atoms: C_28  and  C_29
REMARK   25  A    between atoms: C_29  and  C_30
REMARK   26  A    between atoms: C_30  and  C_31
REMARK   27  A    between atoms: C_31  and  C_32
REMARK   28  A    between atoms: C_32  and  C_33
REMARK   29  A    between atoms: C_33  and  C_34
REMARK   30  A    between atoms: C_34  and  C_35
REMARK   31  A    between atoms: C_37  and  C_41
REMARK                            x       y       z     vdW  Elec       q    Type
REMARK                         _______ _______ _______ _____ _____    ______ ____
ROOT
ATOM      1  C   UNL     1      87.575  49.842  41.974  0.00  0.00    -0.053 C 
ENDROOT
BRANCH   1   2
ATOM      2  C   UNL     1      87.191  51.312  42.216  0.00  0.00    -0.053 C 
BRANCH   2   3
ATOM      3  C   UNL     1      87.676  51.839  43.578  0.00  0.00    -0.053 C 
BRANCH   3   4
ATOM      4  C   UNL     1      87.634  50.819  44.734  0.00  0.00    -0.053 C 
BRANCH   4   5
ATOM      5  C   UNL     1      87.651  51.455  46.143  0.00  0.00    -0.053 C 
BRANCH   5   6
ATOM      6  C   UNL     1      86.585  52.547  46.370  0.00  0.00    -0.053 C 
BRANCH   6   7
ATOM      7  C   UNL     1      85.660  52.336  47.589  0.00  0.00    -0.053 C 
BRANCH   7   8
ATOM      8  C   UNL     1      84.201  52.788  47.393  0.00  0.00    -0.053 C 
BRANCH   8   9
ATOM      9  C   UNL     1      83.556  53.443  48.628  0.00  0.00    -0.053 C 
BRANCH   9  10
ATOM     10  C   UNL     1      84.011  54.895  48.840  0.00  0.00    -0.053 C 
BRANCH  10  11
ATOM     11  C   UNL     1      83.379  55.828  47.796  0.00  0.00    -0.053 C 
BRANCH  11  12
ATOM     12  C   UNL     1      84.424  56.604  46.973  0.00  0.00    -0.053 C 
BRANCH  12  13
ATOM     13  C   UNL     1      85.785  55.900  46.817  0.00  0.00    -0.049 C 
BRANCH  13  14
ATOM     14  C   UNL     1      86.593  56.343  45.587  0.00  0.00    -0.021 C 
BRANCH  14  15
ATOM     15  C   UNL     1      85.835  56.135  44.308  0.00  0.00    +0.036 C 
ATOM     16  C   UNL     1      85.559  54.962  43.753  0.00  0.00    -0.034 C 
ATOM     17  C   UNL     1      84.833  55.152  42.445  0.00  0.00    +0.120 C 
ATOM     18  O   UNL     1      84.728  56.569  42.323  0.00  0.00    -0.454 OA
ATOM     19  C   UNL     1      85.331  57.157  43.419  0.00  0.00    +0.336 C 
ATOM     20  O   UNL     1      85.422  58.400  43.591  0.00  0.00    -0.245 OA
ATOM     21  C   UNL     1      83.448  54.515  42.484  0.00  0.00    -0.024 C 
ENDBRANCH  14  15
ENDBRANCH  13  14
ENDBRANCH  12  13
ENDBRANCH  11  12
ENDBRANCH  10  11
ENDBRANCH   9  10
ENDBRANCH   8   9
ENDBRANCH   7   8
ENDBRANCH   6   7
ENDBRANCH   5   6
ENDBRANCH   4   5
ENDBRANCH   3   4
ENDBRANCH   2   3
ENDBRANCH   1   2
BRANCH   1  22
ATOM     22  C   UNL     1      89.032  49.680  41.501  0.00  0.00    -0.051 C 
BRANCH  22  23
ATOM     23  C   UNL     1      89.689  48.361  41.931  0.00  0.00    -0.024 C 
BRANCH  23  26
ATOM     24  C   UNL     1      88.893  45.937  42.255  0.00  0.00    +0.085 C 
ATOM     25  O   UNL     1      87.988  46.691  41.478  0.00  0.00    -0.368 OA
ATOM     26  C   UNL     1      88.658  47.385  42.503  0.00  0.00    +0.085 C 
BRANCH  24  27
ATOM     27  C   UNL     1      88.213  44.979  43.251  0.00  0.00    -0.022 C 
BRANCH  27  28
ATOM     28  C   UNL     1      86.983  44.252  42.684  0.00  0.00    -0.022 C 
BRANCH  28  31
ATOM     29  C   UNL     1      84.766  45.084  43.864  0.00  0.00    +0.085 C 
ATOM     30  O   UNL     1      85.907  45.125  44.691  0.00  0.00    -0.368 OA
ATOM     31  C   UNL     1      85.869  44.088  43.733  0.00  0.00    +0.085 C 
BRANCH  29  32
ATOM     32  C   UNL     1      84.689  46.313  42.949  0.00  0.00    -0.024 C 
BRANCH  32  33
ATOM     33  C   UNL     1      83.913  47.438  43.638  0.00  0.00    -0.051 C 
BRANCH  33  34
ATOM     34  C   UNL     1      84.868  48.466  44.260  0.00  0.00    -0.053 C 
BRANCH  34  35
ATOM     35  C   UNL     1      84.171  49.784  44.641  0.00  0.00    -0.053 C 
BRANCH  35  36
ATOM     36  C   UNL     1      83.871  50.735  43.464  0.00  0.00    -0.053 C 
BRANCH  36  37
ATOM     37  C   UNL     1      82.429  51.274  43.399  0.00  0.00    -0.053 C 
BRANCH  37  38
ATOM     38  C   UNL     1      81.507  50.427  42.504  0.00  0.00    -0.053 C 
BRANCH  38  39
ATOM     39  C   UNL     1      80.159  50.113  43.178  0.00  0.00    -0.053 C 
BRANCH  39  41
ATOM     40  C   UNL     1      80.559  48.532  45.106  0.00  0.00    -0.065 C 
ATOM     41  C   UNL     1      80.064  48.659  43.666  0.00  0.00    -0.056 C 
ENDBRANCH  39  41
ENDBRANCH  38  39
ENDBRANCH  37  38
ENDBRANCH  36  37
ENDBRANCH  35  36
ENDBRANCH  34  35
ENDBRANCH  33  34
ENDBRANCH  32  33
ENDBRANCH  29  32
ENDBRANCH  28  31
ENDBRANCH  27  28
ENDBRANCH  24  27
ENDBRANCH  23  26
ENDBRANCH  22  23
ENDBRANCH   1  22
TORSDOF 29
ENDMDL
MODEL 6
REMARK VINA RESULT:    -7.125      2.219      5.358
REMARK INTER + INTRA:         -24.391
REMARK INTER:                 -19.202
REMARK INTRA:                  -5.190
REMARK UNBOUND:                -5.187
REMARK  Name = 
REMARK  31 active torsions:
REMARK  status: ('A' for Active; 'I' for Inactive)
REMARK    1  A    between atoms: C_1  and  C_2
REMARK    2  A    between atoms: C_2  and  C_3
REMARK    3  A    between atoms: C_3  and  C_4
REMARK    4  A    between atoms: C_4  and  C_5
REMARK    5  A    between atoms: C_5  and  C_6
REMARK    6  A    between atoms: C_6  and  C_7
REMARK    7  A    between atoms: C_7  and  C_8
REMARK    8  A    between atoms: C_8  and  C_9
REMARK    9  A    between atoms: C_9  and  C_10
REMARK   10  A    between atoms: C_10  and  C_11
REMARK   11  A    between atoms: C_13  and  C_14
REMARK   12  A    between atoms: C_14  and  C_15
REMARK   13  A    between atoms: C_15  and  C_16
REMARK   14  A    between atoms: C_18  and  C_19
REMARK   15  A    between atoms: C_19  and  C_20
REMARK   16  A    between atoms: C_20  and  C_21
REMARK   17  A    between atoms: C_21  and  C_22
REMARK   18  A    between atoms: C_22  and  C_23
REMARK   19  A    between atoms: C_23  and  C_24
REMARK   20  A    between atoms: C_24  and  C_25
REMARK   21  A    between atoms: C_25  and  C_26
REMARK   22  A    between atoms: C_26  and  C_27
REMARK   23  A    between atoms: C_27  and  C_28
REMARK   24  A    between atoms: C_28  and  C_29
REMARK   25  A    between atoms: C_29  and  C_30
REMARK   26  A    between atoms: C_30  and  C_31
REMARK   27  A    between atoms: C_31  and  C_32
REMARK   28  A    between atoms: C_32  and  C_33
REMARK   29  A    between atoms: C_33  and  C_34
REMARK   30  A    between atoms: C_34  and  C_35
REMARK   31  A    between atoms: C_37  and  C_41
REMARK                            x       y       z     vdW  Elec       q    Type
REMARK                         _______ _______ _______ _____ _____    ______ ____
ROOT
ATOM      1  C   UNL     1      86.411  52.620  46.953  0.00  0.00    -0.053 C 
ENDROOT
BRANCH   1   2
ATOM      2  C   UNL     1      86.139  51.414  46.036  0.00  0.00    -0.053 C 
BRANCH   2   3
ATOM      3  C   UNL     1      87.268  51.170  45.021  0.00  0.00    -0.053 C 
BRANCH   3   4
ATOM      4  C   UNL     1      87.598  49.690  44.741  0.00  0.00    -0.053 C 
BRANCH   4   5
ATOM      5  C   UNL     1      86.523  48.945  43.915  0.00  0.00    -0.053 C 
BRANCH   5   6
ATOM      6  C   UNL     1      85.643  47.974  44.729  0.00  0.00    -0.053 C 
BRANCH   6   7
ATOM      7  C   UNL     1      85.133  46.733  43.966  0.00  0.00    -0.053 C 
BRANCH   7   8
ATOM      8  C   UNL     1      85.258  45.397  44.723  0.00  0.00    -0.053 C 
BRANCH   8   9
ATOM      9  C   UNL     1      85.719  44.206  43.863  0.00  0.00    -0.053 C 
BRANCH   9  10
ATOM     10  C   UNL     1      86.999  43.544  44.396  0.00  0.00    -0.053 C 
BRANCH  10  11
ATOM     11  C   UNL     1      88.224  43.977  43.577  0.00  0.00    -0.053 C 
BRANCH  11  12
ATOM     12  C   UNL     1      87.848  44.675  42.257  0.00  0.00    -0.053 C 
BRANCH  12  13
ATOM     13  C   UNL     1      88.128  46.190  42.217  0.00  0.00    -0.049 C 
BRANCH  13  14
ATOM     14  C   UNL     1      89.612  46.566  42.352  0.00  0.00    -0.021 C 
BRANCH  14  15
ATOM     15  C   UNL     1      89.840  48.040  42.184  0.00  0.00    +0.036 C 
ATOM     16  C   UNL     1      89.286  48.808  41.254  0.00  0.00    -0.034 C 
ATOM     17  C   UNL     1      89.797  50.223  41.362  0.00  0.00    +0.120 C 
ATOM     18  O   UNL     1      90.703  50.168  42.463  0.00  0.00    -0.454 OA
ATOM     19  C   UNL     1      90.741  48.874  42.946  0.00  0.00    +0.336 C 
ATOM     20  O   UNL     1      91.467  48.500  43.903  0.00  0.00    -0.245 OA
ATOM     21  C   UNL     1      88.662  51.199  41.653  0.00  0.00    -0.024 C 
ENDBRANCH  14  15
ENDBRANCH  13  14
ENDBRANCH  12  13
ENDBRANCH  11  12
ENDBRANCH  10  11
ENDBRANCH   9  10
ENDBRANCH   8   9
ENDBRANCH   7   8
ENDBRANCH   6   7
ENDBRANCH   5   6
ENDBRANCH   4   5
ENDBRANCH   3   4
ENDBRANCH   2   3
ENDBRANCH   1   2
BRANCH   1  22
ATOM     22  C   UNL     1      85.737  52.480  48.331  0.00  0.00    -0.051 C 
BRANCH  22  23
ATOM     23  C   UNL     1      85.180  53.796  48.893  0.00  0.00    -0.024 C 
BRANCH  23  26
ATOM     24  C   UNL     1      84.105  55.979  48.060  0.00  0.00    +0.085 C 
ATOM     25  O   UNL     1      83.138  55.031  48.455  0.00  0.00    -0.368 OA
ATOM     26  C   UNL     1      84.308  54.518  47.864  0.00  0.00    +0.085 C 
BRANCH  24  27
ATOM     27  C   UNL     1      83.725  56.767  46.793  0.00  0.00    -0.022 C 
BRANCH  27  28
ATOM     28  C   UNL     1      84.798  57.766  46.330  0.00  0.00    -0.022 C 
BRANCH  28  31
ATOM     29  C   UNL     1      85.645  57.340  43.860  0.00  0.00    +0.085 C 
ATOM     30  O   UNL     1      85.916  58.637  44.344  0.00  0.00    -0.368 OA
ATOM     31  C   UNL     1      84.730  58.031  44.815  0.00  0.00    +0.085 C 
BRANCH  29  32
ATOM     32  C   UNL     1      86.689  56.327  44.347  0.00  0.00    -0.024 C 
BRANCH  32  33
ATOM     33  C   UNL     1      86.410  54.948  43.744  0.00  0.00    -0.051 C 
BRANCH  33  34
ATOM     34  C   UNL     1      85.056  54.404  44.216  0.00  0.00    -0.053 C 
BRANCH  34  35
ATOM     35  C   UNL     1      84.191  53.856  43.067  0.00  0.00    -0.053 C 
BRANCH  35  36
ATOM     36  C   UNL     1      84.503  52.406  42.642  0.00  0.00    -0.053 C 
BRANCH  36  37
ATOM     37  C   UNL     1      83.595  51.325  43.260  0.00  0.00    -0.053 C 
BRANCH  37  38
ATOM     38  C   UNL     1      82.254  51.169  42.523  0.00  0.00    -0.053 C 
BRANCH  38  39
ATOM     39  C   UNL     1      81.562  49.831  42.836  0.00  0.00    -0.053 C 
BRANCH  39  41
ATOM     40  C   UNL     1      81.508  47.762  44.283  0.00  0.00    -0.065 C 
ATOM     41  C   UNL     1      82.151  49.132  44.071  0.00  0.00    -0.056 C 
ENDBRANCH  39  41
ENDBRANCH  38  39
ENDBRANCH  37  38
ENDBRANCH  36  37
ENDBRANCH  35  36
ENDBRANCH  34  35
ENDBRANCH  33  34
ENDBRANCH  32  33
ENDBRANCH  29  32
ENDBRANCH  28  31
ENDBRANCH  27  28
ENDBRANCH  24  27
ENDBRANCH  23  26
ENDBRANCH  22  23
ENDBRANCH   1  22
TORSDOF 29
ENDMDL
MODEL 7
REMARK VINA RESULT:    -7.106      2.340      8.580
REMARK INTER + INTRA:         -24.340
REMARK INTER:                 -19.600
REMARK INTRA:                  -4.740
REMARK UNBOUND:                -5.187
REMARK  Name = 
REMARK  31 active torsions:
REMARK  status: ('A' for Active; 'I' for Inactive)
REMARK    1  A    between atoms: C_1  and  C_2
REMARK    2  A    between atoms: C_2  and  C_3
REMARK    3  A    between atoms: C_3  and  C_4
REMARK    4  A    between atoms: C_4  and  C_5
REMARK    5  A    between atoms: C_5  and  C_6
REMARK    6  A    between atoms: C_6  and  C_7
REMARK    7  A    between atoms: C_7  and  C_8
REMARK    8  A    between atoms: C_8  and  C_9
REMARK    9  A    between atoms: C_9  and  C_10
REMARK   10  A    between atoms: C_10  and  C_11
REMARK   11  A    between atoms: C_13  and  C_14
REMARK   12  A    between atoms: C_14  and  C_15
REMARK   13  A    between atoms: C_15  and  C_16
REMARK   14  A    between atoms: C_18  and  C_19
REMARK   15  A    between atoms: C_19  and  C_20
REMARK   16  A    between atoms: C_20  and  C_21
REMARK   17  A    between atoms: C_21  and  C_22
REMARK   18  A    between atoms: C_22  and  C_23
REMARK   19  A    between atoms: C_23  and  C_24
REMARK   20  A    between atoms: C_24  and  C_25
REMARK   21  A    between atoms: C_25  and  C_26
REMARK   22  A    between atoms: C_26  and  C_27
REMARK   23  A    between atoms: C_27  and  C_28
REMARK   24  A    between atoms: C_28  and  C_29
REMARK   25  A    between atoms: C_29  and  C_30
REMARK   26  A    between atoms: C_30  and  C_31
REMARK   27  A    between atoms: C_31  and  C_32
REMARK   28  A    between atoms: C_32  and  C_33
REMARK   29  A    between atoms: C_33  and  C_34
REMARK   30  A    between atoms: C_34  and  C_35
REMARK   31  A    between atoms: C_37  and  C_41
REMARK                            x       y       z     vdW  Elec       q    Type
REMARK                         _______ _______ _______ _____ _____    ______ ____
ROOT
ATOM      1  C   UNL     1      89.708  49.402  41.230  0.00  0.00    -0.053 C 
ENDROOT
BRANCH   1   2
ATOM      2  C   UNL     1      89.807  50.881  41.646  0.00  0.00    -0.053 C 
BRANCH   2   3
ATOM      3  C   UNL     1      88.523  51.398  42.316  0.00  0.00    -0.053 C 
BRANCH   3   4
ATOM      4  C   UNL     1      87.386  50.365  42.453  0.00  0.00    -0.053 C 
BRANCH   4   5
ATOM      5  C   UNL     1      87.086  49.941  43.910  0.00  0.00    -0.053 C 
BRANCH   5   6
ATOM      6  C   UNL     1      87.754  50.821  44.988  0.00  0.00    -0.053 C 
BRANCH   6   7
ATOM      7  C   UNL     1      86.807  51.756  45.770  0.00  0.00    -0.053 C 
BRANCH   7   8
ATOM      8  C   UNL     1      86.806  51.564  47.298  0.00  0.00    -0.053 C 
BRANCH   8   9
ATOM      9  C   UNL     1      85.679  52.303  48.043  0.00  0.00    -0.053 C 
BRANCH   9  10
ATOM     10  C   UNL     1      84.653  52.939  47.093  0.00  0.00    -0.053 C 
BRANCH  10  11
ATOM     11  C   UNL     1      83.987  54.161  47.743  0.00  0.00    -0.053 C 
BRANCH  11  12
ATOM     12  C   UNL     1      84.243  55.468  46.967  0.00  0.00    -0.053 C 
BRANCH  12  13
ATOM     13  C   UNL     1      85.592  56.150  47.266  0.00  0.00    -0.049 C 
BRANCH  13  14
ATOM     14  C   UNL     1      86.588  56.128  46.096  0.00  0.00    -0.021 C 
BRANCH  14  15
ATOM     15  C   UNL     1      85.900  56.239  44.766  0.00  0.00    +0.036 C 
ATOM     16  C   UNL     1      85.466  55.223  44.031  0.00  0.00    -0.034 C 
ATOM     17  C   UNL     1      84.882  55.720  42.733  0.00  0.00    +0.120 C 
ATOM     18  O   UNL     1      85.034  57.136  42.817  0.00  0.00    -0.454 OA
ATOM     19  C   UNL     1      85.648  57.448  44.015  0.00  0.00    +0.336 C 
ATOM     20  O   UNL     1      85.942  58.618  44.374  0.00  0.00    -0.245 OA
ATOM     21  C   UNL     1      83.408  55.349  42.611  0.00  0.00    -0.024 C 
ENDBRANCH  14  15
ENDBRANCH  13  14
ENDBRANCH  12  13
ENDBRANCH  11  12
ENDBRANCH  10  11
ENDBRANCH   9  10
ENDBRANCH   8   9
ENDBRANCH   7   8
ENDBRANCH   6   7
ENDBRANCH   5   6
ENDBRANCH   4   5
ENDBRANCH   3   4
ENDBRANCH   2   3
ENDBRANCH   1   2
BRANCH   1  22
ATOM     22  C   UNL     1      90.245  48.446  42.311  0.00  0.00    -0.051 C 
BRANCH  22  23
ATOM     23  C   UNL     1      89.966  46.963  42.032  0.00  0.00    -0.024 C 
BRANCH  23  26
ATOM     24  C   UNL     1      87.957  45.362  42.156  0.00  0.00    +0.085 C 
ATOM     25  O   UNL     1      87.553  46.707  42.018  0.00  0.00    -0.368 OA
ATOM     26  C   UNL     1      88.718  46.480  42.775  0.00  0.00    +0.085 C 
BRANCH  24  27
ATOM     27  C   UNL     1      87.082  44.545  43.126  0.00  0.00    -0.022 C 
BRANCH  27  28
ATOM     28  C   UNL     1      85.584  44.555  42.780  0.00  0.00    -0.022 C 
BRANCH  28  31
ATOM     29  C   UNL     1      83.613  45.621  44.187  0.00  0.00    +0.085 C 
ATOM     30  O   UNL     1      84.891  45.809  44.754  0.00  0.00    -0.368 OA
ATOM     31  C   UNL     1      84.698  44.607  44.037  0.00  0.00    +0.085 C 
BRANCH  29  32
ATOM     32  C   UNL     1      83.328  46.652  43.087  0.00  0.00    -0.024 C 
BRANCH  32  33
ATOM     33  C   UNL     1      81.857  47.073  43.123  0.00  0.00    -0.051 C 
BRANCH  33  34
ATOM     34  C   UNL     1      81.349  47.174  44.568  0.00  0.00    -0.053 C 
BRANCH  34  35
ATOM     35  C   UNL     1      80.442  48.394  44.804  0.00  0.00    -0.053 C 
BRANCH  35  36
ATOM     36  C   UNL     1      79.767  48.968  43.541  0.00  0.00    -0.053 C 
BRANCH  36  37
ATOM     37  C   UNL     1      80.177  50.405  43.165  0.00  0.00    -0.053 C 
BRANCH  37  38
ATOM     38  C   UNL     1      81.609  50.499  42.611  0.00  0.00    -0.053 C 
BRANCH  38  39
ATOM     39  C   UNL     1      82.276  51.850  42.929  0.00  0.00    -0.053 C 
BRANCH  39  41
ATOM     40  C   UNL     1      83.607  50.285  44.397  0.00  0.00    -0.065 C 
ATOM     41  C   UNL     1      83.499  51.707  43.847  0.00  0.00    -0.056 C 
ENDBRANCH  39  41
ENDBRANCH  38  39
ENDBRANCH  37  38
ENDBRANCH  36  37
ENDBRANCH  35  36
ENDBRANCH  34  35
ENDBRANCH  33  34
ENDBRANCH  32  33
ENDBRANCH  29  32
ENDBRANCH  28  31
ENDBRANCH  27  28
ENDBRANCH  24  27
ENDBRANCH  23  26
ENDBRANCH  22  23
ENDBRANCH   1  22
TORSDOF 29
ENDMDL
MODEL 8
REMARK VINA RESULT:    -7.099      2.065      8.871
REMARK INTER + INTRA:         -24.320
REMARK INTER:                 -19.935
REMARK INTRA:                  -4.385
REMARK UNBOUND:                -5.187
REMARK  Name = 
REMARK  31 active torsions:
REMARK  status: ('A' for Active; 'I' for Inactive)
REMARK    1  A    between atoms: C_1  and  C_2
REMARK    2  A    between atoms: C_2  and  C_3
REMARK    3  A    between atoms: C_3  and  C_4
REMARK    4  A    between atoms: C_4  and  C_5
REMARK    5  A    between atoms: C_5  and  C_6
REMARK    6  A    between atoms: C_6  and  C_7
REMARK    7  A    between atoms: C_7  and  C_8
REMARK    8  A    between atoms: C_8  and  C_9
REMARK    9  A    between atoms: C_9  and  C_10
REMARK   10  A    between atoms: C_10  and  C_11
REMARK   11  A    between atoms: C_13  and  C_14
REMARK   12  A    between atoms: C_14  and  C_15
REMARK   13  A    between atoms: C_15  and  C_16
REMARK   14  A    between atoms: C_18  and  C_19
REMARK   15  A    between atoms: C_19  and  C_20
REMARK   16  A    between atoms: C_20  and  C_21
REMARK   17  A    between atoms: C_21  and  C_22
REMARK   18  A    between atoms: C_22  and  C_23
REMARK   19  A    between atoms: C_23  and  C_24
REMARK   20  A    between atoms: C_24  and  C_25
REMARK   21  A    between atoms: C_25  and  C_26
REMARK   22  A    between atoms: C_26  and  C_27
REMARK   23  A    between atoms: C_27  and  C_28
REMARK   24  A    between atoms: C_28  and  C_29
REMARK   25  A    between atoms: C_29  and  C_30
REMARK   26  A    between atoms: C_30  and  C_31
REMARK   27  A    between atoms: C_31  and  C_32
REMARK   28  A    between atoms: C_32  and  C_33
REMARK   29  A    between atoms: C_33  and  C_34
REMARK   30  A    between atoms: C_34  and  C_35
REMARK   31  A    between atoms: C_37  and  C_41
REMARK                            x       y       z     vdW  Elec       q    Type
REMARK                         _______ _______ _______ _____ _____    ______ ____
ROOT
ATOM      1  C   UNL     1      85.164  50.118  44.343  0.00  0.00    -0.053 C 
ENDROOT
BRANCH   1   2
ATOM      2  C   UNL     1      85.729  49.594  45.676  0.00  0.00    -0.053 C 
BRANCH   2   3
ATOM      3  C   UNL     1      87.259  49.724  45.767  0.00  0.00    -0.053 C 
BRANCH   3   4
ATOM      4  C   UNL     1      87.776  51.061  46.336  0.00  0.00    -0.053 C 
BRANCH   4   5
ATOM      5  C   UNL     1      86.671  51.973  46.919  0.00  0.00    -0.053 C 
BRANCH   5   6
ATOM      6  C   UNL     1      86.266  51.645  48.372  0.00  0.00    -0.053 C 
BRANCH   6   7
ATOM      7  C   UNL     1      85.689  52.822  49.187  0.00  0.00    -0.053 C 
BRANCH   7   8
ATOM      8  C   UNL     1      84.151  52.914  49.213  0.00  0.00    -0.053 C 
BRANCH   8   9
ATOM      9  C   UNL     1      83.539  53.817  48.127  0.00  0.00    -0.053 C 
BRANCH   9  10
ATOM     10  C   UNL     1      83.615  55.311  48.479  0.00  0.00    -0.053 C 
BRANCH  10  11
ATOM     11  C   UNL     1      84.158  56.127  47.297  0.00  0.00    -0.053 C 
BRANCH  11  12
ATOM     12  C   UNL     1      85.688  56.021  47.146  0.00  0.00    -0.053 C 
BRANCH  12  13
ATOM     13  C   UNL     1      86.171  55.419  45.813  0.00  0.00    -0.049 C 
BRANCH  13  14
ATOM     14  C   UNL     1      85.138  54.527  45.107  0.00  0.00    -0.021 C 
BRANCH  14  15
ATOM     15  C   UNL     1      84.866  54.982  43.702  0.00  0.00    +0.036 C 
ATOM     16  C   UNL     1      84.746  54.192  42.642  0.00  0.00    -0.034 C 
ATOM     17  C   UNL     1      84.533  55.011  41.393  0.00  0.00    +0.120 C 
ATOM     18  O   UNL     1      84.544  56.356  41.868  0.00  0.00    -0.454 OA
ATOM     19  C   UNL     1      84.753  56.344  43.234  0.00  0.00    +0.336 C 
ATOM     20  O   UNL     1      84.837  57.381  43.943  0.00  0.00    -0.245 OA
ATOM     21  C   UNL     1      83.192  54.686  40.742  0.00  0.00    -0.024 C 
ENDBRANCH  14  15
ENDBRANCH  13  14
ENDBRANCH  12  13
ENDBRANCH  11  12
ENDBRANCH  10  11
ENDBRANCH   9  10
ENDBRANCH   8   9
ENDBRANCH   7   8
ENDBRANCH   6   7
ENDBRANCH   5   6
ENDBRANCH   4   5
ENDBRANCH   3   4
ENDBRANCH   2   3
ENDBRANCH   1   2
BRANCH   1  22
ATOM     22  C   UNL     1      83.898  50.974  44.533  0.00  0.00    -0.051 C 
BRANCH  22  23
ATOM     23  C   UNL     1      82.641  50.390  43.872  0.00  0.00    -0.024 C 
BRANCH  23  26
ATOM     24  C   UNL     1      82.404  47.924  43.183  0.00  0.00    +0.085 C 
ATOM     25  O   UNL     1      81.217  48.429  43.754  0.00  0.00    -0.368 OA
ATOM     26  C   UNL     1      82.424  48.930  44.277  0.00  0.00    +0.085 C 
BRANCH  24  27
ATOM     27  C   UNL     1      82.736  46.481  43.608  0.00  0.00    -0.022 C 
BRANCH  27  28
ATOM     28  C   UNL     1      84.142  46.014  43.199  0.00  0.00    -0.022 C 
BRANCH  28  31
ATOM     29  C   UNL     1      86.265  44.815  44.226  0.00  0.00    +0.085 C 
ATOM     30  O   UNL     1      85.057  44.118  44.432  0.00  0.00    -0.368 OA
ATOM     31  C   UNL     1      84.966  45.528  44.404  0.00  0.00    +0.085 C 
BRANCH  29  32
ATOM     32  C   UNL     1      86.841  44.544  42.830  0.00  0.00    -0.024 C 
BRANCH  32  33
ATOM     33  C   UNL     1      88.285  45.047  42.746  0.00  0.00    -0.051 C 
BRANCH  33  34
ATOM     34  C   UNL     1      88.347  46.438  42.102  0.00  0.00    -0.053 C 
BRANCH  34  35
ATOM     35  C   UNL     1      89.771  47.020  42.060  0.00  0.00    -0.053 C 
BRANCH  35  36
ATOM     36  C   UNL     1      90.055  48.142  43.080  0.00  0.00    -0.053 C 
BRANCH  36  37
ATOM     37  C   UNL     1      90.525  49.481  42.479  0.00  0.00    -0.053 C 
BRANCH  37  38
ATOM     38  C   UNL     1      89.439  50.185  41.649  0.00  0.00    -0.053 C 
BRANCH  38  39
ATOM     39  C   UNL     1      89.780  51.658  41.361  0.00  0.00    -0.053 C 
BRANCH  39  41
ATOM     40  C   UNL     1      87.858  52.120  42.933  0.00  0.00    -0.065 C 
ATOM     41  C   UNL     1      88.628  52.613  41.708  0.00  0.00    -0.056 C 
ENDBRANCH  39  41
ENDBRANCH  38  39
ENDBRANCH  37  38
ENDBRANCH  36  37
ENDBRANCH  35  36
ENDBRANCH  34  35
ENDBRANCH  33  34
ENDBRANCH  32  33
ENDBRANCH  29  32
ENDBRANCH  28  31
ENDBRANCH  27  28
ENDBRANCH  24  27
ENDBRANCH  23  26
ENDBRANCH  22  23
ENDBRANCH   1  22
TORSDOF 29
ENDMDL
MODEL 9
REMARK VINA RESULT:    -6.988      2.155      7.962
REMARK INTER + INTRA:         -24.021
REMARK INTER:                 -18.834
REMARK INTRA:                  -5.187
REMARK UNBOUND:                -5.187
REMARK  Name = 
REMARK  31 active torsions:
REMARK  status: ('A' for Active; 'I' for Inactive)
REMARK    1  A    between atoms: C_1  and  C_2
REMARK    2  A    between atoms: C_2  and  C_3
REMARK    3  A    between atoms: C_3  and  C_4
REMARK    4  A    between atoms: C_4  and  C_5
REMARK    5  A    between atoms: C_5  and  C_6
REMARK    6  A    between atoms: C_6  and  C_7
REMARK    7  A    between atoms: C_7  and  C_8
REMARK    8  A    between atoms: C_8  and  C_9
REMARK    9  A    between atoms: C_9  and  C_10
REMARK   10  A    between atoms: C_10  and  C_11
REMARK   11  A    between atoms: C_13  and  C_14
REMARK   12  A    between atoms: C_14  and  C_15
REMARK   13  A    between atoms: C_15  and  C_16
REMARK   14  A    between atoms: C_18  and  C_19
REMARK   15  A    between atoms: C_19  and  C_20
REMARK   16  A    between atoms: C_20  and  C_21
REMARK   17  A    between atoms: C_21  and  C_22
REMARK   18  A    between atoms: C_22  and  C_23
REMARK   19  A    between atoms: C_23  and  C_24
REMARK   20  A    between atoms: C_24  and  C_25
REMARK   21  A    between atoms: C_25  and  C_26
REMARK   22  A    between atoms: C_26  and  C_27
REMARK   23  A    between atoms: C_27  and  C_28
REMARK   24  A    between atoms: C_28  and  C_29
REMARK   25  A    between atoms: C_29  and  C_30
REMARK   26  A    between atoms: C_30  and  C_31
REMARK   27  A    between atoms: C_31  and  C_32
REMARK   28  A    between atoms: C_32  and  C_33
REMARK   29  A    between atoms: C_33  and  C_34
REMARK   30  A    between atoms: C_34  and  C_35
REMARK   31  A    between atoms: C_37  and  C_41
REMARK                            x       y       z     vdW  Elec       q    Type
REMARK                         _______ _______ _______ _____ _____    ______ ____
ROOT
ATOM      1  C   UNL     1      87.203  52.241  45.658  0.00  0.00    -0.053 C 
ENDROOT
BRANCH   1   2
ATOM      2  C   UNL     1      86.334  53.127  46.569  0.00  0.00    -0.053 C 
BRANCH   2   3
ATOM      3  C   UNL     1      85.052  52.420  47.041  0.00  0.00    -0.053 C 
BRANCH   3   4
ATOM      4  C   UNL     1      84.240  53.172  48.115  0.00  0.00    -0.053 C 
BRANCH   4   5
ATOM      5  C   UNL     1      84.709  54.624  48.365  0.00  0.00    -0.053 C 
BRANCH   5   6
ATOM      6  C   UNL     1      83.651  55.705  48.057  0.00  0.00    -0.053 C 
BRANCH   6   7
ATOM      7  C   UNL     1      84.041  56.733  46.974  0.00  0.00    -0.053 C 
BRANCH   7   8
ATOM      8  C   UNL     1      85.494  56.641  46.472  0.00  0.00    -0.053 C 
BRANCH   8   9
ATOM      9  C   UNL     1      85.661  56.764  44.946  0.00  0.00    -0.053 C 
BRANCH   9  10
ATOM     10  C   UNL     1      84.319  56.794  44.199  0.00  0.00    -0.053 C 
BRANCH  10  11
ATOM     11  C   UNL     1      84.423  56.063  42.852  0.00  0.00    -0.053 C 
BRANCH  11  12
ATOM     12  C   UNL     1      85.450  54.915  42.869  0.00  0.00    -0.053 C 
BRANCH  12  13
ATOM     13  C   UNL     1      84.862  53.511  42.635  0.00  0.00    -0.049 C 
BRANCH  13  14
ATOM     14  C   UNL     1      83.937  53.013  43.756  0.00  0.00    -0.021 C 
BRANCH  14  15
ATOM     15  C   UNL     1      82.989  51.952  43.278  0.00  0.00    +0.036 C 
ATOM     16  C   UNL     1      83.006  50.677  43.644  0.00  0.00    -0.034 C 
ATOM     17  C   UNL     1      81.939  49.902  42.913  0.00  0.00    +0.120 C 
ATOM     18  O   UNL     1      81.314  50.886  42.091  0.00  0.00    -0.454 OA
ATOM     19  C   UNL     1      81.941  52.100  42.295  0.00  0.00    +0.336 C 
ATOM     20  O   UNL     1      81.632  53.163  41.695  0.00  0.00    -0.245 OA
ATOM     21  C   UNL     1      80.929  49.299  43.884  0.00  0.00    -0.024 C 
ENDBRANCH  14  15
ENDBRANCH  13  14
ENDBRANCH  12  13
ENDBRANCH  11  12
ENDBRANCH  10  11
ENDBRANCH   9  10
ENDBRANCH   8   9
ENDBRANCH   7   8
ENDBRANCH   6   7
ENDBRANCH   5   6
ENDBRANCH   4   5
ENDBRANCH   3   4
ENDBRANCH   2   3
ENDBRANCH   1   2
BRANCH   1  22
ATOM     22  C   UNL     1      87.210  50.766  46.100  0.00  0.00    -0.051 C 
BRANCH  22  23
ATOM     23  C   UNL     1      87.514  49.773  44.969  0.00  0.00    -0.024 C 
BRANCH  23  26
ATOM     24  C   UNL     1      86.269  47.620  44.313  0.00  0.00    +0.085 C 
ATOM     25  O   UNL     1      86.449  48.484  43.211  0.00  0.00    -0.368 OA
ATOM     26  C   UNL     1      86.238  49.100  44.459  0.00  0.00    +0.085 C 
BRANCH  24  27
ATOM     27  C   UNL     1      84.895  46.926  44.343  0.00  0.00    -0.022 C 
BRANCH  27  28
ATOM     28  C   UNL     1      84.937  45.473  44.843  0.00  0.00    -0.022 C 
BRANCH  28  31
ATOM     29  C   UNL     1      85.665  43.812  42.916  0.00  0.00    +0.085 C 
ATOM     30  O   UNL     1      84.976  44.955  42.460  0.00  0.00    -0.368 OA
ATOM     31  C   UNL     1      84.598  44.465  43.730  0.00  0.00    +0.085 C 
BRANCH  29  32
ATOM     32  C   UNL     1      87.149  44.111  43.161  0.00  0.00    -0.024 C 
BRANCH  32  33
ATOM     33  C   UNL     1      87.651  45.157  42.162  0.00  0.00    -0.051 C 
BRANCH  33  34
ATOM     34  C   UNL     1      89.102  45.555  42.463  0.00  0.00    -0.053 C 
BRANCH  34  35
ATOM     35  C   UNL     1      89.434  46.995  42.035  0.00  0.00    -0.053 C 
BRANCH  35  36
ATOM     36  C   UNL     1      90.595  47.660  42.804  0.00  0.00    -0.053 C 
BRANCH  36  37
ATOM     37  C   UNL     1      90.576  49.201  42.829  0.00  0.00    -0.053 C 
BRANCH  37  38
ATOM     38  C   UNL     1      89.535  49.807  41.873  0.00  0.00    -0.053 C 
BRANCH  38  39
ATOM     39  C   UNL     1      89.751  51.314  41.645  0.00  0.00    -0.053 C 
BRANCH  39  41
ATOM     40  C   UNL     1      87.255  51.169  41.292  0.00  0.00    -0.065 C 
ATOM     41  C   UNL     1      88.434  52.100  41.577  0.00  0.00    -0.056 C 
ENDBRANCH  39  41
ENDBRANCH  38  39
ENDBRANCH  37  38
ENDBRANCH  36  37
ENDBRANCH  35  36
ENDBRANCH  34  35
ENDBRANCH  33  34
ENDBRANCH  32  33
ENDBRANCH  29  32
ENDBRANCH  28  31
ENDBRANCH  27  28
ENDBRANCH  24  27
ENDBRANCH  23  26
ENDBRANCH  22  23
ENDBRANCH   1  22
TORSDOF 29
ENDMDL
