MODEL 1
REMARK VINA RESULT:    -7.002      0.000      0.000
REMARK INTER + INTRA:         -23.990
REMARK INTER:                 -19.023
REMARK INTRA:                  -4.967
REMARK UNBOUND:                -5.527
REMARK  Name = 
REMARK  30 active torsions:
REMARK  status: ('A' for Active; 'I' for Inactive)
REMARK    1  A    between atoms: C_1  and  C_2
REMARK    2  A    between atoms: C_2  and  C_3
REMARK    3  A    between atoms: C_3  and  C_4
REMARK    4  A    between atoms: C_4  and  C_5
REMARK    5  A    between atoms: C_5  and  C_6
REMARK    6  A    between atoms: C_6  and  C_7
REMARK    7  A    between atoms: C_7  and  C_8
REMARK    8  A    between atoms: C_8  and  C_9
REMARK    9  A    between atoms: C_9  and  C_10
REMARK   10  A    between atoms: C_10  and  C_11
REMARK   11  A    between atoms: C_11  and  C_12
REMARK   12  A    between atoms: C_12  and  C_13
REMARK   13  A    between atoms: C_15  and  C_16
REMARK   14  A    between atoms: C_16  and  C_17
REMARK   15  A    between atoms: C_17  and  C_18
REMARK   16  A    between atoms: C_20  and  C_21
REMARK   17  A    between atoms: C_21  and  C_22
REMARK   18  A    between atoms: C_22  and  C_23
REMARK   19  A    between atoms: C_23  and  C_24
REMARK   20  A    between atoms: C_24  and  C_25
REMARK   21  A    between atoms: C_25  and  C_26
REMARK   22  A    between atoms: C_26  and  C_27
REMARK   23  A    between atoms: C_27  and  C_28
REMARK   24  A    between atoms: C_28  and  C_29
REMARK   25  A    between atoms: C_29  and  C_30
REMARK   26  A    between atoms: C_30  and  C_31
REMARK   27  A    between atoms: C_31  and  C_32
REMARK   28  A    between atoms: C_32  and  C_33
REMARK   29  A    between atoms: C_33  and  C_34
REMARK   30  A    between atoms: C_36  and  C_40
REMARK                            x       y       z     vdW  Elec       q    Type
REMARK                         _______ _______ _______ _____ _____    ______ ____
ROOT
ATOM      1  C   UNL     1      86.325  54.164  42.563  0.00  0.00    +0.085 C 
ATOM      2  O   UNL     1      85.721  55.436  42.489  0.00  0.00    -0.368 OA
ATOM      3  C   UNL     1      85.689  54.792  43.744  0.00  0.00    +0.085 C 
ENDROOT
BRANCH   3   4
ATOM      4  C   UNL     1      86.626  55.464  44.750  0.00  0.00    -0.024 C 
BRANCH   4   5
ATOM      5  C   UNL     1      86.069  55.306  46.170  0.00  0.00    -0.051 C 
BRANCH   5   6
ATOM      6  C   UNL     1      84.726  54.560  46.205  0.00  0.00    -0.053 C 
BRANCH   6   7
ATOM      7  C   UNL     1      84.607  53.617  47.413  0.00  0.00    -0.053 C 
BRANCH   7   8
ATOM      8  C   UNL     1      85.987  53.120  47.863  0.00  0.00    -0.053 C 
BRANCH   8   9
ATOM      9  C   UNL     1      85.915  51.668  48.351  0.00  0.00    -0.053 C 
BRANCH   9  10
ATOM     10  C   UNL     1      87.126  50.861  47.868  0.00  0.00    -0.053 C 
BRANCH  10  11
ATOM     11  C   UNL     1      87.473  51.216  46.414  0.00  0.00    -0.053 C 
BRANCH  11  12
ATOM     12  C   UNL     1      87.414  50.001  45.476  0.00  0.00    -0.053 C 
BRANCH  12  13
ATOM     13  C   UNL     1      86.084  49.908  44.714  0.00  0.00    -0.053 C 
BRANCH  13  14
ATOM     14  C   UNL     1      85.301  51.223  44.807  0.00  0.00    -0.053 C 
BRANCH  14  15
ATOM     15  C   UNL     1      83.883  51.058  44.241  0.00  0.00    -0.049 C 
BRANCH  15  16
ATOM     16  C   UNL     1      83.655  49.667  43.633  0.00  0.00    -0.021 C 
BRANCH  16  17
ATOM     17  C   UNL     1      82.196  49.337  43.517  0.00  0.00    +0.036 C 
ATOM     18  C   UNL     1      81.254  50.131  43.022  0.00  0.00    -0.034 C 
ATOM     19  C   UNL     1      79.921  49.427  43.011  0.00  0.00    +0.120 C 
ATOM     20  O   UNL     1      80.215  48.142  43.556  0.00  0.00    -0.454 OA
ATOM     21  C   UNL     1      81.563  48.081  43.849  0.00  0.00    +0.336 C 
ATOM     22  O   UNL     1      82.136  47.068  44.330  0.00  0.00    -0.245 OA
ATOM     23  C   UNL     1      78.902  50.155  43.882  0.00  0.00    -0.024 C 
ENDBRANCH  16  17
ENDBRANCH  15  16
ENDBRANCH  14  15
ENDBRANCH  13  14
ENDBRANCH  12  13
ENDBRANCH  11  12
ENDBRANCH  10  11
ENDBRANCH   9  10
ENDBRANCH   8   9
ENDBRANCH   7   8
ENDBRANCH   6   7
ENDBRANCH   5   6
ENDBRANCH   4   5
ENDBRANCH   3   4
BRANCH   1  24
ATOM     24  C   UNL     1      85.493  53.086  41.858  0.00  0.00    -0.022 C 
BRANCH  24  25
ATOM     25  C   UNL     1      86.374  51.955  41.317  0.00  0.00    -0.022 C 
BRANCH  25  28
ATOM     26  C   UNL     1      89.007  51.912  41.003  0.00  0.00    +0.085 C 
ATOM     27  O   UNL     1      88.272  51.485  39.879  0.00  0.00    -0.368 OA
ATOM     28  C   UNL     1      87.667  52.481  40.673  0.00  0.00    +0.085 C 
BRANCH  26  29
ATOM     29  C   UNL     1      89.141  50.822  42.079  0.00  0.00    -0.024 C 
BRANCH  29  30
ATOM     30  C   UNL     1      89.792  49.540  41.516  0.00  0.00    -0.051 C 
BRANCH  30  31
ATOM     31  C   UNL     1      90.990  49.041  42.345  0.00  0.00    -0.053 C 
BRANCH  31  32
ATOM     32  C   UNL     1      90.775  47.686  43.042  0.00  0.00    -0.053 C 
BRANCH  32  33
ATOM     33  C   UNL     1      90.309  46.543  42.118  0.00  0.00    -0.053 C 
BRANCH  33  34
ATOM     34  C   UNL     1      88.871  46.047  42.360  0.00  0.00    -0.053 C 
BRANCH  34  35
ATOM     35  C   UNL     1      88.805  44.553  42.720  0.00  0.00    -0.053 C 
BRANCH  35  36
ATOM     36  C   UNL     1      87.539  43.864  42.178  0.00  0.00    -0.053 C 
BRANCH  36  37
ATOM     37  C   UNL     1      86.281  44.034  43.048  0.00  0.00    -0.053 C 
BRANCH  37  38
ATOM     38  C   UNL     1      85.163  44.817  42.341  0.00  0.00    -0.053 C 
BRANCH  38  40
ATOM     39  C   UNL     1      85.548  46.456  44.222  0.00  0.00    -0.065 C 
ATOM     40  C   UNL     1      85.184  46.294  42.748  0.00  0.00    -0.056 C 
ENDBRANCH  38  40
ENDBRANCH  37  38
ENDBRANCH  36  37
ENDBRANCH  35  36
ENDBRANCH  34  35
ENDBRANCH  33  34
ENDBRANCH  32  33
ENDBRANCH  31  32
ENDBRANCH  30  31
ENDBRANCH  29  30
ENDBRANCH  26  29
ENDBRANCH  25  28
ENDBRANCH  24  25
ENDBRANCH   1  24
TORSDOF 28
ENDMDL
MODEL 2
REMARK VINA RESULT:    -6.999      1.645      6.798
REMARK INTER + INTRA:         -23.983
REMARK INTER:                 -19.308
REMARK INTRA:                  -4.675
REMARK UNBOUND:                -5.527
REMARK  Name = 
REMARK  30 active torsions:
REMARK  status: ('A' for Active; 'I' for Inactive)
REMARK    1  A    between atoms: C_1  and  C_2
REMARK    2  A    between atoms: C_2  and  C_3
REMARK    3  A    between atoms: C_3  and  C_4
REMARK    4  A    between atoms: C_4  and  C_5
REMARK    5  A    between atoms: C_5  and  C_6
REMARK    6  A    between atoms: C_6  and  C_7
REMARK    7  A    between atoms: C_7  and  C_8
REMARK    8  A    between atoms: C_8  and  C_9
REMARK    9  A    between atoms: C_9  and  C_10
REMARK   10  A    between atoms: C_10  and  C_11
REMARK   11  A    between atoms: C_11  and  C_12
REMARK   12  A    between atoms: C_12  and  C_13
REMARK   13  A    between atoms: C_15  and  C_16
REMARK   14  A    between atoms: C_16  and  C_17
REMARK   15  A    between atoms: C_17  and  C_18
REMARK   16  A    between atoms: C_20  and  C_21
REMARK   17  A    between atoms: C_21  and  C_22
REMARK   18  A    between atoms: C_22  and  C_23
REMARK   19  A    between atoms: C_23  and  C_24
REMARK   20  A    between atoms: C_24  and  C_25
REMARK   21  A    between atoms: C_25  and  C_26
REMARK   22  A    between atoms: C_26  and  C_27
REMARK   23  A    between atoms: C_27  and  C_28
REMARK   24  A    between atoms: C_28  and  C_29
REMARK   25  A    between atoms: C_29  and  C_30
REMARK   26  A    between atoms: C_30  and  C_31
REMARK   27  A    between atoms: C_31  and  C_32
REMARK   28  A    between atoms: C_32  and  C_33
REMARK   29  A    between atoms: C_33  and  C_34
REMARK   30  A    between atoms: C_36  and  C_40
REMARK                            x       y       z     vdW  Elec       q    Type
REMARK                         _______ _______ _______ _____ _____    ______ ____
ROOT
ATOM      1  C   UNL     1      81.460  49.905  42.699  0.00  0.00    +0.085 C 
ATOM      2  O   UNL     1      81.577  50.637  41.498  0.00  0.00    -0.368 OA
ATOM      3  C   UNL     1      82.101  51.240  42.662  0.00  0.00    +0.085 C 
ENDROOT
BRANCH   3   4
ATOM      4  C   UNL     1      83.631  51.265  42.648  0.00  0.00    -0.024 C 
BRANCH   4   5
ATOM      5  C   UNL     1      84.170  51.088  44.071  0.00  0.00    -0.051 C 
BRANCH   5   6
ATOM      6  C   UNL     1      84.833  49.718  44.292  0.00  0.00    -0.053 C 
BRANCH   6   7
ATOM      7  C   UNL     1      86.210  49.831  44.964  0.00  0.00    -0.053 C 
BRANCH   7   8
ATOM      8  C   UNL     1      86.780  51.247  44.818  0.00  0.00    -0.053 C 
BRANCH   8   9
ATOM      9  C   UNL     1      87.425  51.717  46.129  0.00  0.00    -0.053 C 
BRANCH   9  10
ATOM     10  C   UNL     1      86.969  50.852  47.310  0.00  0.00    -0.053 C 
BRANCH  10  11
ATOM     11  C   UNL     1      86.244  51.705  48.363  0.00  0.00    -0.053 C 
BRANCH  11  12
ATOM     12  C   UNL     1      85.229  52.677  47.741  0.00  0.00    -0.053 C 
BRANCH  12  13
ATOM     13  C   UNL     1      84.738  53.735  48.741  0.00  0.00    -0.053 C 
BRANCH  13  14
ATOM     14  C   UNL     1      84.707  55.128  48.101  0.00  0.00    -0.053 C 
BRANCH  14  15
ATOM     15  C   UNL     1      85.941  55.350  47.214  0.00  0.00    -0.049 C 
BRANCH  15  16
ATOM     16  C   UNL     1      85.774  56.550  46.272  0.00  0.00    -0.021 C 
BRANCH  16  17
ATOM     17  C   UNL     1      85.528  56.120  44.855  0.00  0.00    +0.036 C 
ATOM     18  C   UNL     1      85.229  54.891  44.454  0.00  0.00    -0.034 C 
ATOM     19  C   UNL     1      84.990  54.864  42.965  0.00  0.00    +0.120 C 
ATOM     20  O   UNL     1      85.186  56.219  42.568  0.00  0.00    -0.454 OA
ATOM     21  C   UNL     1      85.497  56.969  43.686  0.00  0.00    +0.336 C 
ATOM     22  O   UNL     1      85.712  58.209  43.666  0.00  0.00    -0.245 OA
ATOM     23  C   UNL     1      85.987  53.951  42.260  0.00  0.00    -0.024 C 
ENDBRANCH  16  17
ENDBRANCH  15  16
ENDBRANCH  14  15
ENDBRANCH  13  14
ENDBRANCH  12  13
ENDBRANCH  11  12
ENDBRANCH  10  11
ENDBRANCH   9  10
ENDBRANCH   8   9
ENDBRANCH   7   8
ENDBRANCH   6   7
ENDBRANCH   5   6
ENDBRANCH   4   5
ENDBRANCH   3   4
BRANCH   1  24
ATOM     24  C   UNL     1      80.019  49.876  43.222  0.00  0.00    -0.022 C 
BRANCH  24  25
ATOM     25  C   UNL     1      79.827  48.799  44.294  0.00  0.00    -0.022 C 
BRANCH  25  28
ATOM     26  C   UNL     1      80.440  46.264  43.816  0.00  0.00    +0.085 C 
ATOM     27  O   UNL     1      79.359  46.452  44.700  0.00  0.00    -0.368 OA
ATOM     28  C   UNL     1      79.509  47.423  43.687  0.00  0.00    +0.085 C 
BRANCH  26  29
ATOM     29  C   UNL     1      81.807  46.442  44.498  0.00  0.00    -0.024 C 
BRANCH  29  30
ATOM     30  C   UNL     1      82.970  46.312  43.491  0.00  0.00    -0.051 C 
BRANCH  30  31
ATOM     31  C   UNL     1      84.122  45.420  43.989  0.00  0.00    -0.053 C 
BRANCH  31  32
ATOM     32  C   UNL     1      85.532  45.981  43.734  0.00  0.00    -0.053 C 
BRANCH  32  33
ATOM     33  C   UNL     1      86.266  45.377  42.521  0.00  0.00    -0.053 C 
BRANCH  33  34
ATOM     34  C   UNL     1      87.708  45.874  42.311  0.00  0.00    -0.053 C 
BRANCH  34  35
ATOM     35  C   UNL     1      87.786  47.384  42.026  0.00  0.00    -0.053 C 
BRANCH  35  36
ATOM     36  C   UNL     1      89.192  47.965  42.262  0.00  0.00    -0.053 C 
BRANCH  36  37
ATOM     37  C   UNL     1      89.223  49.447  42.677  0.00  0.00    -0.053 C 
BRANCH  37  38
ATOM     38  C   UNL     1      89.975  50.335  41.672  0.00  0.00    -0.053 C 
BRANCH  38  40
ATOM     39  C   UNL     1      87.582  50.940  41.142  0.00  0.00    -0.065 C 
ATOM     40  C   UNL     1      89.017  50.909  40.622  0.00  0.00    -0.056 C 
ENDBRANCH  38  40
ENDBRANCH  37  38
ENDBRANCH  36  37
ENDBRANCH  35  36
ENDBRANCH  34  35
ENDBRANCH  33  34
ENDBRANCH  32  33
ENDBRANCH  31  32
ENDBRANCH  30  31
ENDBRANCH  29  30
ENDBRANCH  26  29
ENDBRANCH  25  28
ENDBRANCH  24  25
ENDBRANCH   1  24
TORSDOF 28
ENDMDL
MODEL 3
REMARK VINA RESULT:    -6.993      2.226      5.577
REMARK INTER + INTRA:         -23.966
REMARK INTER:                 -19.481
REMARK INTRA:                  -4.485
REMARK UNBOUND:                -5.527
REMARK  Name = 
REMARK  30 active torsions:
REMARK  status: ('A' for Active; 'I' for Inactive)
REMARK    1  A    between atoms: C_1  and  C_2
REMARK    2  A    between atoms: C_2  and  C_3
REMARK    3  A    between atoms: C_3  and  C_4
REMARK    4  A    between atoms: C_4  and  C_5
REMARK    5  A    between atoms: C_5  and  C_6
REMARK    6  A    between atoms: C_6  and  C_7
REMARK    7  A    between atoms: C_7  and  C_8
REMARK    8  A    between atoms: C_8  and  C_9
REMARK    9  A    between atoms: C_9  and  C_10
REMARK   10  A    between atoms: C_10  and  C_11
REMARK   11  A    between atoms: C_11  and  C_12
REMARK   12  A    between atoms: C_12  and  C_13
REMARK   13  A    between atoms: C_15  and  C_16
REMARK   14  A    between atoms: C_16  and  C_17
REMARK   15  A    between atoms: C_17  and  C_18
REMARK   16  A    between atoms: C_20  and  C_21
REMARK   17  A    between atoms: C_21  and  C_22
REMARK   18  A    between atoms: C_22  and  C_23
REMARK   19  A    between atoms: C_23  and  C_24
REMARK   20  A    between atoms: C_24  and  C_25
REMARK   21  A    between atoms: C_25  and  C_26
REMARK   22  A    between atoms: C_26  and  C_27
REMARK   23  A    between atoms: C_27  and  C_28
REMARK   24  A    between atoms: C_28  and  C_29
REMARK   25  A    between atoms: C_29  and  C_30
REMARK   26  A    between atoms: C_30  and  C_31
REMARK   27  A    between atoms: C_31  and  C_32
REMARK   28  A    between atoms: C_32  and  C_33
REMARK   29  A    between atoms: C_33  and  C_34
REMARK   30  A    between atoms: C_36  and  C_40
REMARK                            x       y       z     vdW  Elec       q    Type
REMARK                         _______ _______ _______ _____ _____    ______ ____
ROOT
ATOM      1  C   UNL     1      85.370  55.207  43.621  0.00  0.00    +0.085 C 
ATOM      2  O   UNL     1      86.762  55.146  43.397  0.00  0.00    -0.368 OA
ATOM      3  C   UNL     1      86.338  55.814  44.565  0.00  0.00    +0.085 C 
ENDROOT
BRANCH   3   4
ATOM      4  C   UNL     1      86.660  55.008  45.826  0.00  0.00    -0.024 C 
BRANCH   4   5
ATOM      5  C   UNL     1      86.321  55.832  47.074  0.00  0.00    -0.051 C 
BRANCH   5   6
ATOM      6  C   UNL     1      84.821  56.146  47.192  0.00  0.00    -0.053 C 
BRANCH   6   7
ATOM      7  C   UNL     1      83.986  54.907  47.551  0.00  0.00    -0.053 C 
BRANCH   7   8
ATOM      8  C   UNL     1      84.461  54.285  48.870  0.00  0.00    -0.053 C 
BRANCH   8   9
ATOM      9  C   UNL     1      84.298  52.759  48.847  0.00  0.00    -0.053 C 
BRANCH   9  10
ATOM     10  C   UNL     1      85.657  52.056  48.954  0.00  0.00    -0.053 C 
BRANCH  10  11
ATOM     11  C   UNL     1      86.245  51.792  47.560  0.00  0.00    -0.053 C 
BRANCH  11  12
ATOM     12  C   UNL     1      86.780  50.360  47.403  0.00  0.00    -0.053 C 
BRANCH  12  13
ATOM     13  C   UNL     1      86.706  49.859  45.953  0.00  0.00    -0.053 C 
BRANCH  13  14
ATOM     14  C   UNL     1      85.535  50.505  45.204  0.00  0.00    -0.053 C 
BRANCH  14  15
ATOM     15  C   UNL     1      86.025  51.237  43.946  0.00  0.00    -0.049 C 
BRANCH  15  16
ATOM     16  C   UNL     1      87.480  51.707  44.074  0.00  0.00    -0.021 C 
BRANCH  16  17
ATOM     17  C   UNL     1      88.351  51.142  42.990  0.00  0.00    +0.036 C 
ATOM     18  C   UNL     1      88.678  49.864  42.840  0.00  0.00    -0.034 C 
ATOM     19  C   UNL     1      89.513  49.675  41.599  0.00  0.00    +0.120 C 
ATOM     20  O   UNL     1      89.620  50.992  41.062  0.00  0.00    -0.454 OA
ATOM     21  C   UNL     1      88.926  51.863  41.878  0.00  0.00    +0.336 C 
ATOM     22  O   UNL     1      88.819  53.099  41.662  0.00  0.00    -0.245 OA
ATOM     23  C   UNL     1      90.894  49.123  41.938  0.00  0.00    -0.024 C 
ENDBRANCH  16  17
ENDBRANCH  15  16
ENDBRANCH  14  15
ENDBRANCH  13  14
ENDBRANCH  12  13
ENDBRANCH  11  12
ENDBRANCH  10  11
ENDBRANCH   9  10
ENDBRANCH   8   9
ENDBRANCH   7   8
ENDBRANCH   6   7
ENDBRANCH   5   6
ENDBRANCH   4   5
ENDBRANCH   3   4
BRANCH   1  24
ATOM     24  C   UNL     1      84.672  56.186  42.670  0.00  0.00    -0.022 C 
BRANCH  24  25
ATOM     25  C   UNL     1      84.014  55.459  41.492  0.00  0.00    -0.022 C 
BRANCH  25  28
ATOM     26  C   UNL     1      84.098  52.825  41.194  0.00  0.00    +0.085 C 
ATOM     27  O   UNL     1      84.167  53.557  39.991  0.00  0.00    -0.368 OA
ATOM     28  C   UNL     1      84.755  54.163  41.122  0.00  0.00    +0.085 C 
BRANCH  26  29
ATOM     29  C   UNL     1      82.663  52.696  41.732  0.00  0.00    -0.024 C 
BRANCH  29  30
ATOM     30  C   UNL     1      82.134  51.250  41.610  0.00  0.00    -0.051 C 
BRANCH  30  31
ATOM     31  C   UNL     1      82.384  50.394  42.865  0.00  0.00    -0.053 C 
BRANCH  31  32
ATOM     32  C   UNL     1      81.208  49.490  43.275  0.00  0.00    -0.053 C 
BRANCH  32  33
ATOM     33  C   UNL     1      81.599  48.229  44.072  0.00  0.00    -0.053 C 
BRANCH  33  34
ATOM     34  C   UNL     1      81.901  46.982  43.221  0.00  0.00    -0.053 C 
BRANCH  34  35
ATOM     35  C   UNL     1      83.393  46.837  42.878  0.00  0.00    -0.053 C 
BRANCH  35  36
ATOM     36  C   UNL     1      84.148  45.928  43.865  0.00  0.00    -0.053 C 
BRANCH  36  37
ATOM     37  C   UNL     1      85.682  46.045  43.817  0.00  0.00    -0.053 C 
BRANCH  37  38
ATOM     38  C   UNL     1      86.196  46.650  42.501  0.00  0.00    -0.053 C 
BRANCH  38  40
ATOM     39  C   UNL     1      87.962  44.862  42.263  0.00  0.00    -0.065 C 
ATOM     40  C   UNL     1      87.689  46.363  42.310  0.00  0.00    -0.056 C 
ENDBRANCH  38  40
ENDBRANCH  37  38
ENDBRANCH  36  37
ENDBRANCH  35  36
ENDBRANCH  34  35
ENDBRANCH  33  34
ENDBRANCH  32  33
ENDBRANCH  31  32
ENDBRANCH  30  31
ENDBRANCH  29  30
ENDBRANCH  26  29
ENDBRANCH  25  28
ENDBRANCH  24  25
ENDBRANCH   1  24
TORSDOF 28
ENDMDL
MODEL 4
REMARK VINA RESULT:    -6.991      1.981      5.241
REMARK INTER + INTRA:         -23.962
REMARK INTER:                 -18.794
REMARK INTRA:                  -5.168
REMARK UNBOUND:                -5.527
REMARK  Name = 
REMARK  30 active torsions:
REMARK  status: ('A' for Active; 'I' for Inactive)
REMARK    1  A    between atoms: C_1  and  C_2
REMARK    2  A    between atoms: C_2  and  C_3
REMARK    3  A    between atoms: C_3  and  C_4
REMARK    4  A    between atoms: C_4  and  C_5
REMARK    5  A    between atoms: C_5  and  C_6
REMARK    6  A    between atoms: C_6  and  C_7
REMARK    7  A    between atoms: C_7  and  C_8
REMARK    8  A    between atoms: C_8  and  C_9
REMARK    9  A    between atoms: C_9  and  C_10
REMARK   10  A    between atoms: C_10  and  C_11
REMARK   11  A    between atoms: C_11  and  C_12
REMARK   12  A    between atoms: C_12  and  C_13
REMARK   13  A    between atoms: C_15  and  C_16
REMARK   14  A    between atoms: C_16  and  C_17
REMARK   15  A    between atoms: C_17  and  C_18
REMARK   16  A    between atoms: C_20  and  C_21
REMARK   17  A    between atoms: C_21  and  C_22
REMARK   18  A    between atoms: C_22  and  C_23
REMARK   19  A    between atoms: C_23  and  C_24
REMARK   20  A    between atoms: C_24  and  C_25
REMARK   21  A    between atoms: C_25  and  C_26
REMARK   22  A    between atoms: C_26  and  C_27
REMARK   23  A    between atoms: C_27  and  C_28
REMARK   24  A    between atoms: C_28  and  C_29
REMARK   25  A    between atoms: C_29  and  C_30
REMARK   26  A    between atoms: C_30  and  C_31
REMARK   27  A    between atoms: C_31  and  C_32
REMARK   28  A    between atoms: C_32  and  C_33
REMARK   29  A    between atoms: C_33  and  C_34
REMARK   30  A    between atoms: C_36  and  C_40
REMARK                            x       y       z     vdW  Elec       q    Type
REMARK                         _______ _______ _______ _____ _____    ______ ____
ROOT
ATOM      1  C   UNL     1      85.604  49.170  44.758  0.00  0.00    +0.085 C 
ATOM      2  O   UNL     1      85.987  49.071  46.112  0.00  0.00    -0.368 OA
ATOM      3  C   UNL     1      86.488  50.176  45.391  0.00  0.00    +0.085 C 
ENDROOT
BRANCH   3   4
ATOM      4  C   UNL     1      85.830  51.486  45.832  0.00  0.00    -0.024 C 
BRANCH   4   5
ATOM      5  C   UNL     1      86.672  52.153  46.925  0.00  0.00    -0.051 C 
BRANCH   5   6
ATOM      6  C   UNL     1      86.234  51.753  48.343  0.00  0.00    -0.053 C 
BRANCH   6   7
ATOM      7  C   UNL     1      84.976  52.505  48.806  0.00  0.00    -0.053 C 
BRANCH   7   8
ATOM      8  C   UNL     1      85.213  54.020  48.823  0.00  0.00    -0.053 C 
BRANCH   8   9
ATOM      9  C   UNL     1      84.057  54.765  48.144  0.00  0.00    -0.053 C 
BRANCH   9  10
ATOM     10  C   UNL     1      84.531  55.488  46.878  0.00  0.00    -0.053 C 
BRANCH  10  11
ATOM     11  C   UNL     1      86.034  55.799  46.959  0.00  0.00    -0.053 C 
BRANCH  11  12
ATOM     12  C   UNL     1      86.767  55.530  45.636  0.00  0.00    -0.053 C 
BRANCH  12  13
ATOM     13  C   UNL     1      86.020  56.100  44.421  0.00  0.00    -0.053 C 
BRANCH  13  14
ATOM     14  C   UNL     1      86.039  55.113  43.248  0.00  0.00    -0.053 C 
BRANCH  14  15
ATOM     15  C   UNL     1      85.015  53.988  43.461  0.00  0.00    -0.049 C 
BRANCH  15  16
ATOM     16  C   UNL     1      84.562  53.353  42.140  0.00  0.00    -0.021 C 
BRANCH  16  17
ATOM     17  C   UNL     1      83.402  52.421  42.333  0.00  0.00    +0.036 C 
ATOM     18  C   UNL     1      83.394  51.337  43.100  0.00  0.00    -0.034 C 
ATOM     19  C   UNL     1      82.029  50.694  43.091  0.00  0.00    +0.120 C 
ATOM     20  O   UNL     1      81.265  51.538  42.233  0.00  0.00    -0.454 OA
ATOM     21  C   UNL     1      82.072  52.568  41.788  0.00  0.00    +0.336 C 
ATOM     22  O   UNL     1      81.683  53.490  41.025  0.00  0.00    -0.245 OA
ATOM     23  C   UNL     1      82.089  49.276  42.532  0.00  0.00    -0.024 C 
ENDBRANCH  16  17
ENDBRANCH  15  16
ENDBRANCH  14  15
ENDBRANCH  13  14
ENDBRANCH  12  13
ENDBRANCH  11  12
ENDBRANCH  10  11
ENDBRANCH   9  10
ENDBRANCH   8   9
ENDBRANCH   7   8
ENDBRANCH   6   7
ENDBRANCH   5   6
ENDBRANCH   4   5
ENDBRANCH   3   4
BRANCH   1  24
ATOM     24  C   UNL     1      86.309  48.130  43.879  0.00  0.00    -0.022 C 
BRANCH  24  25
ATOM     25  C   UNL     1      85.319  47.390  42.973  0.00  0.00    -0.022 C 
BRANCH  25  28
ATOM     26  C   UNL     1      84.848  44.883  43.696  0.00  0.00    +0.085 C 
ATOM     27  O   UNL     1      85.296  45.722  44.736  0.00  0.00    -0.368 OA
ATOM     28  C   UNL     1      84.506  46.335  43.740  0.00  0.00    +0.085 C 
BRANCH  26  29
ATOM     29  C   UNL     1      85.992  44.385  42.797  0.00  0.00    -0.024 C 
BRANCH  29  30
ATOM     30  C   UNL     1      87.340  44.359  43.548  0.00  0.00    -0.051 C 
BRANCH  30  31
ATOM     31  C   UNL     1      88.561  44.571  42.634  0.00  0.00    -0.053 C 
BRANCH  31  32
ATOM     32  C   UNL     1      88.763  46.018  42.150  0.00  0.00    -0.053 C 
BRANCH  32  33
ATOM     33  C   UNL     1      90.233  46.466  42.023  0.00  0.00    -0.053 C 
BRANCH  33  34
ATOM     34  C   UNL     1      90.797  47.219  43.242  0.00  0.00    -0.053 C 
BRANCH  34  35
ATOM     35  C   UNL     1      90.485  48.724  43.213  0.00  0.00    -0.053 C 
BRANCH  35  36
ATOM     36  C   UNL     1      90.842  49.383  41.868  0.00  0.00    -0.053 C 
BRANCH  36  37
ATOM     37  C   UNL     1      89.719  50.225  41.237  0.00  0.00    -0.053 C 
BRANCH  37  38
ATOM     38  C   UNL     1      88.466  50.315  42.122  0.00  0.00    -0.053 C 
BRANCH  38  40
ATOM     39  C   UNL     1      88.927  52.760  41.699  0.00  0.00    -0.065 C 
ATOM     40  C   UNL     1      88.241  51.748  42.614  0.00  0.00    -0.056 C 
ENDBRANCH  38  40
ENDBRANCH  37  38
ENDBRANCH  36  37
ENDBRANCH  35  36
ENDBRANCH  34  35
ENDBRANCH  33  34
ENDBRANCH  32  33
ENDBRANCH  31  32
ENDBRANCH  30  31
ENDBRANCH  29  30
ENDBRANCH  26  29
ENDBRANCH  25  28
ENDBRANCH  24  25
ENDBRANCH   1  24
TORSDOF 28
ENDMDL
MODEL 5
REMARK VINA RESULT:    -6.943      1.340      2.001
REMARK INTER + INTRA:         -23.836
REMARK INTER:                 -19.057
REMARK INTRA:                  -4.779
REMARK UNBOUND:                -5.527
REMARK  Name = 
REMARK  30 active torsions:
REMARK  status: ('A' for Active; 'I' for Inactive)
REMARK    1  A    between atoms: C_1  and  C_2
REMARK    2  A    between atoms: C_2  and  C_3
REMARK    3  A    between atoms: C_3  and  C_4
REMARK    4  A    between atoms: C_4  and  C_5
REMARK    5  A    between atoms: C_5  and  C_6
REMARK    6  A    between atoms: C_6  and  C_7
REMARK    7  A    between atoms: C_7  and  C_8
REMARK    8  A    between atoms: C_8  and  C_9
REMARK    9  A    between atoms: C_9  and  C_10
REMARK   10  A    between atoms: C_10  and  C_11
REMARK   11  A    between atoms: C_11  and  C_12
REMARK   12  A    between atoms: C_12  and  C_13
REMARK   13  A    between atoms: C_15  and  C_16
REMARK   14  A    between atoms: C_16  and  C_17
REMARK   15  A    between atoms: C_17  and  C_18
REMARK   16  A    between atoms: C_20  and  C_21
REMARK   17  A    between atoms: C_21  and  C_22
REMARK   18  A    between atoms: C_22  and  C_23
REMARK   19  A    between atoms: C_23  and  C_24
REMARK   20  A    between atoms: C_24  and  C_25
REMARK   21  A    between atoms: C_25  and  C_26
REMARK   22  A    between atoms: C_26  and  C_27
REMARK   23  A    between atoms: C_27  and  C_28
REMARK   24  A    between atoms: C_28  and  C_29
REMARK   25  A    between atoms: C_29  and  C_30
REMARK   26  A    between atoms: C_30  and  C_31
REMARK   27  A    between atoms: C_31  and  C_32
REMARK   28  A    between atoms: C_32  and  C_33
REMARK   29  A    between atoms: C_33  and  C_34
REMARK   30  A    between atoms: C_36  and  C_40
REMARK                            x       y       z     vdW  Elec       q    Type
REMARK                         _______ _______ _______ _____ _____    ______ ____
ROOT
ATOM      1  C   UNL     1      86.643  55.030  43.443  0.00  0.00    +0.085 C 
ATOM      2  O   UNL     1      85.857  56.180  43.669  0.00  0.00    -0.368 OA
ATOM      3  C   UNL     1      85.920  55.239  44.719  0.00  0.00    +0.085 C 
ENDROOT
BRANCH   3   4
ATOM      4  C   UNL     1      86.747  55.759  45.897  0.00  0.00    -0.024 C 
BRANCH   4   5
ATOM      5  C   UNL     1      85.827  56.084  47.080  0.00  0.00    -0.051 C 
BRANCH   5   6
ATOM      6  C   UNL     1      84.337  55.933  46.735  0.00  0.00    -0.053 C 
BRANCH   6   7
ATOM      7  C   UNL     1      83.584  55.051  47.744  0.00  0.00    -0.053 C 
BRANCH   7   8
ATOM      8  C   UNL     1      84.563  54.253  48.615  0.00  0.00    -0.053 C 
BRANCH   8   9
ATOM      9  C   UNL     1      84.641  52.792  48.156  0.00  0.00    -0.053 C 
BRANCH   9  10
ATOM     10  C   UNL     1      86.095  52.313  48.078  0.00  0.00    -0.053 C 
BRANCH  10  11
ATOM     11  C   UNL     1      86.498  52.029  46.623  0.00  0.00    -0.053 C 
BRANCH  11  12
ATOM     12  C   UNL     1      87.626  50.991  46.512  0.00  0.00    -0.053 C 
BRANCH  12  13
ATOM     13  C   UNL     1      87.485  50.098  45.270  0.00  0.00    -0.053 C 
BRANCH  13  14
ATOM     14  C   UNL     1      86.106  49.429  45.224  0.00  0.00    -0.053 C 
BRANCH  14  15
ATOM     15  C   UNL     1      85.283  49.951  44.037  0.00  0.00    -0.049 C 
BRANCH  15  16
ATOM     16  C   UNL     1      84.050  50.745  44.487  0.00  0.00    -0.021 C 
BRANCH  16  17
ATOM     17  C   UNL     1      83.123  51.039  43.343  0.00  0.00    +0.036 C 
ATOM     18  C   UNL     1      83.236  52.048  42.488  0.00  0.00    -0.034 C 
ATOM     19  C   UNL     1      82.156  51.975  41.438  0.00  0.00    +0.120 C 
ATOM     20  O   UNL     1      81.418  50.808  41.796  0.00  0.00    -0.454 OA
ATOM     21  C   UNL     1      81.993  50.245  42.919  0.00  0.00    +0.336 C 
ATOM     22  O   UNL     1      81.579  49.192  43.471  0.00  0.00    -0.245 OA
ATOM     23  C   UNL     1      81.259  53.208  41.480  0.00  0.00    -0.024 C 
ENDBRANCH  16  17
ENDBRANCH  15  16
ENDBRANCH  14  15
ENDBRANCH  13  14
ENDBRANCH  12  13
ENDBRANCH  11  12
ENDBRANCH  10  11
ENDBRANCH   9  10
ENDBRANCH   8   9
ENDBRANCH   7   8
ENDBRANCH   6   7
ENDBRANCH   5   6
ENDBRANCH   4   5
ENDBRANCH   3   4
BRANCH   1  24
ATOM     24  C   UNL     1      85.980  54.060  42.458  0.00  0.00    -0.022 C 
BRANCH  24  25
ATOM     25  C   UNL     1      86.785  52.765  42.310  0.00  0.00    -0.022 C 
BRANCH  25  28
ATOM     26  C   UNL     1      88.449  51.920  40.426  0.00  0.00    +0.085 C 
ATOM     27  O   UNL     1      87.350  51.071  40.666  0.00  0.00    -0.368 OA
ATOM     28  C   UNL     1      87.118  52.451  40.842  0.00  0.00    +0.085 C 
BRANCH  26  29
ATOM     29  C   UNL     1      89.572  51.750  41.463  0.00  0.00    -0.024 C 
BRANCH  29  30
ATOM     30  C   UNL     1      89.471  50.396  42.198  0.00  0.00    -0.051 C 
BRANCH  30  31
ATOM     31  C   UNL     1      90.614  49.422  41.858  0.00  0.00    -0.053 C 
BRANCH  31  32
ATOM     32  C   UNL     1      91.217  48.684  43.066  0.00  0.00    -0.053 C 
BRANCH  32  33
ATOM     33  C   UNL     1      90.865  47.186  43.160  0.00  0.00    -0.053 C 
BRANCH  33  34
ATOM     34  C   UNL     1      90.067  46.623  41.971  0.00  0.00    -0.053 C 
BRANCH  34  35
ATOM     35  C   UNL     1      88.671  46.117  42.372  0.00  0.00    -0.053 C 
BRANCH  35  36
ATOM     36  C   UNL     1      87.576  47.185  42.198  0.00  0.00    -0.053 C 
BRANCH  36  37
ATOM     37  C   UNL     1      86.141  46.698  42.469  0.00  0.00    -0.053 C 
BRANCH  37  38
ATOM     38  C   UNL     1      85.982  46.039  43.849  0.00  0.00    -0.053 C 
BRANCH  38  40
ATOM     39  C   UNL     1      85.209  44.238  42.257  0.00  0.00    -0.065 C 
ATOM     40  C   UNL     1      85.385  44.633  43.721  0.00  0.00    -0.056 C 
ENDBRANCH  38  40
ENDBRANCH  37  38
ENDBRANCH  36  37
ENDBRANCH  35  36
ENDBRANCH  34  35
ENDBRANCH  33  34
ENDBRANCH  32  33
ENDBRANCH  31  32
ENDBRANCH  30  31
ENDBRANCH  29  30
ENDBRANCH  26  29
ENDBRANCH  25  28
ENDBRANCH  24  25
ENDBRANCH   1  24
TORSDOF 28
ENDMDL
MODEL 6
REMARK VINA RESULT:    -6.937      2.096      5.817
REMARK INTER + INTRA:         -23.819
REMARK INTER:                 -19.221
REMARK INTRA:                  -4.598
REMARK UNBOUND:                -5.527
REMARK  Name = 
REMARK  30 active torsions:
REMARK  status: ('A' for Active; 'I' for Inactive)
REMARK    1  A    between atoms: C_1  and  C_2
REMARK    2  A    between atoms: C_2  and  C_3
REMARK    3  A    between atoms: C_3  and  C_4
REMARK    4  A    between atoms: C_4  and  C_5
REMARK    5  A    between atoms: C_5  and  C_6
REMARK    6  A    between atoms: C_6  and  C_7
REMARK    7  A    between atoms: C_7  and  C_8
REMARK    8  A    between atoms: C_8  and  C_9
REMARK    9  A    between atoms: C_9  and  C_10
REMARK   10  A    between atoms: C_10  and  C_11
REMARK   11  A    between atoms: C_11  and  C_12
REMARK   12  A    between atoms: C_12  and  C_13
REMARK   13  A    between atoms: C_15  and  C_16
REMARK   14  A    between atoms: C_16  and  C_17
REMARK   15  A    between atoms: C_17  and  C_18
REMARK   16  A    between atoms: C_20  and  C_21
REMARK   17  A    between atoms: C_21  and  C_22
REMARK   18  A    between atoms: C_22  and  C_23
REMARK   19  A    between atoms: C_23  and  C_24
REMARK   20  A    between atoms: C_24  and  C_25
REMARK   21  A    between atoms: C_25  and  C_26
REMARK   22  A    between atoms: C_26  and  C_27
REMARK   23  A    between atoms: C_27  and  C_28
REMARK   24  A    between atoms: C_28  and  C_29
REMARK   25  A    between atoms: C_29  and  C_30
REMARK   26  A    between atoms: C_30  and  C_31
REMARK   27  A    between atoms: C_31  and  C_32
REMARK   28  A    between atoms: C_32  and  C_33
REMARK   29  A    between atoms: C_33  and  C_34
REMARK   30  A    between atoms: C_36  and  C_40
REMARK                            x       y       z     vdW  Elec       q    Type
REMARK                         _______ _______ _______ _____ _____    ______ ____
ROOT
ATOM      1  C   UNL     1      85.628  48.389  43.618  0.00  0.00    +0.085 C 
ATOM      2  O   UNL     1      86.006  49.424  42.736  0.00  0.00    -0.368 OA
ATOM      3  C   UNL     1      86.042  49.722  44.115  0.00  0.00    +0.085 C 
ENDROOT
BRANCH   3   4
ATOM      4  C   UNL     1      87.477  49.845  44.631  0.00  0.00    -0.024 C 
BRANCH   4   5
ATOM      5  C   UNL     1      87.850  51.322  44.797  0.00  0.00    -0.051 C 
BRANCH   5   6
ATOM      6  C   UNL     1      87.497  51.875  46.187  0.00  0.00    -0.053 C 
BRANCH   6   7
ATOM      7  C   UNL     1      87.280  50.764  47.225  0.00  0.00    -0.053 C 
BRANCH   7   8
ATOM      8  C   UNL     1      86.570  51.306  48.472  0.00  0.00    -0.053 C 
BRANCH   8   9
ATOM      9  C   UNL     1      85.431  52.258  48.085  0.00  0.00    -0.053 C 
BRANCH   9  10
ATOM     10  C   UNL     1      85.578  53.612  48.789  0.00  0.00    -0.053 C 
BRANCH  10  11
ATOM     11  C   UNL     1      84.394  54.532  48.453  0.00  0.00    -0.053 C 
BRANCH  11  12
ATOM     12  C   UNL     1      84.783  55.673  47.500  0.00  0.00    -0.053 C 
BRANCH  12  13
ATOM     13  C   UNL     1      86.235  55.564  47.010  0.00  0.00    -0.053 C 
BRANCH  13  14
ATOM     14  C   UNL     1      86.291  55.364  45.491  0.00  0.00    -0.053 C 
BRANCH  14  15
ATOM     15  C   UNL     1      84.911  54.979  44.938  0.00  0.00    -0.049 C 
BRANCH  15  16
ATOM     16  C   UNL     1      84.791  53.473  44.667  0.00  0.00    -0.021 C 
BRANCH  16  17
ATOM     17  C   UNL     1      84.669  53.174  43.201  0.00  0.00    +0.036 C 
ATOM     18  C   UNL     1      85.441  53.666  42.239  0.00  0.00    -0.034 C 
ATOM     19  C   UNL     1      85.055  53.084  40.902  0.00  0.00    +0.120 C 
ATOM     20  O   UNL     1      83.977  52.205  41.217  0.00  0.00    -0.454 OA
ATOM     21  C   UNL     1      83.750  52.248  42.579  0.00  0.00    +0.336 C 
ATOM     22  O   UNL     1      82.871  51.570  43.170  0.00  0.00    -0.245 OA
ATOM     23  C   UNL     1      84.594  54.171  39.937  0.00  0.00    -0.024 C 
ENDBRANCH  16  17
ENDBRANCH  15  16
ENDBRANCH  14  15
ENDBRANCH  13  14
ENDBRANCH  12  13
ENDBRANCH  11  12
ENDBRANCH  10  11
ENDBRANCH   9  10
ENDBRANCH   8   9
ENDBRANCH   7   8
ENDBRANCH   6   7
ENDBRANCH   5   6
ENDBRANCH   4   5
ENDBRANCH   3   4
BRANCH   1  24
ATOM     24  C   UNL     1      84.117  48.131  43.595  0.00  0.00    -0.022 C 
BRANCH  24  25
ATOM     25  C   UNL     1      83.777  46.819  42.879  0.00  0.00    -0.022 C 
BRANCH  25  28
ATOM     26  C   UNL     1      84.622  44.401  43.564  0.00  0.00    +0.085 C 
ATOM     27  O   UNL     1      85.080  45.442  44.396  0.00  0.00    -0.368 OA
ATOM     28  C   UNL     1      83.797  45.615  43.834  0.00  0.00    +0.085 C 
BRANCH  26  29
ATOM     29  C   UNL     1      85.423  44.285  42.256  0.00  0.00    -0.024 C 
BRANCH  29  30
ATOM     30  C   UNL     1      86.943  44.227  42.519  0.00  0.00    -0.051 C 
BRANCH  30  31
ATOM     31  C   UNL     1      87.705  45.465  42.013  0.00  0.00    -0.053 C 
BRANCH  31  32
ATOM     32  C   UNL     1      89.065  45.709  42.692  0.00  0.00    -0.053 C 
BRANCH  32  33
ATOM     33  C   UNL     1      90.019  46.648  41.927  0.00  0.00    -0.053 C 
BRANCH  33  34
ATOM     34  C   UNL     1      90.621  47.794  42.759  0.00  0.00    -0.053 C 
BRANCH  34  35
ATOM     35  C   UNL     1      91.056  48.993  41.900  0.00  0.00    -0.053 C 
BRANCH  35  36
ATOM     36  C   UNL     1      90.123  50.208  42.054  0.00  0.00    -0.053 C 
BRANCH  36  37
ATOM     37  C   UNL     1      88.941  50.251  41.069  0.00  0.00    -0.053 C 
BRANCH  37  38
ATOM     38  C   UNL     1      88.863  51.570  40.284  0.00  0.00    -0.053 C 
BRANCH  38  40
ATOM     39  C   UNL     1      90.440  53.525  40.032  0.00  0.00    -0.065 C 
ATOM     40  C   UNL     1      89.618  52.689  41.010  0.00  0.00    -0.056 C 
ENDBRANCH  38  40
ENDBRANCH  37  38
ENDBRANCH  36  37
ENDBRANCH  35  36
ENDBRANCH  34  35
ENDBRANCH  33  34
ENDBRANCH  32  33
ENDBRANCH  31  32
ENDBRANCH  30  31
ENDBRANCH  29  30
ENDBRANCH  26  29
ENDBRANCH  25  28
ENDBRANCH  24  25
ENDBRANCH   1  24
TORSDOF 28
ENDMDL
MODEL 7
REMARK VINA RESULT:    -6.917      2.048      8.757
REMARK INTER + INTRA:         -23.765
REMARK INTER:                 -19.252
REMARK INTRA:                  -4.514
REMARK UNBOUND:                -5.527
REMARK  Name = 
REMARK  30 active torsions:
REMARK  status: ('A' for Active; 'I' for Inactive)
REMARK    1  A    between atoms: C_1  and  C_2
REMARK    2  A    between atoms: C_2  and  C_3
REMARK    3  A    between atoms: C_3  and  C_4
REMARK    4  A    between atoms: C_4  and  C_5
REMARK    5  A    between atoms: C_5  and  C_6
REMARK    6  A    between atoms: C_6  and  C_7
REMARK    7  A    between atoms: C_7  and  C_8
REMARK    8  A    between atoms: C_8  and  C_9
REMARK    9  A    between atoms: C_9  and  C_10
REMARK   10  A    between atoms: C_10  and  C_11
REMARK   11  A    between atoms: C_11  and  C_12
REMARK   12  A    between atoms: C_12  and  C_13
REMARK   13  A    between atoms: C_15  and  C_16
REMARK   14  A    between atoms: C_16  and  C_17
REMARK   15  A    between atoms: C_17  and  C_18
REMARK   16  A    between atoms: C_20  and  C_21
REMARK   17  A    between atoms: C_21  and  C_22
REMARK   18  A    between atoms: C_22  and  C_23
REMARK   19  A    between atoms: C_23  and  C_24
REMARK   20  A    between atoms: C_24  and  C_25
REMARK   21  A    between atoms: C_25  and  C_26
REMARK   22  A    between atoms: C_26  and  C_27
REMARK   23  A    between atoms: C_27  and  C_28
REMARK   24  A    between atoms: C_28  and  C_29
REMARK   25  A    between atoms: C_29  and  C_30
REMARK   26  A    between atoms: C_30  and  C_31
REMARK   27  A    between atoms: C_31  and  C_32
REMARK   28  A    between atoms: C_32  and  C_33
REMARK   29  A    between atoms: C_33  and  C_34
REMARK   30  A    between atoms: C_36  and  C_40
REMARK                            x       y       z     vdW  Elec       q    Type
REMARK                         _______ _______ _______ _____ _____    ______ ____
ROOT
ATOM      1  C   UNL     1      83.640  45.608  43.979  0.00  0.00    +0.085 C 
ATOM      2  O   UNL     1      83.907  44.590  43.040  0.00  0.00    -0.368 OA
ATOM      3  C   UNL     1      84.968  45.471  43.338  0.00  0.00    +0.085 C 
ENDROOT
BRANCH   3   4
ATOM      4  C   UNL     1      86.059  44.787  44.164  0.00  0.00    -0.024 C 
BRANCH   4   5
ATOM      5  C   UNL     1      86.794  43.751  43.305  0.00  0.00    -0.051 C 
BRANCH   5   6
ATOM      6  C   UNL     1      87.476  44.370  42.075  0.00  0.00    -0.053 C 
BRANCH   6   7
ATOM      7  C   UNL     1      88.766  45.124  42.434  0.00  0.00    -0.053 C 
BRANCH   7   8
ATOM      8  C   UNL     1      88.674  46.600  42.025  0.00  0.00    -0.053 C 
BRANCH   8   9
ATOM      9  C   UNL     1      89.969  47.346  42.369  0.00  0.00    -0.053 C 
BRANCH   9  10
ATOM     10  C   UNL     1      89.677  48.779  42.828  0.00  0.00    -0.053 C 
BRANCH  10  11
ATOM     11  C   UNL     1      90.515  49.790  42.030  0.00  0.00    -0.053 C 
BRANCH  11  12
ATOM     12  C   UNL     1      89.705  50.496  40.932  0.00  0.00    -0.053 C 
BRANCH  12  13
ATOM     13  C   UNL     1      89.557  52.004  41.187  0.00  0.00    -0.053 C 
BRANCH  13  14
ATOM     14  C   UNL     1      88.110  52.364  41.545  0.00  0.00    -0.053 C 
BRANCH  14  15
ATOM     15  C   UNL     1      87.861  52.197  43.051  0.00  0.00    -0.049 C 
BRANCH  15  16
ATOM     16  C   UNL     1      86.729  51.204  43.350  0.00  0.00    -0.021 C 
BRANCH  16  17
ATOM     17  C   UNL     1      86.759  50.729  44.773  0.00  0.00    +0.036 C 
ATOM     18  C   UNL     1      87.344  51.351  45.790  0.00  0.00    -0.034 C 
ATOM     19  C   UNL     1      87.104  50.601  47.076  0.00  0.00    +0.120 C 
ATOM     20  O   UNL     1      86.316  49.484  46.672  0.00  0.00    -0.454 OA
ATOM     21  C   UNL     1      86.101  49.560  45.310  0.00  0.00    +0.336 C 
ATOM     22  O   UNL     1      85.425  48.725  44.654  0.00  0.00    -0.245 OA
ATOM     23  C   UNL     1      88.416  50.133  47.697  0.00  0.00    -0.024 C 
ENDBRANCH  16  17
ENDBRANCH  15  16
ENDBRANCH  14  15
ENDBRANCH  13  14
ENDBRANCH  12  13
ENDBRANCH  11  12
ENDBRANCH  10  11
ENDBRANCH   9  10
ENDBRANCH   8   9
ENDBRANCH   7   8
ENDBRANCH   6   7
ENDBRANCH   5   6
ENDBRANCH   4   5
ENDBRANCH   3   4
BRANCH   1  24
ATOM     24  C   UNL     1      82.736  46.705  43.402  0.00  0.00    -0.022 C 
BRANCH  24  25
ATOM     25  C   UNL     1      81.254  46.406  43.649  0.00  0.00    -0.022 C 
BRANCH  25  28
ATOM     26  C   UNL     1      80.011  48.544  44.606  0.00  0.00    +0.085 C 
ATOM     27  O   UNL     1      79.280  47.344  44.705  0.00  0.00    -0.368 OA
ATOM     28  C   UNL     1      80.682  47.227  44.816  0.00  0.00    +0.085 C 
BRANCH  26  29
ATOM     29  C   UNL     1      79.951  49.166  43.201  0.00  0.00    -0.024 C 
BRANCH  29  30
ATOM     30  C   UNL     1      80.767  50.474  43.119  0.00  0.00    -0.051 C 
BRANCH  30  31
ATOM     31  C   UNL     1      82.290  50.254  43.156  0.00  0.00    -0.053 C 
BRANCH  31  32
ATOM     32  C   UNL     1      83.119  51.344  42.453  0.00  0.00    -0.053 C 
BRANCH  32  33
ATOM     33  C   UNL     1      82.377  52.116  41.343  0.00  0.00    -0.053 C 
BRANCH  33  34
ATOM     34  C   UNL     1      82.416  53.650  41.470  0.00  0.00    -0.053 C 
BRANCH  34  35
ATOM     35  C   UNL     1      83.847  54.212  41.489  0.00  0.00    -0.053 C 
BRANCH  35  36
ATOM     36  C   UNL     1      84.132  55.081  42.728  0.00  0.00    -0.053 C 
BRANCH  36  37
ATOM     37  C   UNL     1      84.974  54.400  43.822  0.00  0.00    -0.053 C 
BRANCH  37  38
ATOM     38  C   UNL     1      86.199  55.230  44.239  0.00  0.00    -0.053 C 
BRANCH  38  40
ATOM     39  C   UNL     1      85.996  56.128  46.590  0.00  0.00    -0.065 C 
ATOM     40  C   UNL     1      86.542  55.001  45.715  0.00  0.00    -0.056 C 
ENDBRANCH  38  40
ENDBRANCH  37  38
ENDBRANCH  36  37
ENDBRANCH  35  36
ENDBRANCH  34  35
ENDBRANCH  33  34
ENDBRANCH  32  33
ENDBRANCH  31  32
ENDBRANCH  30  31
ENDBRANCH  29  30
ENDBRANCH  26  29
ENDBRANCH  25  28
ENDBRANCH  24  25
ENDBRANCH   1  24
TORSDOF 28
ENDMDL
MODEL 8
REMARK VINA RESULT:    -6.882      1.579      8.190
REMARK INTER + INTRA:         -23.675
REMARK INTER:                 -18.147
REMARK INTRA:                  -5.527
REMARK UNBOUND:                -5.527
REMARK  Name = 
REMARK  30 active torsions:
REMARK  status: ('A' for Active; 'I' for Inactive)
REMARK    1  A    between atoms: C_1  and  C_2
REMARK    2  A    between atoms: C_2  and  C_3
REMARK    3  A    between atoms: C_3  and  C_4
REMARK    4  A    between atoms: C_4  and  C_5
REMARK    5  A    between atoms: C_5  and  C_6
REMARK    6  A    between atoms: C_6  and  C_7
REMARK    7  A    between atoms: C_7  and  C_8
REMARK    8  A    between atoms: C_8  and  C_9
REMARK    9  A    between atoms: C_9  and  C_10
REMARK   10  A    between atoms: C_10  and  C_11
REMARK   11  A    between atoms: C_11  and  C_12
REMARK   12  A    between atoms: C_12  and  C_13
REMARK   13  A    between atoms: C_15  and  C_16
REMARK   14  A    between atoms: C_16  and  C_17
REMARK   15  A    between atoms: C_17  and  C_18
REMARK   16  A    between atoms: C_20  and  C_21
REMARK   17  A    between atoms: C_21  and  C_22
REMARK   18  A    between atoms: C_22  and  C_23
REMARK   19  A    between atoms: C_23  and  C_24
REMARK   20  A    between atoms: C_24  and  C_25
REMARK   21  A    between atoms: C_25  and  C_26
REMARK   22  A    between atoms: C_26  and  C_27
REMARK   23  A    between atoms: C_27  and  C_28
REMARK   24  A    between atoms: C_28  and  C_29
REMARK   25  A    between atoms: C_29  and  C_30
REMARK   26  A    between atoms: C_30  and  C_31
REMARK   27  A    between atoms: C_31  and  C_32
REMARK   28  A    between atoms: C_32  and  C_33
REMARK   29  A    between atoms: C_33  and  C_34
REMARK   30  A    between atoms: C_36  and  C_40
REMARK                            x       y       z     vdW  Elec       q    Type
REMARK                         _______ _______ _______ _____ _____    ______ ____
ROOT
ATOM      1  C   UNL     1      84.524  45.379  42.895  0.00  0.00    +0.085 C 
ATOM      2  O   UNL     1      85.331  46.278  42.167  0.00  0.00    -0.368 OA
ATOM      3  C   UNL     1      85.989  45.450  43.101  0.00  0.00    +0.085 C 
ENDROOT
BRANCH   3   4
ATOM      4  C   UNL     1      86.831  44.375  42.411  0.00  0.00    -0.024 C 
BRANCH   4   5
ATOM      5  C   UNL     1      88.322  44.644  42.648  0.00  0.00    -0.051 C 
BRANCH   5   6
ATOM      6  C   UNL     1      88.793  45.972  42.036  0.00  0.00    -0.053 C 
BRANCH   6   7
ATOM      7  C   UNL     1      90.252  46.299  42.387  0.00  0.00    -0.053 C 
BRANCH   7   8
ATOM      8  C   UNL     1      90.452  47.810  42.564  0.00  0.00    -0.053 C 
BRANCH   8   9
ATOM      9  C   UNL     1      89.105  48.543  42.587  0.00  0.00    -0.053 C 
BRANCH   9  10
ATOM     10  C   UNL     1      89.300  50.054  42.755  0.00  0.00    -0.053 C 
BRANCH  10  11
ATOM     11  C   UNL     1      89.563  50.725  41.398  0.00  0.00    -0.053 C 
BRANCH  11  12
ATOM     12  C   UNL     1      88.702  51.979  41.180  0.00  0.00    -0.053 C 
BRANCH  12  13
ATOM     13  C   UNL     1      87.202  51.658  41.102  0.00  0.00    -0.053 C 
BRANCH  13  14
ATOM     14  C   UNL     1      86.360  52.822  41.637  0.00  0.00    -0.053 C 
BRANCH  14  15
ATOM     15  C   UNL     1      87.073  53.523  42.803  0.00  0.00    -0.049 C 
BRANCH  15  16
ATOM     16  C   UNL     1      86.799  52.840  44.149  0.00  0.00    -0.021 C 
BRANCH  16  17
ATOM     17  C   UNL     1      86.159  53.775  45.134  0.00  0.00    +0.036 C 
ATOM     18  C   UNL     1      86.512  53.929  46.404  0.00  0.00    -0.034 C 
ATOM     19  C   UNL     1      85.680  55.005  47.057  0.00  0.00    +0.120 C 
ATOM     20  O   UNL     1      84.817  55.443  46.010  0.00  0.00    -0.454 OA
ATOM     21  C   UNL     1      85.102  54.724  44.866  0.00  0.00    +0.336 C 
ATOM     22  O   UNL     1      84.519  54.889  43.763  0.00  0.00    -0.245 OA
ATOM     23  C   UNL     1      84.868  54.448  48.221  0.00  0.00    -0.024 C 
ENDBRANCH  16  17
ENDBRANCH  15  16
ENDBRANCH  14  15
ENDBRANCH  13  14
ENDBRANCH  12  13
ENDBRANCH  11  12
ENDBRANCH  10  11
ENDBRANCH   9  10
ENDBRANCH   8   9
ENDBRANCH   7   8
ENDBRANCH   6   7
ENDBRANCH   5   6
ENDBRANCH   4   5
ENDBRANCH   3   4
BRANCH   1  24
ATOM     24  C   UNL     1      83.671  46.091  43.952  0.00  0.00    -0.022 C 
BRANCH  24  25
ATOM     25  C   UNL     1      82.345  46.587  43.369  0.00  0.00    -0.022 C 
BRANCH  25  28
ATOM     26  C   UNL     1      80.200  47.025  44.865  0.00  0.00    +0.085 C 
ATOM     27  O   UNL     1      79.927  46.518  43.579  0.00  0.00    -0.368 OA
ATOM     28  C   UNL     1      81.133  46.089  44.173  0.00  0.00    +0.085 C 
BRANCH  26  29
ATOM     29  C   UNL     1      80.480  48.537  44.865  0.00  0.00    -0.024 C 
BRANCH  29  30
ATOM     30  C   UNL     1      79.407  49.317  44.075  0.00  0.00    -0.051 C 
BRANCH  30  31
ATOM     31  C   UNL     1      79.989  50.245  42.993  0.00  0.00    -0.053 C 
BRANCH  31  32
ATOM     32  C   UNL     1      81.442  49.935  42.589  0.00  0.00    -0.053 C 
BRANCH  32  33
ATOM     33  C   UNL     1      82.306  51.169  42.260  0.00  0.00    -0.053 C 
BRANCH  33  34
ATOM     34  C   UNL     1      83.370  51.525  43.313  0.00  0.00    -0.053 C 
BRANCH  34  35
ATOM     35  C   UNL     1      83.864  50.302  44.103  0.00  0.00    -0.053 C 
BRANCH  35  36
ATOM     36  C   UNL     1      85.099  49.638  43.467  0.00  0.00    -0.053 C 
BRANCH  36  37
ATOM     37  C   UNL     1      86.071  48.979  44.463  0.00  0.00    -0.053 C 
BRANCH  37  38
ATOM     38  C   UNL     1      86.183  49.748  45.789  0.00  0.00    -0.053 C 
BRANCH  38  40
ATOM     39  C   UNL     1      87.764  50.415  47.641  0.00  0.00    -0.065 C 
ATOM     40  C   UNL     1      87.649  49.925  46.199  0.00  0.00    -0.056 C 
ENDBRANCH  38  40
ENDBRANCH  37  38
ENDBRANCH  36  37
ENDBRANCH  35  36
ENDBRANCH  34  35
ENDBRANCH  33  34
ENDBRANCH  32  33
ENDBRANCH  31  32
ENDBRANCH  30  31
ENDBRANCH  29  30
ENDBRANCH  26  29
ENDBRANCH  25  28
ENDBRANCH  24  25
ENDBRANCH   1  24
TORSDOF 28
ENDMDL
MODEL 9
REMARK VINA RESULT:    -6.845      2.480      4.847
REMARK INTER + INTRA:         -23.576
REMARK INTER:                 -18.249
REMARK INTRA:                  -5.327
REMARK UNBOUND:                -5.527
REMARK  Name = 
REMARK  30 active torsions:
REMARK  status: ('A' for Active; 'I' for Inactive)
REMARK    1  A    between atoms: C_1  and  C_2
REMARK    2  A    between atoms: C_2  and  C_3
REMARK    3  A    between atoms: C_3  and  C_4
REMARK    4  A    between atoms: C_4  and  C_5
REMARK    5  A    between atoms: C_5  and  C_6
REMARK    6  A    between atoms: C_6  and  C_7
REMARK    7  A    between atoms: C_7  and  C_8
REMARK    8  A    between atoms: C_8  and  C_9
REMARK    9  A    between atoms: C_9  and  C_10
REMARK   10  A    between atoms: C_10  and  C_11
REMARK   11  A    between atoms: C_11  and  C_12
REMARK   12  A    between atoms: C_12  and  C_13
REMARK   13  A    between atoms: C_15  and  C_16
REMARK   14  A    between atoms: C_16  and  C_17
REMARK   15  A    between atoms: C_17  and  C_18
REMARK   16  A    between atoms: C_20  and  C_21
REMARK   17  A    between atoms: C_21  and  C_22
REMARK   18  A    between atoms: C_22  and  C_23
REMARK   19  A    between atoms: C_23  and  C_24
REMARK   20  A    between atoms: C_24  and  C_25
REMARK   21  A    between atoms: C_25  and  C_26
REMARK   22  A    between atoms: C_26  and  C_27
REMARK   23  A    between atoms: C_27  and  C_28
REMARK   24  A    between atoms: C_28  and  C_29
REMARK   25  A    between atoms: C_29  and  C_30
REMARK   26  A    between atoms: C_30  and  C_31
REMARK   27  A    between atoms: C_31  and  C_32
REMARK   28  A    between atoms: C_32  and  C_33
REMARK   29  A    between atoms: C_33  and  C_34
REMARK   30  A    between atoms: C_36  and  C_40
REMARK                            x       y       z     vdW  Elec       q    Type
REMARK                         _______ _______ _______ _____ _____    ______ ____
ROOT
ATOM      1  C   UNL     1      85.626  53.638  41.097  0.00  0.00    +0.085 C 
ATOM      2  O   UNL     1      85.576  53.947  39.721  0.00  0.00    -0.368 OA
ATOM      3  C   UNL     1      84.374  53.505  40.315  0.00  0.00    +0.085 C 
ENDROOT
BRANCH   3   4
ATOM      4  C   UNL     1      83.358  54.641  40.452  0.00  0.00    -0.024 C 
BRANCH   4   5
ATOM      5  C   UNL     1      82.038  54.098  41.010  0.00  0.00    -0.051 C 
BRANCH   5   6
ATOM      6  C   UNL     1      82.243  53.052  42.117  0.00  0.00    -0.053 C 
BRANCH   6   7
ATOM      7  C   UNL     1      81.598  51.700  41.778  0.00  0.00    -0.053 C 
BRANCH   7   8
ATOM      8  C   UNL     1      82.184  50.577  42.644  0.00  0.00    -0.053 C 
BRANCH   8   9
ATOM      9  C   UNL     1      83.644  50.873  43.012  0.00  0.00    -0.053 C 
BRANCH   9  10
ATOM     10  C   UNL     1      84.121  49.966  44.153  0.00  0.00    -0.053 C 
BRANCH  10  11
ATOM     11  C   UNL     1      85.569  49.510  43.918  0.00  0.00    -0.053 C 
BRANCH  11  12
ATOM     12  C   UNL     1      86.400  49.485  45.210  0.00  0.00    -0.053 C 
BRANCH  12  13
ATOM     13  C   UNL     1      87.638  50.391  45.132  0.00  0.00    -0.053 C 
BRANCH  13  14
ATOM     14  C   UNL     1      87.533  51.556  46.124  0.00  0.00    -0.053 C 
BRANCH  14  15
ATOM     15  C   UNL     1      86.602  52.652  45.585  0.00  0.00    -0.049 C 
BRANCH  15  16
ATOM     16  C   UNL     1      85.557  53.090  46.619  0.00  0.00    -0.021 C 
BRANCH  16  17
ATOM     17  C   UNL     1      85.073  54.489  46.371  0.00  0.00    +0.036 C 
ATOM     18  C   UNL     1      85.128  55.138  45.214  0.00  0.00    -0.034 C 
ATOM     19  C   UNL     1      84.486  56.497  45.340  0.00  0.00    +0.120 C 
ATOM     20  O   UNL     1      84.060  56.543  46.700  0.00  0.00    -0.454 OA
ATOM     21  C   UNL     1      84.398  55.352  47.313  0.00  0.00    +0.336 C 
ATOM     22  O   UNL     1      84.141  55.078  48.514  0.00  0.00    -0.245 OA
ATOM     23  C   UNL     1      85.488  57.612  45.056  0.00  0.00    -0.024 C 
ENDBRANCH  16  17
ENDBRANCH  15  16
ENDBRANCH  14  15
ENDBRANCH  13  14
ENDBRANCH  12  13
ENDBRANCH  11  12
ENDBRANCH  10  11
ENDBRANCH   9  10
ENDBRANCH   8   9
ENDBRANCH   7   8
ENDBRANCH   6   7
ENDBRANCH   5   6
ENDBRANCH   4   5
ENDBRANCH   3   4
BRANCH   1  24
ATOM     24  C   UNL     1      86.378  52.329  41.369  0.00  0.00    -0.022 C 
BRANCH  24  25
ATOM     25  C   UNL     1      87.765  52.587  41.965  0.00  0.00    -0.022 C 
BRANCH  25  28
ATOM     26  C   UNL     1      89.804  51.263  40.906  0.00  0.00    +0.085 C 
ATOM     27  O   UNL     1      88.652  51.316  40.096  0.00  0.00    -0.368 OA
ATOM     28  C   UNL     1      88.884  52.438  40.921  0.00  0.00    +0.085 C 
BRANCH  26  29
ATOM     29  C   UNL     1      89.710  50.193  42.008  0.00  0.00    -0.024 C 
BRANCH  29  30
ATOM     30  C   UNL     1      89.270  48.826  41.441  0.00  0.00    -0.051 C 
BRANCH  30  31
ATOM     31  C   UNL     1      88.436  47.988  42.428  0.00  0.00    -0.053 C 
BRANCH  31  32
ATOM     32  C   UNL     1      87.836  46.700  41.837  0.00  0.00    -0.053 C 
BRANCH  32  33
ATOM     33  C   UNL     1      88.243  45.399  42.556  0.00  0.00    -0.053 C 
BRANCH  33  34
ATOM     34  C   UNL     1      87.239  44.238  42.433  0.00  0.00    -0.053 C 
BRANCH  34  35
ATOM     35  C   UNL     1      86.491  43.953  43.746  0.00  0.00    -0.053 C 
BRANCH  35  36
ATOM     36  C   UNL     1      84.984  44.258  43.653  0.00  0.00    -0.053 C 
BRANCH  36  37
ATOM     37  C   UNL     1      84.600  45.726  43.910  0.00  0.00    -0.053 C 
BRANCH  37  38
ATOM     38  C   UNL     1      84.137  46.456  42.639  0.00  0.00    -0.053 C 
BRANCH  38  40
ATOM     39  C   UNL     1      82.090  46.516  44.116  0.00  0.00    -0.065 C 
ATOM     40  C   UNL     1      82.660  46.855  42.741  0.00  0.00    -0.056 C 
ENDBRANCH  38  40
ENDBRANCH  37  38
ENDBRANCH  36  37
ENDBRANCH  35  36
ENDBRANCH  34  35
ENDBRANCH  33  34
ENDBRANCH  32  33
ENDBRANCH  31  32
ENDBRANCH  30  31
ENDBRANCH  29  30
ENDBRANCH  26  29
ENDBRANCH  25  28
ENDBRANCH  24  25
ENDBRANCH   1  24
TORSDOF 28
ENDMDL
