MODEL 1
REMARK VINA RESULT:    -7.090      0.000      0.000
REMARK INTER + INTRA:         -24.214
REMARK INTER:                 -19.011
REMARK INTRA:                  -5.203
REMARK UNBOUND:                -5.519
REMARK  Name = 
REMARK  30 active torsions:
REMARK  status: ('A' for Active; 'I' for Inactive)
REMARK    1  A    between atoms: C_1  and  C_2
REMARK    2  A    between atoms: C_2  and  C_3
REMARK    3  A    between atoms: C_3  and  C_4
REMARK    4  A    between atoms: C_4  and  C_5
REMARK    5  A    between atoms: C_5  and  C_6
REMARK    6  A    between atoms: C_6  and  C_7
REMARK    7  A    between atoms: C_7  and  C_8
REMARK    8  A    between atoms: C_8  and  C_9
REMARK    9  A    between atoms: C_9  and  C_10
REMARK   10  A    between atoms: C_10  and  C_11
REMARK   11  A    between atoms: C_11  and  C_12
REMARK   12  A    between atoms: C_12  and  C_13
REMARK   13  A    between atoms: C_15  and  C_16
REMARK   14  A    between atoms: C_16  and  C_17
REMARK   15  A    between atoms: C_17  and  C_18
REMARK   16  A    between atoms: C_20  and  C_21
REMARK   17  A    between atoms: C_21  and  C_22
REMARK   18  A    between atoms: C_22  and  C_23
REMARK   19  A    between atoms: C_23  and  C_24
REMARK   20  A    between atoms: C_24  and  C_25
REMARK   21  A    between atoms: C_25  and  C_26
REMARK   22  A    between atoms: C_26  and  C_27
REMARK   23  A    between atoms: C_27  and  C_28
REMARK   24  A    between atoms: C_28  and  C_29
REMARK   25  A    between atoms: C_29  and  C_30
REMARK   26  A    between atoms: C_30  and  C_31
REMARK   27  A    between atoms: C_31  and  C_32
REMARK   28  A    between atoms: C_32  and  C_33
REMARK   29  A    between atoms: C_33  and  C_34
REMARK   30  A    between atoms: C_36  and  C_40
REMARK                            x       y       z     vdW  Elec       q    Type
REMARK                         _______ _______ _______ _____ _____    ______ ____
ROOT
ATOM      1  C   UNL     1      82.172  48.713  43.236  0.00  0.00    +0.085 C 
ATOM      2  O   UNL     1      81.097  49.445  43.783  0.00  0.00    -0.368 OA
ATOM      3  C   UNL     1      82.392  49.806  44.212  0.00  0.00    +0.085 C 
ENDROOT
BRANCH   3   4
ATOM      4  C   UNL     1      82.822  51.158  43.638  0.00  0.00    -0.024 C 
BRANCH   4   5
ATOM      5  C   UNL     1      84.231  51.511  44.128  0.00  0.00    -0.051 C 
BRANCH   5   6
ATOM      6  C   UNL     1      84.229  52.582  45.230  0.00  0.00    -0.053 C 
BRANCH   6   7
ATOM      7  C   UNL     1      85.602  52.741  45.900  0.00  0.00    -0.053 C 
BRANCH   7   8
ATOM      8  C   UNL     1      85.457  53.243  47.343  0.00  0.00    -0.053 C 
BRANCH   8   9
ATOM      9  C   UNL     1      83.989  53.215  47.788  0.00  0.00    -0.053 C 
BRANCH   9  10
ATOM     10  C   UNL     1      83.513  54.609  48.213  0.00  0.00    -0.053 C 
BRANCH  10  11
ATOM     11  C   UNL     1      84.588  55.666  47.916  0.00  0.00    -0.053 C 
BRANCH  11  12
ATOM     12  C   UNL     1      84.100  56.752  46.945  0.00  0.00    -0.053 C 
BRANCH  12  13
ATOM     13  C   UNL     1      85.249  57.392  46.150  0.00  0.00    -0.053 C 
BRANCH  13  14
ATOM     14  C   UNL     1      86.053  56.330  45.392  0.00  0.00    -0.053 C 
BRANCH  14  15
ATOM     15  C   UNL     1      85.745  56.380  43.888  0.00  0.00    -0.049 C 
BRANCH  15  16
ATOM     16  C   UNL     1      85.971  55.027  43.200  0.00  0.00    -0.021 C 
BRANCH  16  17
ATOM     17  C   UNL     1      84.880  54.706  42.220  0.00  0.00    +0.036 C 
ATOM     18  C   UNL     1      83.637  55.171  42.258  0.00  0.00    -0.034 C 
ATOM     19  C   UNL     1      82.852  54.678  41.068  0.00  0.00    +0.120 C 
ATOM     20  O   UNL     1      83.793  53.882  40.351  0.00  0.00    -0.454 OA
ATOM     21  C   UNL     1      84.999  53.903  41.025  0.00  0.00    +0.336 C 
ATOM     22  O   UNL     1      86.036  53.306  40.635  0.00  0.00    -0.245 OA
ATOM     23  C   UNL     1      81.659  53.833  41.503  0.00  0.00    -0.024 C 
ENDBRANCH  16  17
ENDBRANCH  15  16
ENDBRANCH  14  15
ENDBRANCH  13  14
ENDBRANCH  12  13
ENDBRANCH  11  12
ENDBRANCH  10  11
ENDBRANCH   9  10
ENDBRANCH   8   9
ENDBRANCH   7   8
ENDBRANCH   6   7
ENDBRANCH   5   6
ENDBRANCH   4   5
ENDBRANCH   3   4
BRANCH   1  24
ATOM     24  C   UNL     1      82.254  47.291  43.805  0.00  0.00    -0.022 C 
BRANCH  24  25
ATOM     25  C   UNL     1      83.520  46.567  43.338  0.00  0.00    -0.022 C 
BRANCH  25  28
ATOM     26  C   UNL     1      84.979  44.458  44.013  0.00  0.00    +0.085 C 
ATOM     27  O   UNL     1      84.554  45.252  45.097  0.00  0.00    -0.368 OA
ATOM     28  C   UNL     1      83.676  45.186  43.994  0.00  0.00    +0.085 C 
BRANCH  26  29
ATOM     29  C   UNL     1      86.202  45.043  43.288  0.00  0.00    -0.024 C 
BRANCH  29  30
ATOM     30  C   UNL     1      87.492  44.261  43.620  0.00  0.00    -0.051 C 
BRANCH  30  31
ATOM     31  C   UNL     1      88.708  44.693  42.781  0.00  0.00    -0.053 C 
BRANCH  31  32
ATOM     32  C   UNL     1      88.692  46.163  42.326  0.00  0.00    -0.053 C 
BRANCH  32  33
ATOM     33  C   UNL     1      90.080  46.796  42.106  0.00  0.00    -0.053 C 
BRANCH  33  34
ATOM     34  C   UNL     1      90.068  48.269  41.661  0.00  0.00    -0.053 C 
BRANCH  34  35
ATOM     35  C   UNL     1      89.936  49.250  42.838  0.00  0.00    -0.053 C 
BRANCH  35  36
ATOM     36  C   UNL     1      88.780  50.250  42.655  0.00  0.00    -0.053 C 
BRANCH  36  37
ATOM     37  C   UNL     1      87.686  50.188  43.737  0.00  0.00    -0.053 C 
BRANCH  37  38
ATOM     38  C   UNL     1      86.658  49.073  43.486  0.00  0.00    -0.053 C 
BRANCH  38  40
ATOM     39  C   UNL     1      86.523  49.360  45.990  0.00  0.00    -0.065 C 
ATOM     40  C   UNL     1      86.178  48.460  44.806  0.00  0.00    -0.056 C 
ENDBRANCH  38  40
ENDBRANCH  37  38
ENDBRANCH  36  37
ENDBRANCH  35  36
ENDBRANCH  34  35
ENDBRANCH  33  34
ENDBRANCH  32  33
ENDBRANCH  31  32
ENDBRANCH  30  31
ENDBRANCH  29  30
ENDBRANCH  26  29
ENDBRANCH  25  28
ENDBRANCH  24  25
ENDBRANCH   1  24
TORSDOF 28
ENDMDL
MODEL 2
REMARK VINA RESULT:    -7.086      1.775      3.232
REMARK INTER + INTRA:         -24.204
REMARK INTER:                 -19.604
REMARK INTRA:                  -4.600
REMARK UNBOUND:                -5.519
REMARK  Name = 
REMARK  30 active torsions:
REMARK  status: ('A' for Active; 'I' for Inactive)
REMARK    1  A    between atoms: C_1  and  C_2
REMARK    2  A    between atoms: C_2  and  C_3
REMARK    3  A    between atoms: C_3  and  C_4
REMARK    4  A    between atoms: C_4  and  C_5
REMARK    5  A    between atoms: C_5  and  C_6
REMARK    6  A    between atoms: C_6  and  C_7
REMARK    7  A    between atoms: C_7  and  C_8
REMARK    8  A    between atoms: C_8  and  C_9
REMARK    9  A    between atoms: C_9  and  C_10
REMARK   10  A    between atoms: C_10  and  C_11
REMARK   11  A    between atoms: C_11  and  C_12
REMARK   12  A    between atoms: C_12  and  C_13
REMARK   13  A    between atoms: C_15  and  C_16
REMARK   14  A    between atoms: C_16  and  C_17
REMARK   15  A    between atoms: C_17  and  C_18
REMARK   16  A    between atoms: C_20  and  C_21
REMARK   17  A    between atoms: C_21  and  C_22
REMARK   18  A    between atoms: C_22  and  C_23
REMARK   19  A    between atoms: C_23  and  C_24
REMARK   20  A    between atoms: C_24  and  C_25
REMARK   21  A    between atoms: C_25  and  C_26
REMARK   22  A    between atoms: C_26  and  C_27
REMARK   23  A    between atoms: C_27  and  C_28
REMARK   24  A    between atoms: C_28  and  C_29
REMARK   25  A    between atoms: C_29  and  C_30
REMARK   26  A    between atoms: C_30  and  C_31
REMARK   27  A    between atoms: C_31  and  C_32
REMARK   28  A    between atoms: C_32  and  C_33
REMARK   29  A    between atoms: C_33  and  C_34
REMARK   30  A    between atoms: C_36  and  C_40
REMARK                            x       y       z     vdW  Elec       q    Type
REMARK                         _______ _______ _______ _____ _____    ______ ____
ROOT
ATOM      1  C   UNL     1      82.334  48.264  43.065  0.00  0.00    +0.085 C 
ATOM      2  O   UNL     1      81.116  48.885  43.413  0.00  0.00    -0.368 OA
ATOM      3  C   UNL     1      82.283  49.392  44.024  0.00  0.00    +0.085 C 
ENDROOT
BRANCH   3   4
ATOM      4  C   UNL     1      82.654  50.772  43.479  0.00  0.00    -0.024 C 
BRANCH   4   5
ATOM      5  C   UNL     1      83.867  51.326  44.236  0.00  0.00    -0.051 C 
BRANCH   5   6
ATOM      6  C   UNL     1      85.190  51.106  43.486  0.00  0.00    -0.053 C 
BRANCH   6   7
ATOM      7  C   UNL     1      85.995  49.922  44.045  0.00  0.00    -0.053 C 
BRANCH   7   8
ATOM      8  C   UNL     1      86.885  50.363  45.214  0.00  0.00    -0.053 C 
BRANCH   8   9
ATOM      9  C   UNL     1      87.408  51.789  44.997  0.00  0.00    -0.053 C 
BRANCH   9  10
ATOM     10  C   UNL     1      87.114  52.677  46.213  0.00  0.00    -0.053 C 
BRANCH  10  11
ATOM     11  C   UNL     1      86.092  52.006  47.143  0.00  0.00    -0.053 C 
BRANCH  11  12
ATOM     12  C   UNL     1      85.073  53.000  47.720  0.00  0.00    -0.053 C 
BRANCH  12  13
ATOM     13  C   UNL     1      85.677  54.393  47.957  0.00  0.00    -0.053 C 
BRANCH  13  14
ATOM     14  C   UNL     1      84.579  55.443  48.160  0.00  0.00    -0.053 C 
BRANCH  14  15
ATOM     15  C   UNL     1      84.526  56.417  46.973  0.00  0.00    -0.049 C 
BRANCH  15  16
ATOM     16  C   UNL     1      85.686  56.203  45.991  0.00  0.00    -0.021 C 
BRANCH  16  17
ATOM     17  C   UNL     1      85.203  56.028  44.581  0.00  0.00    +0.036 C 
ATOM     18  C   UNL     1      84.694  54.916  44.064  0.00  0.00    -0.034 C 
ATOM     19  C   UNL     1      84.261  55.146  42.638  0.00  0.00    +0.120 C 
ATOM     20  O   UNL     1      84.582  56.515  42.406  0.00  0.00    -0.454 OA
ATOM     21  C   UNL     1      85.132  57.045  43.557  0.00  0.00    +0.336 C 
ATOM     22  O   UNL     1      85.505  58.241  43.676  0.00  0.00    -0.245 OA
ATOM     23  C   UNL     1      85.029  54.247  41.675  0.00  0.00    -0.024 C 
ENDBRANCH  16  17
ENDBRANCH  15  16
ENDBRANCH  14  15
ENDBRANCH  13  14
ENDBRANCH  12  13
ENDBRANCH  11  12
ENDBRANCH  10  11
ENDBRANCH   9  10
ENDBRANCH   8   9
ENDBRANCH   7   8
ENDBRANCH   6   7
ENDBRANCH   5   6
ENDBRANCH   4   5
ENDBRANCH   3   4
BRANCH   1  24
ATOM     24  C   UNL     1      82.473  46.870  43.688  0.00  0.00    -0.022 C 
BRANCH  24  25
ATOM     25  C   UNL     1      83.816  46.223  43.334  0.00  0.00    -0.022 C 
BRANCH  25  28
ATOM     26  C   UNL     1      85.408  44.264  44.146  0.00  0.00    +0.085 C 
ATOM     27  O   UNL     1      85.539  45.467  44.867  0.00  0.00    -0.368 OA
ATOM     28  C   UNL     1      84.250  45.177  44.374  0.00  0.00    +0.085 C 
BRANCH  26  29
ATOM     29  C   UNL     1      86.159  44.287  42.804  0.00  0.00    -0.024 C 
BRANCH  29  30
ATOM     30  C   UNL     1      87.554  43.635  42.918  0.00  0.00    -0.051 C 
BRANCH  30  31
ATOM     31  C   UNL     1      88.690  44.646  43.155  0.00  0.00    -0.053 C 
BRANCH  31  32
ATOM     32  C   UNL     1      88.534  45.983  42.409  0.00  0.00    -0.053 C 
BRANCH  32  33
ATOM     33  C   UNL     1      89.856  46.679  42.030  0.00  0.00    -0.053 C 
BRANCH  33  34
ATOM     34  C   UNL     1      90.425  47.633  43.096  0.00  0.00    -0.053 C 
BRANCH  34  35
ATOM     35  C   UNL     1      89.718  48.998  43.118  0.00  0.00    -0.053 C 
BRANCH  35  36
ATOM     36  C   UNL     1      89.771  49.720  41.759  0.00  0.00    -0.053 C 
BRANCH  36  37
ATOM     37  C   UNL     1      89.140  51.124  41.743  0.00  0.00    -0.053 C 
BRANCH  37  38
ATOM     38  C   UNL     1      89.403  51.885  40.433  0.00  0.00    -0.053 C 
BRANCH  38  40
ATOM     39  C   UNL     1      90.827  53.704  39.416  0.00  0.00    -0.065 C 
ATOM     40  C   UNL     1      90.177  53.181  40.695  0.00  0.00    -0.056 C 
ENDBRANCH  38  40
ENDBRANCH  37  38
ENDBRANCH  36  37
ENDBRANCH  35  36
ENDBRANCH  34  35
ENDBRANCH  33  34
ENDBRANCH  32  33
ENDBRANCH  31  32
ENDBRANCH  30  31
ENDBRANCH  29  30
ENDBRANCH  26  29
ENDBRANCH  25  28
ENDBRANCH  24  25
ENDBRANCH   1  24
TORSDOF 28
ENDMDL
MODEL 3
REMARK VINA RESULT:    -7.080      1.841      3.786
REMARK INTER + INTRA:         -24.188
REMARK INTER:                 -19.186
REMARK INTRA:                  -5.002
REMARK UNBOUND:                -5.519
REMARK  Name = 
REMARK  30 active torsions:
REMARK  status: ('A' for Active; 'I' for Inactive)
REMARK    1  A    between atoms: C_1  and  C_2
REMARK    2  A    between atoms: C_2  and  C_3
REMARK    3  A    between atoms: C_3  and  C_4
REMARK    4  A    between atoms: C_4  and  C_5
REMARK    5  A    between atoms: C_5  and  C_6
REMARK    6  A    between atoms: C_6  and  C_7
REMARK    7  A    between atoms: C_7  and  C_8
REMARK    8  A    between atoms: C_8  and  C_9
REMARK    9  A    between atoms: C_9  and  C_10
REMARK   10  A    between atoms: C_10  and  C_11
REMARK   11  A    between atoms: C_11  and  C_12
REMARK   12  A    between atoms: C_12  and  C_13
REMARK   13  A    between atoms: C_15  and  C_16
REMARK   14  A    between atoms: C_16  and  C_17
REMARK   15  A    between atoms: C_17  and  C_18
REMARK   16  A    between atoms: C_20  and  C_21
REMARK   17  A    between atoms: C_21  and  C_22
REMARK   18  A    between atoms: C_22  and  C_23
REMARK   19  A    between atoms: C_23  and  C_24
REMARK   20  A    between atoms: C_24  and  C_25
REMARK   21  A    between atoms: C_25  and  C_26
REMARK   22  A    between atoms: C_26  and  C_27
REMARK   23  A    between atoms: C_27  and  C_28
REMARK   24  A    between atoms: C_28  and  C_29
REMARK   25  A    between atoms: C_29  and  C_30
REMARK   26  A    between atoms: C_30  and  C_31
REMARK   27  A    between atoms: C_31  and  C_32
REMARK   28  A    between atoms: C_32  and  C_33
REMARK   29  A    between atoms: C_33  and  C_34
REMARK   30  A    between atoms: C_36  and  C_40
REMARK                            x       y       z     vdW  Elec       q    Type
REMARK                         _______ _______ _______ _____ _____    ______ ____
ROOT
ATOM      1  C   UNL     1      80.827  46.871  43.893  0.00  0.00    +0.085 C 
ATOM      2  O   UNL     1      79.965  46.984  45.004  0.00  0.00    -0.368 OA
ATOM      3  C   UNL     1      80.564  48.176  44.544  0.00  0.00    +0.085 C 
ENDROOT
BRANCH   3   4
ATOM      4  C   UNL     1      79.549  49.092  43.858  0.00  0.00    -0.024 C 
BRANCH   4   5
ATOM      5  C   UNL     1      80.274  50.253  43.168  0.00  0.00    -0.051 C 
BRANCH   5   6
ATOM      6  C   UNL     1      81.786  50.259  43.442  0.00  0.00    -0.053 C 
BRANCH   6   7
ATOM      7  C   UNL     1      82.535  51.299  42.594  0.00  0.00    -0.053 C 
BRANCH   7   8
ATOM      8  C   UNL     1      83.785  51.808  43.323  0.00  0.00    -0.053 C 
BRANCH   8   9
ATOM      9  C   UNL     1      83.904  51.176  44.716  0.00  0.00    -0.053 C 
BRANCH   9  10
ATOM     10  C   UNL     1      84.481  52.172  45.729  0.00  0.00    -0.053 C 
BRANCH  10  11
ATOM     11  C   UNL     1      85.507  53.098  45.058  0.00  0.00    -0.053 C 
BRANCH  11  12
ATOM     12  C   UNL     1      86.388  53.842  46.075  0.00  0.00    -0.053 C 
BRANCH  12  13
ATOM     13  C   UNL     1      85.856  53.725  47.511  0.00  0.00    -0.053 C 
BRANCH  13  14
ATOM     14  C   UNL     1      85.366  55.082  48.030  0.00  0.00    -0.053 C 
BRANCH  14  15
ATOM     15  C   UNL     1      85.772  56.213  47.074  0.00  0.00    -0.049 C 
BRANCH  15  16
ATOM     16  C   UNL     1      84.557  56.933  46.473  0.00  0.00    -0.021 C 
BRANCH  16  17
ATOM     17  C   UNL     1      84.552  56.869  44.973  0.00  0.00    +0.036 C 
ATOM     18  C   UNL     1      83.860  56.011  44.233  0.00  0.00    -0.034 C 
ATOM     19  C   UNL     1      84.060  56.299  42.766  0.00  0.00    +0.120 C 
ATOM     20  O   UNL     1      84.943  57.418  42.760  0.00  0.00    -0.454 OA
ATOM     21  C   UNL     1      85.230  57.766  44.066  0.00  0.00    +0.336 C 
ATOM     22  O   UNL     1      85.973  58.728  44.394  0.00  0.00    -0.245 OA
ATOM     23  C   UNL     1      84.697  55.112  42.051  0.00  0.00    -0.024 C 
ENDBRANCH  16  17
ENDBRANCH  15  16
ENDBRANCH  14  15
ENDBRANCH  13  14
ENDBRANCH  12  13
ENDBRANCH  11  12
ENDBRANCH  10  11
ENDBRANCH   9  10
ENDBRANCH   8   9
ENDBRANCH   7   8
ENDBRANCH   6   7
ENDBRANCH   5   6
ENDBRANCH   4   5
ENDBRANCH   3   4
BRANCH   1  24
ATOM     24  C   UNL     1      82.159  46.206  44.257  0.00  0.00    -0.022 C 
BRANCH  24  25
ATOM     25  C   UNL     1      83.254  46.535  43.237  0.00  0.00    -0.022 C 
BRANCH  25  28
ATOM     26  C   UNL     1      85.716  46.473  44.221  0.00  0.00    +0.085 C 
ATOM     27  O   UNL     1      84.778  45.699  44.932  0.00  0.00    -0.368 OA
ATOM     28  C   UNL     1      84.570  45.801  43.540  0.00  0.00    +0.085 C 
BRANCH  26  29
ATOM     29  C   UNL     1      85.640  47.970  44.566  0.00  0.00    -0.024 C 
BRANCH  29  30
ATOM     30  C   UNL     1      86.788  48.767  43.911  0.00  0.00    -0.051 C 
BRANCH  30  31
ATOM     31  C   UNL     1      87.576  49.643  44.902  0.00  0.00    -0.053 C 
BRANCH  31  32
ATOM     32  C   UNL     1      87.989  51.022  44.359  0.00  0.00    -0.053 C 
BRANCH  32  33
ATOM     33  C   UNL     1      87.692  51.254  42.864  0.00  0.00    -0.053 C 
BRANCH  33  34
ATOM     34  C   UNL     1      88.913  51.608  41.998  0.00  0.00    -0.053 C 
BRANCH  34  35
ATOM     35  C   UNL     1      89.112  50.642  40.818  0.00  0.00    -0.053 C 
BRANCH  35  36
ATOM     36  C   UNL     1      89.546  49.234  41.266  0.00  0.00    -0.053 C 
BRANCH  36  37
ATOM     37  C   UNL     1      90.556  49.202  42.427  0.00  0.00    -0.053 C 
BRANCH  37  38
ATOM     38  C   UNL     1      90.621  47.835  43.128  0.00  0.00    -0.053 C 
BRANCH  38  40
ATOM     39  C   UNL     1      89.068  45.895  42.683  0.00  0.00    -0.065 C 
ATOM     40  C   UNL     1      90.254  46.704  42.162  0.00  0.00    -0.056 C 
ENDBRANCH  38  40
ENDBRANCH  37  38
ENDBRANCH  36  37
ENDBRANCH  35  36
ENDBRANCH  34  35
ENDBRANCH  33  34
ENDBRANCH  32  33
ENDBRANCH  31  32
ENDBRANCH  30  31
ENDBRANCH  29  30
ENDBRANCH  26  29
ENDBRANCH  25  28
ENDBRANCH  24  25
ENDBRANCH   1  24
TORSDOF 28
ENDMDL
MODEL 4
REMARK VINA RESULT:    -6.984      2.017      6.352
REMARK INTER + INTRA:         -23.935
REMARK INTER:                 -19.098
REMARK INTRA:                  -4.837
REMARK UNBOUND:                -5.519
REMARK  Name = 
REMARK  30 active torsions:
REMARK  status: ('A' for Active; 'I' for Inactive)
REMARK    1  A    between atoms: C_1  and  C_2
REMARK    2  A    between atoms: C_2  and  C_3
REMARK    3  A    between atoms: C_3  and  C_4
REMARK    4  A    between atoms: C_4  and  C_5
REMARK    5  A    between atoms: C_5  and  C_6
REMARK    6  A    between atoms: C_6  and  C_7
REMARK    7  A    between atoms: C_7  and  C_8
REMARK    8  A    between atoms: C_8  and  C_9
REMARK    9  A    between atoms: C_9  and  C_10
REMARK   10  A    between atoms: C_10  and  C_11
REMARK   11  A    between atoms: C_11  and  C_12
REMARK   12  A    between atoms: C_12  and  C_13
REMARK   13  A    between atoms: C_15  and  C_16
REMARK   14  A    between atoms: C_16  and  C_17
REMARK   15  A    between atoms: C_17  and  C_18
REMARK   16  A    between atoms: C_20  and  C_21
REMARK   17  A    between atoms: C_21  and  C_22
REMARK   18  A    between atoms: C_22  and  C_23
REMARK   19  A    between atoms: C_23  and  C_24
REMARK   20  A    between atoms: C_24  and  C_25
REMARK   21  A    between atoms: C_25  and  C_26
REMARK   22  A    between atoms: C_26  and  C_27
REMARK   23  A    between atoms: C_27  and  C_28
REMARK   24  A    between atoms: C_28  and  C_29
REMARK   25  A    between atoms: C_29  and  C_30
REMARK   26  A    between atoms: C_30  and  C_31
REMARK   27  A    between atoms: C_31  and  C_32
REMARK   28  A    between atoms: C_32  and  C_33
REMARK   29  A    between atoms: C_33  and  C_34
REMARK   30  A    between atoms: C_36  and  C_40
REMARK                            x       y       z     vdW  Elec       q    Type
REMARK                         _______ _______ _______ _____ _____    ______ ____
ROOT
ATOM      1  C   UNL     1      85.384  45.905  44.220  0.00  0.00    +0.085 C 
ATOM      2  O   UNL     1      86.358  44.892  44.340  0.00  0.00    -0.368 OA
ATOM      3  C   UNL     1      86.261  45.531  43.086  0.00  0.00    +0.085 C 
ENDROOT
BRANCH   3   4
ATOM      4  C   UNL     1      87.462  46.442  42.820  0.00  0.00    -0.024 C 
BRANCH   4   5
ATOM      5  C   UNL     1      88.702  45.595  42.512  0.00  0.00    -0.051 C 
BRANCH   5   6
ATOM      6  C   UNL     1      89.906  46.441  42.066  0.00  0.00    -0.053 C 
BRANCH   6   7
ATOM      7  C   UNL     1      90.600  47.145  43.242  0.00  0.00    -0.053 C 
BRANCH   7   8
ATOM      8  C   UNL     1      90.425  48.667  43.154  0.00  0.00    -0.053 C 
BRANCH   8   9
ATOM      9  C   UNL     1      90.206  49.111  41.703  0.00  0.00    -0.053 C 
BRANCH   9  10
ATOM     10  C   UNL     1      89.018  50.075  41.593  0.00  0.00    -0.053 C 
BRANCH  10  11
ATOM     11  C   UNL     1      89.504  51.516  41.370  0.00  0.00    -0.053 C 
BRANCH  11  12
ATOM     12  C   UNL     1      88.429  52.562  41.703  0.00  0.00    -0.053 C 
BRANCH  12  13
ATOM     13  C   UNL     1      87.017  52.102  41.310  0.00  0.00    -0.053 C 
BRANCH  13  14
ATOM     14  C   UNL     1      86.017  53.261  41.388  0.00  0.00    -0.053 C 
BRANCH  14  15
ATOM     15  C   UNL     1      86.282  54.130  42.625  0.00  0.00    -0.049 C 
BRANCH  15  16
ATOM     16  C   UNL     1      85.278  55.285  42.753  0.00  0.00    -0.021 C 
BRANCH  16  17
ATOM     17  C   UNL     1      85.346  55.942  44.101  0.00  0.00    +0.036 C 
ATOM     18  C   UNL     1      85.413  55.316  45.270  0.00  0.00    -0.034 C 
ATOM     19  C   UNL     1      85.534  56.312  46.396  0.00  0.00    +0.120 C 
ATOM     20  O   UNL     1      85.530  57.574  45.731  0.00  0.00    -0.454 OA
ATOM     21  C   UNL     1      85.427  57.359  44.370  0.00  0.00    +0.336 C 
ATOM     22  O   UNL     1      85.413  58.277  43.510  0.00  0.00    -0.245 OA
ATOM     23  C   UNL     1      84.353  56.210  47.356  0.00  0.00    -0.024 C 
ENDBRANCH  16  17
ENDBRANCH  15  16
ENDBRANCH  14  15
ENDBRANCH  13  14
ENDBRANCH  12  13
ENDBRANCH  11  12
ENDBRANCH  10  11
ENDBRANCH   9  10
ENDBRANCH   8   9
ENDBRANCH   7   8
ENDBRANCH   6   7
ENDBRANCH   5   6
ENDBRANCH   4   5
ENDBRANCH   3   4
BRANCH   1  24
ATOM     24  C   UNL     1      83.960  45.338  44.171  0.00  0.00    -0.022 C 
BRANCH  24  25
ATOM     25  C   UNL     1      82.957  46.372  43.648  0.00  0.00    -0.022 C 
BRANCH  25  28
ATOM     26  C   UNL     1      80.821  47.510  44.730  0.00  0.00    +0.085 C 
ATOM     27  O   UNL     1      80.565  46.775  43.555  0.00  0.00    -0.368 OA
ATOM     28  C   UNL     1      81.606  46.291  44.376  0.00  0.00    +0.085 C 
BRANCH  26  29
ATOM     29  C   UNL     1      81.394  48.909  44.447  0.00  0.00    -0.024 C 
BRANCH  29  30
ATOM     30  C   UNL     1      80.373  49.808  43.717  0.00  0.00    -0.051 C 
BRANCH  30  31
ATOM     31  C   UNL     1      80.925  50.451  42.432  0.00  0.00    -0.053 C 
BRANCH  31  32
ATOM     32  C   UNL     1      81.489  51.872  42.610  0.00  0.00    -0.053 C 
BRANCH  32  33
ATOM     33  C   UNL     1      83.027  51.962  42.672  0.00  0.00    -0.053 C 
BRANCH  33  34
ATOM     34  C   UNL     1      83.622  52.071  44.087  0.00  0.00    -0.053 C 
BRANCH  34  35
ATOM     35  C   UNL     1      84.711  51.019  44.360  0.00  0.00    -0.053 C 
BRANCH  35  36
ATOM     36  C   UNL     1      85.863  51.564  45.225  0.00  0.00    -0.053 C 
BRANCH  36  37
ATOM     37  C   UNL     1      87.272  51.132  44.780  0.00  0.00    -0.053 C 
BRANCH  37  38
ATOM     38  C   UNL     1      87.891  50.066  45.698  0.00  0.00    -0.053 C 
BRANCH  38  40
ATOM     39  C   UNL     1      88.208  50.082  48.203  0.00  0.00    -0.065 C 
ATOM     40  C   UNL     1      87.194  50.043  47.062  0.00  0.00    -0.056 C 
ENDBRANCH  38  40
ENDBRANCH  37  38
ENDBRANCH  36  37
ENDBRANCH  35  36
ENDBRANCH  34  35
ENDBRANCH  33  34
ENDBRANCH  32  33
ENDBRANCH  31  32
ENDBRANCH  30  31
ENDBRANCH  29  30
ENDBRANCH  26  29
ENDBRANCH  25  28
ENDBRANCH  24  25
ENDBRANCH   1  24
TORSDOF 28
ENDMDL
MODEL 5
REMARK VINA RESULT:    -6.964      2.065      3.509
REMARK INTER + INTRA:         -23.882
REMARK INTER:                 -19.011
REMARK INTRA:                  -4.871
REMARK UNBOUND:                -5.519
REMARK  Name = 
REMARK  30 active torsions:
REMARK  status: ('A' for Active; 'I' for Inactive)
REMARK    1  A    between atoms: C_1  and  C_2
REMARK    2  A    between atoms: C_2  and  C_3
REMARK    3  A    between atoms: C_3  and  C_4
REMARK    4  A    between atoms: C_4  and  C_5
REMARK    5  A    between atoms: C_5  and  C_6
REMARK    6  A    between atoms: C_6  and  C_7
REMARK    7  A    between atoms: C_7  and  C_8
REMARK    8  A    between atoms: C_8  and  C_9
REMARK    9  A    between atoms: C_9  and  C_10
REMARK   10  A    between atoms: C_10  and  C_11
REMARK   11  A    between atoms: C_11  and  C_12
REMARK   12  A    between atoms: C_12  and  C_13
REMARK   13  A    between atoms: C_15  and  C_16
REMARK   14  A    between atoms: C_16  and  C_17
REMARK   15  A    between atoms: C_17  and  C_18
REMARK   16  A    between atoms: C_20  and  C_21
REMARK   17  A    between atoms: C_21  and  C_22
REMARK   18  A    between atoms: C_22  and  C_23
REMARK   19  A    between atoms: C_23  and  C_24
REMARK   20  A    between atoms: C_24  and  C_25
REMARK   21  A    between atoms: C_25  and  C_26
REMARK   22  A    between atoms: C_26  and  C_27
REMARK   23  A    between atoms: C_27  and  C_28
REMARK   24  A    between atoms: C_28  and  C_29
REMARK   25  A    between atoms: C_29  and  C_30
REMARK   26  A    between atoms: C_30  and  C_31
REMARK   27  A    between atoms: C_31  and  C_32
REMARK   28  A    between atoms: C_32  and  C_33
REMARK   29  A    between atoms: C_33  and  C_34
REMARK   30  A    between atoms: C_36  and  C_40
REMARK                            x       y       z     vdW  Elec       q    Type
REMARK                         _______ _______ _______ _____ _____    ______ ____
ROOT
ATOM      1  C   UNL     1      83.036  50.683  42.660  0.00  0.00    +0.085 C 
ATOM      2  O   UNL     1      83.198  52.039  42.307  0.00  0.00    -0.368 OA
ATOM      3  C   UNL     1      84.096  51.523  43.265  0.00  0.00    +0.085 C 
ENDROOT
BRANCH   3   4
ATOM      4  C   UNL     1      85.506  51.363  42.691  0.00  0.00    -0.024 C 
BRANCH   4   5
ATOM      5  C   UNL     1      86.495  52.227  43.483  0.00  0.00    -0.051 C 
BRANCH   5   6
ATOM      6  C   UNL     1      87.378  51.403  44.433  0.00  0.00    -0.053 C 
BRANCH   6   7
ATOM      7  C   UNL     1      86.571  50.725  45.550  0.00  0.00    -0.053 C 
BRANCH   7   8
ATOM      8  C   UNL     1      87.438  50.495  46.795  0.00  0.00    -0.053 C 
BRANCH   8   9
ATOM      9  C   UNL     1      86.796  51.127  48.036  0.00  0.00    -0.053 C 
BRANCH   9  10
ATOM     10  C   UNL     1      86.072  52.431  47.681  0.00  0.00    -0.053 C 
BRANCH  10  11
ATOM     11  C   UNL     1      85.074  52.819  48.783  0.00  0.00    -0.053 C 
BRANCH  11  12
ATOM     12  C   UNL     1      83.855  53.580  48.239  0.00  0.00    -0.053 C 
BRANCH  12  13
ATOM     13  C   UNL     1      83.948  55.094  48.483  0.00  0.00    -0.053 C 
BRANCH  13  14
ATOM     14  C   UNL     1      84.148  55.854  47.167  0.00  0.00    -0.053 C 
BRANCH  14  15
ATOM     15  C   UNL     1      85.597  56.345  47.032  0.00  0.00    -0.049 C 
BRANCH  15  16
ATOM     16  C   UNL     1      86.296  55.769  45.794  0.00  0.00    -0.021 C 
BRANCH  16  17
ATOM     17  C   UNL     1      85.522  56.036  44.536  0.00  0.00    +0.036 C 
ATOM     18  C   UNL     1      84.731  55.173  43.911  0.00  0.00    -0.034 C 
ATOM     19  C   UNL     1      84.075  55.825  42.719  0.00  0.00    +0.120 C 
ATOM     20  O   UNL     1      84.584  57.157  42.743  0.00  0.00    -0.454 OA
ATOM     21  C   UNL     1      85.435  57.290  43.822  0.00  0.00    +0.336 C 
ATOM     22  O   UNL     1      86.033  58.355  44.124  0.00  0.00    -0.245 OA
ATOM     23  C   UNL     1      84.464  55.127  41.421  0.00  0.00    -0.024 C 
ENDBRANCH  16  17
ENDBRANCH  15  16
ENDBRANCH  14  15
ENDBRANCH  13  14
ENDBRANCH  12  13
ENDBRANCH  11  12
ENDBRANCH  10  11
ENDBRANCH   9  10
ENDBRANCH   8   9
ENDBRANCH   7   8
ENDBRANCH   6   7
ENDBRANCH   5   6
ENDBRANCH   4   5
ENDBRANCH   3   4
BRANCH   1  24
ATOM     24  C   UNL     1      81.795  50.456  43.532  0.00  0.00    -0.022 C 
BRANCH  24  25
ATOM     25  C   UNL     1      81.959  49.235  44.443  0.00  0.00    -0.022 C 
BRANCH  25  28
ATOM     26  C   UNL     1      83.249  47.103  43.536  0.00  0.00    +0.085 C 
ATOM     27  O   UNL     1      82.263  46.827  44.505  0.00  0.00    -0.368 OA
ATOM     28  C   UNL     1      82.005  47.919  43.649  0.00  0.00    +0.085 C 
BRANCH  26  29
ATOM     29  C   UNL     1      84.565  47.610  44.151  0.00  0.00    -0.024 C 
BRANCH  29  30
ATOM     30  C   UNL     1      85.794  46.927  43.512  0.00  0.00    -0.051 C 
BRANCH  30  31
ATOM     31  C   UNL     1      86.875  47.918  43.043  0.00  0.00    -0.053 C 
BRANCH  31  32
ATOM     32  C   UNL     1      87.915  47.329  42.073  0.00  0.00    -0.053 C 
BRANCH  32  33
ATOM     33  C   UNL     1      89.261  46.938  42.714  0.00  0.00    -0.053 C 
BRANCH  33  34
ATOM     34  C   UNL     1      90.185  48.117  43.071  0.00  0.00    -0.053 C 
BRANCH  34  35
ATOM     35  C   UNL     1      90.585  48.957  41.847  0.00  0.00    -0.053 C 
BRANCH  35  36
ATOM     36  C   UNL     1      89.992  50.378  41.878  0.00  0.00    -0.053 C 
BRANCH  36  37
ATOM     37  C   UNL     1      88.815  50.614  40.915  0.00  0.00    -0.053 C 
BRANCH  37  38
ATOM     38  C   UNL     1      88.661  52.087  40.504  0.00  0.00    -0.053 C 
BRANCH  38  40
ATOM     39  C   UNL     1      90.590  53.617  39.943  0.00  0.00    -0.065 C 
ATOM     40  C   UNL     1      89.808  52.936  41.064  0.00  0.00    -0.056 C 
ENDBRANCH  38  40
ENDBRANCH  37  38
ENDBRANCH  36  37
ENDBRANCH  35  36
ENDBRANCH  34  35
ENDBRANCH  33  34
ENDBRANCH  32  33
ENDBRANCH  31  32
ENDBRANCH  30  31
ENDBRANCH  29  30
ENDBRANCH  26  29
ENDBRANCH  25  28
ENDBRANCH  24  25
ENDBRANCH   1  24
TORSDOF 28
ENDMDL
MODEL 6
REMARK VINA RESULT:    -6.930      1.270      8.430
REMARK INTER + INTRA:         -23.792
REMARK INTER:                 -18.131
REMARK INTRA:                  -5.661
REMARK UNBOUND:                -5.519
REMARK  Name = 
REMARK  30 active torsions:
REMARK  status: ('A' for Active; 'I' for Inactive)
REMARK    1  A    between atoms: C_1  and  C_2
REMARK    2  A    between atoms: C_2  and  C_3
REMARK    3  A    between atoms: C_3  and  C_4
REMARK    4  A    between atoms: C_4  and  C_5
REMARK    5  A    between atoms: C_5  and  C_6
REMARK    6  A    between atoms: C_6  and  C_7
REMARK    7  A    between atoms: C_7  and  C_8
REMARK    8  A    between atoms: C_8  and  C_9
REMARK    9  A    between atoms: C_9  and  C_10
REMARK   10  A    between atoms: C_10  and  C_11
REMARK   11  A    between atoms: C_11  and  C_12
REMARK   12  A    between atoms: C_12  and  C_13
REMARK   13  A    between atoms: C_15  and  C_16
REMARK   14  A    between atoms: C_16  and  C_17
REMARK   15  A    between atoms: C_17  and  C_18
REMARK   16  A    between atoms: C_20  and  C_21
REMARK   17  A    between atoms: C_21  and  C_22
REMARK   18  A    between atoms: C_22  and  C_23
REMARK   19  A    between atoms: C_23  and  C_24
REMARK   20  A    between atoms: C_24  and  C_25
REMARK   21  A    between atoms: C_25  and  C_26
REMARK   22  A    between atoms: C_26  and  C_27
REMARK   23  A    between atoms: C_27  and  C_28
REMARK   24  A    between atoms: C_28  and  C_29
REMARK   25  A    between atoms: C_29  and  C_30
REMARK   26  A    between atoms: C_30  and  C_31
REMARK   27  A    between atoms: C_31  and  C_32
REMARK   28  A    between atoms: C_32  and  C_33
REMARK   29  A    between atoms: C_33  and  C_34
REMARK   30  A    between atoms: C_36  and  C_40
REMARK                            x       y       z     vdW  Elec       q    Type
REMARK                         _______ _______ _______ _____ _____    ______ ____
ROOT
ATOM      1  C   UNL     1      81.574  51.503  42.906  0.00  0.00    +0.085 C 
ATOM      2  O   UNL     1      80.474  50.654  42.665  0.00  0.00    -0.368 OA
ATOM      3  C   UNL     1      81.742  50.040  42.745  0.00  0.00    +0.085 C 
ENDROOT
BRANCH   3   4
ATOM      4  C   UNL     1      81.896  49.223  44.029  0.00  0.00    -0.024 C 
BRANCH   4   5
ATOM      5  C   UNL     1      83.151  48.346  43.944  0.00  0.00    -0.051 C 
BRANCH   5   6
ATOM      6  C   UNL     1      84.450  49.144  44.137  0.00  0.00    -0.053 C 
BRANCH   6   7
ATOM      7  C   UNL     1      85.530  48.341  44.879  0.00  0.00    -0.053 C 
BRANCH   7   8
ATOM      8  C   UNL     1      86.936  48.801  44.472  0.00  0.00    -0.053 C 
BRANCH   8   9
ATOM      9  C   UNL     1      86.866  49.910  43.414  0.00  0.00    -0.053 C 
BRANCH   9  10
ATOM     10  C   UNL     1      88.140  50.763  43.422  0.00  0.00    -0.053 C 
BRANCH  10  11
ATOM     11  C   UNL     1      88.489  51.235  42.002  0.00  0.00    -0.053 C 
BRANCH  11  12
ATOM     12  C   UNL     1      89.817  50.653  41.493  0.00  0.00    -0.053 C 
BRANCH  12  13
ATOM     13  C   UNL     1      90.324  49.492  42.363  0.00  0.00    -0.053 C 
BRANCH  13  14
ATOM     14  C   UNL     1      90.160  48.149  41.643  0.00  0.00    -0.053 C 
BRANCH  14  15
ATOM     15  C   UNL     1      89.543  47.098  42.577  0.00  0.00    -0.049 C 
BRANCH  15  16
ATOM     16  C   UNL     1      88.317  46.414  41.958  0.00  0.00    -0.021 C 
BRANCH  16  17
ATOM     17  C   UNL     1      87.804  45.295  42.816  0.00  0.00    +0.036 C 
ATOM     18  C   UNL     1      88.548  44.399  43.454  0.00  0.00    -0.034 C 
ATOM     19  C   UNL     1      87.679  43.473  44.267  0.00  0.00    +0.120 C 
ATOM     20  O   UNL     1      86.357  43.948  44.018  0.00  0.00    -0.454 OA
ATOM     21  C   UNL     1      86.427  45.033  43.166  0.00  0.00    +0.336 C 
ATOM     22  O   UNL     1      85.426  45.685  42.769  0.00  0.00    -0.245 OA
ATOM     23  C   UNL     1      87.823  42.027  43.803  0.00  0.00    -0.024 C 
ENDBRANCH  16  17
ENDBRANCH  15  16
ENDBRANCH  14  15
ENDBRANCH  13  14
ENDBRANCH  12  13
ENDBRANCH  11  12
ENDBRANCH  10  11
ENDBRANCH   9  10
ENDBRANCH   8   9
ENDBRANCH   7   8
ENDBRANCH   6   7
ENDBRANCH   5   6
ENDBRANCH   4   5
ENDBRANCH   3   4
BRANCH   1  24
ATOM     24  C   UNL     1      81.932  52.350  41.678  0.00  0.00    -0.022 C 
BRANCH  24  25
ATOM     25  C   UNL     1      82.498  53.716  42.078  0.00  0.00    -0.022 C 
BRANCH  25  28
ATOM     26  C   UNL     1      85.057  54.017  41.451  0.00  0.00    +0.085 C 
ATOM     27  O   UNL     1      84.360  53.089  40.652  0.00  0.00    -0.368 OA
ATOM     28  C   UNL     1      83.610  54.186  41.127  0.00  0.00    +0.085 C 
BRANCH  26  29
ATOM     29  C   UNL     1      85.482  53.434  42.810  0.00  0.00    -0.024 C 
BRANCH  29  30
ATOM     30  C   UNL     1      86.268  54.462  43.652  0.00  0.00    -0.051 C 
BRANCH  30  31
ATOM     31  C   UNL     1      85.698  55.891  43.572  0.00  0.00    -0.053 C 
BRANCH  31  32
ATOM     32  C   UNL     1      86.259  56.870  44.619  0.00  0.00    -0.053 C 
BRANCH  32  33
ATOM     33  C   UNL     1      86.121  56.412  46.084  0.00  0.00    -0.053 C 
BRANCH  33  34
ATOM     34  C   UNL     1      84.728  56.615  46.707  0.00  0.00    -0.053 C 
BRANCH  34  35
ATOM     35  C   UNL     1      84.330  55.480  47.666  0.00  0.00    -0.053 C 
BRANCH  35  36
ATOM     36  C   UNL     1      85.134  54.188  47.430  0.00  0.00    -0.053 C 
BRANCH  36  37
ATOM     37  C   UNL     1      84.387  53.088  46.655  0.00  0.00    -0.053 C 
BRANCH  37  38
ATOM     38  C   UNL     1      85.310  51.953  46.185  0.00  0.00    -0.053 C 
BRANCH  38  40
ATOM     39  C   UNL     1      87.305  50.906  47.324  0.00  0.00    -0.065 C 
ATOM     40  C   UNL     1      86.745  52.170  46.677  0.00  0.00    -0.056 C 
ENDBRANCH  38  40
ENDBRANCH  37  38
ENDBRANCH  36  37
ENDBRANCH  35  36
ENDBRANCH  34  35
ENDBRANCH  33  34
ENDBRANCH  32  33
ENDBRANCH  31  32
ENDBRANCH  30  31
ENDBRANCH  29  30
ENDBRANCH  26  29
ENDBRANCH  25  28
ENDBRANCH  24  25
ENDBRANCH   1  24
TORSDOF 28
ENDMDL
MODEL 7
REMARK VINA RESULT:    -6.914      2.061      7.562
REMARK INTER + INTRA:         -23.751
REMARK INTER:                 -18.232
REMARK INTRA:                  -5.519
REMARK UNBOUND:                -5.519
REMARK  Name = 
REMARK  30 active torsions:
REMARK  status: ('A' for Active; 'I' for Inactive)
REMARK    1  A    between atoms: C_1  and  C_2
REMARK    2  A    between atoms: C_2  and  C_3
REMARK    3  A    between atoms: C_3  and  C_4
REMARK    4  A    between atoms: C_4  and  C_5
REMARK    5  A    between atoms: C_5  and  C_6
REMARK    6  A    between atoms: C_6  and  C_7
REMARK    7  A    between atoms: C_7  and  C_8
REMARK    8  A    between atoms: C_8  and  C_9
REMARK    9  A    between atoms: C_9  and  C_10
REMARK   10  A    between atoms: C_10  and  C_11
REMARK   11  A    between atoms: C_11  and  C_12
REMARK   12  A    between atoms: C_12  and  C_13
REMARK   13  A    between atoms: C_15  and  C_16
REMARK   14  A    between atoms: C_16  and  C_17
REMARK   15  A    between atoms: C_17  and  C_18
REMARK   16  A    between atoms: C_20  and  C_21
REMARK   17  A    between atoms: C_21  and  C_22
REMARK   18  A    between atoms: C_22  and  C_23
REMARK   19  A    between atoms: C_23  and  C_24
REMARK   20  A    between atoms: C_24  and  C_25
REMARK   21  A    between atoms: C_25  and  C_26
REMARK   22  A    between atoms: C_26  and  C_27
REMARK   23  A    between atoms: C_27  and  C_28
REMARK   24  A    between atoms: C_28  and  C_29
REMARK   25  A    between atoms: C_29  and  C_30
REMARK   26  A    between atoms: C_30  and  C_31
REMARK   27  A    between atoms: C_31  and  C_32
REMARK   28  A    between atoms: C_32  and  C_33
REMARK   29  A    between atoms: C_33  and  C_34
REMARK   30  A    between atoms: C_36  and  C_40
REMARK                            x       y       z     vdW  Elec       q    Type
REMARK                         _______ _______ _______ _____ _____    ______ ____
ROOT
ATOM      1  C   UNL     1      82.046  51.863  42.818  0.00  0.00    +0.085 C 
ATOM      2  O   UNL     1      80.667  51.565  42.795  0.00  0.00    -0.368 OA
ATOM      3  C   UNL     1      81.553  50.472  42.685  0.00  0.00    +0.085 C 
ENDROOT
BRANCH   3   4
ATOM      4  C   UNL     1      81.562  49.620  43.956  0.00  0.00    -0.024 C 
BRANCH   4   5
ATOM      5  C   UNL     1      81.211  48.167  43.614  0.00  0.00    -0.051 C 
BRANCH   5   6
ATOM      6  C   UNL     1      82.357  47.189  43.920  0.00  0.00    -0.053 C 
BRANCH   6   7
ATOM      7  C   UNL     1      82.921  46.526  42.654  0.00  0.00    -0.053 C 
BRANCH   7   8
ATOM      8  C   UNL     1      84.411  46.199  42.821  0.00  0.00    -0.053 C 
BRANCH   8   9
ATOM      9  C   UNL     1      84.909  46.602  44.215  0.00  0.00    -0.053 C 
BRANCH   9  10
ATOM     10  C   UNL     1      86.074  47.594  44.120  0.00  0.00    -0.053 C 
BRANCH  10  11
ATOM     11  C   UNL     1      85.792  48.848  44.962  0.00  0.00    -0.053 C 
BRANCH  11  12
ATOM     12  C   UNL     1      85.090  49.955  44.160  0.00  0.00    -0.053 C 
BRANCH  12  13
ATOM     13  C   UNL     1      84.713  51.164  45.030  0.00  0.00    -0.053 C 
BRANCH  13  14
ATOM     14  C   UNL     1      85.257  52.466  44.431  0.00  0.00    -0.053 C 
BRANCH  14  15
ATOM     15  C   UNL     1      86.791  52.435  44.357  0.00  0.00    -0.049 C 
BRANCH  15  16
ATOM     16  C   UNL     1      87.322  52.976  43.023  0.00  0.00    -0.021 C 
BRANCH  16  17
ATOM     17  C   UNL     1      88.287  52.026  42.375  0.00  0.00    +0.036 C 
ATOM     18  C   UNL     1      88.287  50.705  42.508  0.00  0.00    -0.034 C 
ATOM     19  C   UNL     1      89.367  50.088  41.655  0.00  0.00    +0.120 C 
ATOM     20  O   UNL     1      89.978  51.211  41.023  0.00  0.00    -0.454 OA
ATOM     21  C   UNL     1      89.336  52.361  41.440  0.00  0.00    +0.336 C 
ATOM     22  O   UNL     1      89.634  53.519  41.046  0.00  0.00    -0.245 OA
ATOM     23  C   UNL     1      90.384  49.336  42.507  0.00  0.00    -0.024 C 
ENDBRANCH  16  17
ENDBRANCH  15  16
ENDBRANCH  14  15
ENDBRANCH  13  14
ENDBRANCH  12  13
ENDBRANCH  11  12
ENDBRANCH  10  11
ENDBRANCH   9  10
ENDBRANCH   8   9
ENDBRANCH   7   8
ENDBRANCH   6   7
ENDBRANCH   5   6
ENDBRANCH   4   5
ENDBRANCH   3   4
BRANCH   1  24
ATOM     24  C   UNL     1      82.516  52.525  41.517  0.00  0.00    -0.022 C 
BRANCH  24  25
ATOM     25  C   UNL     1      82.124  54.005  41.461  0.00  0.00    -0.022 C 
BRANCH  25  28
ATOM     26  C   UNL     1      84.287  55.494  41.093  0.00  0.00    +0.085 C 
ATOM     27  O   UNL     1      84.340  54.221  40.492  0.00  0.00    -0.368 OA
ATOM     28  C   UNL     1      83.065  54.823  40.561  0.00  0.00    +0.085 C 
BRANCH  26  29
ATOM     29  C   UNL     1      84.597  55.458  42.599  0.00  0.00    -0.024 C 
BRANCH  29  30
ATOM     30  C   UNL     1      84.386  56.837  43.260  0.00  0.00    -0.051 C 
BRANCH  30  31
ATOM     31  C   UNL     1      85.589  57.312  44.094  0.00  0.00    -0.053 C 
BRANCH  31  32
ATOM     32  C   UNL     1      86.608  56.213  44.446  0.00  0.00    -0.053 C 
BRANCH  32  33
ATOM     33  C   UNL     1      86.529  55.687  45.892  0.00  0.00    -0.053 C 
BRANCH  33  34
ATOM     34  C   UNL     1      85.142  55.787  46.554  0.00  0.00    -0.053 C 
BRANCH  34  35
ATOM     35  C   UNL     1      85.062  55.036  47.893  0.00  0.00    -0.053 C 
BRANCH  35  36
ATOM     36  C   UNL     1      84.279  53.715  47.791  0.00  0.00    -0.053 C 
BRANCH  36  37
ATOM     37  C   UNL     1      84.407  52.785  49.012  0.00  0.00    -0.053 C 
BRANCH  37  38
ATOM     38  C   UNL     1      85.830  52.236  49.201  0.00  0.00    -0.053 C 
BRANCH  38  40
ATOM     39  C   UNL     1      87.343  50.531  48.118  0.00  0.00    -0.065 C 
ATOM     40  C   UNL     1      86.394  51.704  47.880  0.00  0.00    -0.056 C 
ENDBRANCH  38  40
ENDBRANCH  37  38
ENDBRANCH  36  37
ENDBRANCH  35  36
ENDBRANCH  34  35
ENDBRANCH  33  34
ENDBRANCH  32  33
ENDBRANCH  31  32
ENDBRANCH  30  31
ENDBRANCH  29  30
ENDBRANCH  26  29
ENDBRANCH  25  28
ENDBRANCH  24  25
ENDBRANCH   1  24
TORSDOF 28
ENDMDL
MODEL 8
REMARK VINA RESULT:    -6.896      1.532      6.640
REMARK INTER + INTRA:         -23.703
REMARK INTER:                 -19.261
REMARK INTRA:                  -4.442
REMARK UNBOUND:                -5.519
REMARK  Name = 
REMARK  30 active torsions:
REMARK  status: ('A' for Active; 'I' for Inactive)
REMARK    1  A    between atoms: C_1  and  C_2
REMARK    2  A    between atoms: C_2  and  C_3
REMARK    3  A    between atoms: C_3  and  C_4
REMARK    4  A    between atoms: C_4  and  C_5
REMARK    5  A    between atoms: C_5  and  C_6
REMARK    6  A    between atoms: C_6  and  C_7
REMARK    7  A    between atoms: C_7  and  C_8
REMARK    8  A    between atoms: C_8  and  C_9
REMARK    9  A    between atoms: C_9  and  C_10
REMARK   10  A    between atoms: C_10  and  C_11
REMARK   11  A    between atoms: C_11  and  C_12
REMARK   12  A    between atoms: C_12  and  C_13
REMARK   13  A    between atoms: C_15  and  C_16
REMARK   14  A    between atoms: C_16  and  C_17
REMARK   15  A    between atoms: C_17  and  C_18
REMARK   16  A    between atoms: C_20  and  C_21
REMARK   17  A    between atoms: C_21  and  C_22
REMARK   18  A    between atoms: C_22  and  C_23
REMARK   19  A    between atoms: C_23  and  C_24
REMARK   20  A    between atoms: C_24  and  C_25
REMARK   21  A    between atoms: C_25  and  C_26
REMARK   22  A    between atoms: C_26  and  C_27
REMARK   23  A    between atoms: C_27  and  C_28
REMARK   24  A    between atoms: C_28  and  C_29
REMARK   25  A    between atoms: C_29  and  C_30
REMARK   26  A    between atoms: C_30  and  C_31
REMARK   27  A    between atoms: C_31  and  C_32
REMARK   28  A    between atoms: C_32  and  C_33
REMARK   29  A    between atoms: C_33  and  C_34
REMARK   30  A    between atoms: C_36  and  C_40
REMARK                            x       y       z     vdW  Elec       q    Type
REMARK                         _______ _______ _______ _____ _____    ______ ____
ROOT
ATOM      1  C   UNL     1      85.397  55.902  43.603  0.00  0.00    +0.085 C 
ATOM      2  O   UNL     1      86.044  57.141  43.797  0.00  0.00    -0.368 OA
ATOM      3  C   UNL     1      85.402  56.580  44.921  0.00  0.00    +0.085 C 
ENDROOT
BRANCH   3   4
ATOM      4  C   UNL     1      86.409  56.066  45.951  0.00  0.00    -0.024 C 
BRANCH   4   5
ATOM      5  C   UNL     1      85.780  56.076  47.349  0.00  0.00    -0.051 C 
BRANCH   5   6
ATOM      6  C   UNL     1      84.290  56.451  47.330  0.00  0.00    -0.053 C 
BRANCH   6   7
ATOM      7  C   UNL     1      83.413  55.419  48.057  0.00  0.00    -0.053 C 
BRANCH   7   8
ATOM      8  C   UNL     1      84.271  54.324  48.703  0.00  0.00    -0.053 C 
BRANCH   8   9
ATOM      9  C   UNL     1      84.304  53.064  47.829  0.00  0.00    -0.053 C 
BRANCH   9  10
ATOM     10  C   UNL     1      85.631  52.314  47.989  0.00  0.00    -0.053 C 
BRANCH  10  11
ATOM     11  C   UNL     1      86.506  52.479  46.737  0.00  0.00    -0.053 C 
BRANCH  11  12
ATOM     12  C   UNL     1      87.692  51.503  46.709  0.00  0.00    -0.053 C 
BRANCH  12  13
ATOM     13  C   UNL     1      87.664  50.576  45.484  0.00  0.00    -0.053 C 
BRANCH  13  14
ATOM     14  C   UNL     1      86.541  49.539  45.602  0.00  0.00    -0.053 C 
BRANCH  14  15
ATOM     15  C   UNL     1      86.088  49.062  44.214  0.00  0.00    -0.049 C 
BRANCH  15  16
ATOM     16  C   UNL     1      85.505  47.643  44.247  0.00  0.00    -0.021 C 
BRANCH  16  17
ATOM     17  C   UNL     1      84.031  47.634  43.963  0.00  0.00    +0.036 C 
ATOM     18  C   UNL     1      83.243  48.701  43.903  0.00  0.00    -0.034 C 
ATOM     19  C   UNL     1      81.838  48.299  43.530  0.00  0.00    +0.120 C 
ATOM     20  O   UNL     1      81.921  46.883  43.384  0.00  0.00    -0.454 OA
ATOM     21  C   UNL     1      83.220  46.485  43.631  0.00  0.00    +0.336 C 
ATOM     22  O   UNL     1      83.618  45.292  43.566  0.00  0.00    -0.245 OA
ATOM     23  C   UNL     1      80.847  48.666  44.629  0.00  0.00    -0.024 C 
ENDBRANCH  16  17
ENDBRANCH  15  16
ENDBRANCH  14  15
ENDBRANCH  13  14
ENDBRANCH  12  13
ENDBRANCH  11  12
ENDBRANCH  10  11
ENDBRANCH   9  10
ENDBRANCH   8   9
ENDBRANCH   7   8
ENDBRANCH   6   7
ENDBRANCH   5   6
ENDBRANCH   4   5
ENDBRANCH   3   4
BRANCH   1  24
ATOM     24  C   UNL     1      84.105  56.044  42.791  0.00  0.00    -0.022 C 
BRANCH  24  25
ATOM     25  C   UNL     1      83.736  54.738  42.081  0.00  0.00    -0.022 C 
BRANCH  25  28
ATOM     26  C   UNL     1      85.636  53.393  40.811  0.00  0.00    +0.085 C 
ATOM     27  O   UNL     1      84.338  53.210  40.293  0.00  0.00    -0.368 OA
ATOM     28  C   UNL     1      84.613  54.479  40.845  0.00  0.00    +0.085 C 
BRANCH  26  29
ATOM     29  C   UNL     1      85.904  52.543  42.064  0.00  0.00    -0.024 C 
BRANCH  29  30
ATOM     30  C   UNL     1      87.299  52.829  42.661  0.00  0.00    -0.051 C 
BRANCH  30  31
ATOM     31  C   UNL     1      88.453  52.196  41.863  0.00  0.00    -0.053 C 
BRANCH  31  32
ATOM     32  C   UNL     1      88.713  50.710  42.168  0.00  0.00    -0.053 C 
BRANCH  32  33
ATOM     33  C   UNL     1      89.840  50.060  41.341  0.00  0.00    -0.053 C 
BRANCH  33  34
ATOM     34  C   UNL     1      90.234  48.636  41.773  0.00  0.00    -0.053 C 
BRANCH  34  35
ATOM     35  C   UNL     1      89.186  47.974  42.683  0.00  0.00    -0.053 C 
BRANCH  35  36
ATOM     36  C   UNL     1      88.442  46.815  41.994  0.00  0.00    -0.053 C 
BRANCH  36  37
ATOM     37  C   UNL     1      88.429  45.491  42.779  0.00  0.00    -0.053 C 
BRANCH  37  38
ATOM     38  C   UNL     1      87.140  44.682  42.570  0.00  0.00    -0.053 C 
BRANCH  38  40
ATOM     39  C   UNL     1      88.005  42.549  43.607  0.00  0.00    -0.065 C 
ATOM     40  C   UNL     1      86.950  43.650  43.687  0.00  0.00    -0.056 C 
ENDBRANCH  38  40
ENDBRANCH  37  38
ENDBRANCH  36  37
ENDBRANCH  35  36
ENDBRANCH  34  35
ENDBRANCH  33  34
ENDBRANCH  32  33
ENDBRANCH  31  32
ENDBRANCH  30  31
ENDBRANCH  29  30
ENDBRANCH  26  29
ENDBRANCH  25  28
ENDBRANCH  24  25
ENDBRANCH   1  24
TORSDOF 28
ENDMDL
MODEL 9
REMARK VINA RESULT:    -6.886      1.725      3.370
REMARK INTER + INTRA:         -23.676
REMARK INTER:                 -18.633
REMARK INTRA:                  -5.043
REMARK UNBOUND:                -5.519
REMARK  Name = 
REMARK  30 active torsions:
REMARK  status: ('A' for Active; 'I' for Inactive)
REMARK    1  A    between atoms: C_1  and  C_2
REMARK    2  A    between atoms: C_2  and  C_3
REMARK    3  A    between atoms: C_3  and  C_4
REMARK    4  A    between atoms: C_4  and  C_5
REMARK    5  A    between atoms: C_5  and  C_6
REMARK    6  A    between atoms: C_6  and  C_7
REMARK    7  A    between atoms: C_7  and  C_8
REMARK    8  A    between atoms: C_8  and  C_9
REMARK    9  A    between atoms: C_9  and  C_10
REMARK   10  A    between atoms: C_10  and  C_11
REMARK   11  A    between atoms: C_11  and  C_12
REMARK   12  A    between atoms: C_12  and  C_13
REMARK   13  A    between atoms: C_15  and  C_16
REMARK   14  A    between atoms: C_16  and  C_17
REMARK   15  A    between atoms: C_17  and  C_18
REMARK   16  A    between atoms: C_20  and  C_21
REMARK   17  A    between atoms: C_21  and  C_22
REMARK   18  A    between atoms: C_22  and  C_23
REMARK   19  A    between atoms: C_23  and  C_24
REMARK   20  A    between atoms: C_24  and  C_25
REMARK   21  A    between atoms: C_25  and  C_26
REMARK   22  A    between atoms: C_26  and  C_27
REMARK   23  A    between atoms: C_27  and  C_28
REMARK   24  A    between atoms: C_28  and  C_29
REMARK   25  A    between atoms: C_29  and  C_30
REMARK   26  A    between atoms: C_30  and  C_31
REMARK   27  A    between atoms: C_31  and  C_32
REMARK   28  A    between atoms: C_32  and  C_33
REMARK   29  A    between atoms: C_33  and  C_34
REMARK   30  A    between atoms: C_36  and  C_40
REMARK                            x       y       z     vdW  Elec       q    Type
REMARK                         _______ _______ _______ _____ _____    ______ ____
ROOT
ATOM      1  C   UNL     1      83.758  45.617  43.473  0.00  0.00    +0.085 C 
ATOM      2  O   UNL     1      83.642  46.271  44.718  0.00  0.00    -0.368 OA
ATOM      3  C   UNL     1      83.447  47.062  43.565  0.00  0.00    +0.085 C 
ENDROOT
BRANCH   3   4
ATOM      4  C   UNL     1      81.979  47.459  43.392  0.00  0.00    -0.024 C 
BRANCH   4   5
ATOM      5  C   UNL     1      81.754  48.879  43.925  0.00  0.00    -0.051 C 
BRANCH   5   6
ATOM      6  C   UNL     1      83.068  49.623  44.213  0.00  0.00    -0.053 C 
BRANCH   6   7
ATOM      7  C   UNL     1      83.320  50.776  43.228  0.00  0.00    -0.053 C 
BRANCH   7   8
ATOM      8  C   UNL     1      83.752  52.048  43.969  0.00  0.00    -0.053 C 
BRANCH   8   9
ATOM      9  C   UNL     1      84.205  51.725  45.398  0.00  0.00    -0.053 C 
BRANCH   9  10
ATOM     10  C   UNL     1      85.272  52.716  45.878  0.00  0.00    -0.053 C 
BRANCH  10  11
ATOM     11  C   UNL     1      85.882  52.258  47.212  0.00  0.00    -0.053 C 
BRANCH  11  12
ATOM     12  C   UNL     1      85.250  52.959  48.424  0.00  0.00    -0.053 C 
BRANCH  12  13
ATOM     13  C   UNL     1      85.551  54.465  48.457  0.00  0.00    -0.053 C 
BRANCH  13  14
ATOM     14  C   UNL     1      84.261  55.283  48.588  0.00  0.00    -0.053 C 
BRANCH  14  15
ATOM     15  C   UNL     1      83.874  55.914  47.242  0.00  0.00    -0.049 C 
BRANCH  15  16
ATOM     16  C   UNL     1      85.081  56.523  46.515  0.00  0.00    -0.021 C 
BRANCH  16  17
ATOM     17  C   UNL     1      84.873  56.575  45.029  0.00  0.00    +0.036 C 
ATOM     18  C   UNL     1      84.225  55.674  44.301  0.00  0.00    -0.034 C 
ATOM     19  C   UNL     1      84.169  56.104  42.856  0.00  0.00    +0.120 C 
ATOM     20  O   UNL     1      84.859  57.351  42.850  0.00  0.00    -0.454 OA
ATOM     21  C   UNL     1      85.271  57.640  44.136  0.00  0.00    +0.336 C 
ATOM     22  O   UNL     1      85.895  58.683  44.461  0.00  0.00    -0.245 OA
ATOM     23  C   UNL     1      84.873  55.098  41.952  0.00  0.00    -0.024 C 
ENDBRANCH  16  17
ENDBRANCH  15  16
ENDBRANCH  14  15
ENDBRANCH  13  14
ENDBRANCH  12  13
ENDBRANCH  11  12
ENDBRANCH  10  11
ENDBRANCH   9  10
ENDBRANCH   8   9
ENDBRANCH   7   8
ENDBRANCH   6   7
ENDBRANCH   5   6
ENDBRANCH   4   5
ENDBRANCH   3   4
BRANCH   1  24
ATOM     24  C   UNL     1      85.213  45.273  43.133  0.00  0.00    -0.022 C 
BRANCH  24  25
ATOM     25  C   UNL     1      85.920  44.581  44.303  0.00  0.00    -0.022 C 
BRANCH  25  28
ATOM     26  C   UNL     1      88.195  43.548  43.416  0.00  0.00    +0.085 C 
ATOM     27  O   UNL     1      87.852  43.174  44.730  0.00  0.00    -0.368 OA
ATOM     28  C   UNL     1      86.774  43.389  43.844  0.00  0.00    +0.085 C 
BRANCH  26  29
ATOM     29  C   UNL     1      88.827  44.948  43.339  0.00  0.00    -0.024 C 
BRANCH  29  30
ATOM     30  C   UNL     1      88.524  45.640  41.992  0.00  0.00    -0.051 C 
BRANCH  30  31
ATOM     31  C   UNL     1      88.991  47.106  41.932  0.00  0.00    -0.053 C 
BRANCH  31  32
ATOM     32  C   UNL     1      90.260  47.414  42.746  0.00  0.00    -0.053 C 
BRANCH  32  33
ATOM     33  C   UNL     1      90.726  48.883  42.699  0.00  0.00    -0.053 C 
BRANCH  33  34
ATOM     34  C   UNL     1      90.315  49.663  41.437  0.00  0.00    -0.053 C 
BRANCH  34  35
ATOM     35  C   UNL     1      89.426  50.878  41.747  0.00  0.00    -0.053 C 
BRANCH  35  36
ATOM     36  C   UNL     1      87.962  50.673  41.315  0.00  0.00    -0.053 C 
BRANCH  36  37
ATOM     37  C   UNL     1      86.937  50.675  42.463  0.00  0.00    -0.053 C 
BRANCH  37  38
ATOM     38  C   UNL     1      87.568  50.985  43.830  0.00  0.00    -0.053 C 
BRANCH  38  40
ATOM     39  C   UNL     1      86.541  48.912  44.841  0.00  0.00    -0.065 C 
ATOM     40  C   UNL     1      87.831  49.698  44.619  0.00  0.00    -0.056 C 
ENDBRANCH  38  40
ENDBRANCH  37  38
ENDBRANCH  36  37
ENDBRANCH  35  36
ENDBRANCH  34  35
ENDBRANCH  33  34
ENDBRANCH  32  33
ENDBRANCH  31  32
ENDBRANCH  30  31
ENDBRANCH  29  30
ENDBRANCH  26  29
ENDBRANCH  25  28
ENDBRANCH  24  25
ENDBRANCH   1  24
TORSDOF 28
ENDMDL
