MODEL 1
REMARK VINA RESULT:    -7.533      0.000      0.000
REMARK INTER + INTRA:         -24.139
REMARK INTER:                 -18.406
REMARK INTRA:                  -5.733
REMARK UNBOUND:                -4.274
REMARK  Name = 
REMARK  30 active torsions:
REMARK  status: ('A' for Active; 'I' for Inactive)
REMARK    1  A    between atoms: C_1  and  C_2
REMARK    2  A    between atoms: C_2  and  C_3
REMARK    3  A    between atoms: C_3  and  C_4
REMARK    4  A    between atoms: C_4  and  C_5
REMARK    5  A    between atoms: C_5  and  C_6
REMARK    6  A    between atoms: C_6  and  C_7
REMARK    7  A    between atoms: C_7  and  C_8
REMARK    8  A    between atoms: C_8  and  C_9
REMARK    9  A    between atoms: C_9  and  C_10
REMARK   10  A    between atoms: C_10  and  C_11
REMARK   11  A    between atoms: C_11  and  C_12
REMARK   12  A    between atoms: C_12  and  C_13
REMARK   13  A    between atoms: C_13  and  C_14
REMARK   14  A    between atoms: C_14  and  C_15
REMARK   15  A    between atoms: C_17  and  C_18
REMARK   16  A    between atoms: C_18  and  C_19
REMARK   17  A    between atoms: C_19  and  C_20
REMARK   18  A    between atoms: C_22  and  C_23
REMARK   19  A    between atoms: C_23  and  C_24
REMARK   20  A    between atoms: C_24  and  C_25
REMARK   21  A    between atoms: C_25  and  C_26
REMARK   22  A    between atoms: C_26  and  C_27
REMARK   23  A    between atoms: C_27  and  C_28
REMARK   24  A    between atoms: C_28  and  C_29
REMARK   25  A    between atoms: C_29  and  C_30
REMARK   26  A    between atoms: C_30  and  C_31
REMARK   27  A    between atoms: C_31  and  C_32
REMARK   28  A    between atoms: C_32  and  C_33
REMARK   29  A    between atoms: C_33  and  C_34
REMARK   30  A    between atoms: C_36  and  C_40
REMARK                            x       y       z     vdW  Elec       q    Type
REMARK                         _______ _______ _______ _____ _____    ______ ____
ROOT
ATOM      1  C   UNL     1      84.843  55.346  46.615  0.00  0.00    +0.085 C 
ATOM      2  O   UNL     1      85.627  54.416  45.902  0.00  0.00    -0.368 OA
ATOM      3  C   UNL     1      85.497  54.198  47.290  0.00  0.00    +0.085 C 
ENDROOT
BRANCH   3   4
ATOM      4  C   UNL     1      84.586  53.005  47.601  0.00  0.00    -0.024 C 
BRANCH   4   5
ATOM      5  C   UNL     1      84.981  52.313  48.915  0.00  0.00    -0.051 C 
BRANCH   5   6
ATOM      6  C   UNL     1      86.356  51.612  48.857  0.00  0.00    -0.053 C 
BRANCH   6   7
ATOM      7  C   UNL     1      86.465  50.538  47.760  0.00  0.00    -0.053 C 
BRANCH   7   8
ATOM      8  C   UNL     1      87.795  50.606  46.987  0.00  0.00    -0.053 C 
BRANCH   8   9
ATOM      9  C   UNL     1      87.721  51.547  45.765  0.00  0.00    -0.053 C 
BRANCH   9  10
ATOM     10  C   UNL     1      88.039  50.855  44.428  0.00  0.00    -0.053 C 
BRANCH  10  11
ATOM     11  C   UNL     1      87.554  49.401  44.375  0.00  0.00    -0.053 C 
BRANCH  11  12
ATOM     12  C   UNL     1      86.939  49.077  43.008  0.00  0.00    -0.053 C 
BRANCH  12  13
ATOM     13  C   UNL     1      85.586  48.369  43.167  0.00  0.00    -0.049 C 
BRANCH  13  14
ATOM     14  C   UNL     1      84.727  48.998  44.271  0.00  0.00    -0.021 C 
BRANCH  14  15
ATOM     15  C   UNL     1      83.469  49.613  43.725  0.00  0.00    +0.036 C 
ATOM     16  C   UNL     1      83.289  50.895  43.442  0.00  0.00    -0.034 C 
ATOM     17  C   UNL     1      81.923  51.118  42.841  0.00  0.00    +0.120 C 
ATOM     18  O   UNL     1      81.357  49.809  42.801  0.00  0.00    -0.454 OA
ATOM     19  C   UNL     1      82.271  48.914  43.323  0.00  0.00    +0.336 C 
ATOM     20  O   UNL     1      82.070  47.675  43.419  0.00  0.00    -0.245 OA
ATOM     21  C   UNL     1      82.029  51.692  41.433  0.00  0.00    -0.024 C 
ENDBRANCH  14  15
ENDBRANCH  13  14
ENDBRANCH  12  13
ENDBRANCH  11  12
ENDBRANCH  10  11
ENDBRANCH   9  10
ENDBRANCH   8   9
ENDBRANCH   7   8
ENDBRANCH   6   7
ENDBRANCH   5   6
ENDBRANCH   4   5
ENDBRANCH   3   4
BRANCH   1  22
ATOM     22  C   UNL     1      85.547  56.699  46.772  0.00  0.00    -0.022 C 
BRANCH  22  23
ATOM     23  C   UNL     1      85.158  57.670  45.649  0.00  0.00    -0.022 C 
BRANCH  23  26
ATOM     24  C   UNL     1      85.385  56.690  43.205  0.00  0.00    +0.085 C 
ATOM     25  O   UNL     1      85.353  58.098  43.225  0.00  0.00    -0.368 OA
ATOM     26  C   UNL     1      85.954  57.480  44.342  0.00  0.00    +0.085 C 
BRANCH  24  27
ATOM     27  C   UNL     1      83.947  56.145  43.205  0.00  0.00    -0.024 C 
BRANCH  27  28
ATOM     28  C   UNL     1      83.839  54.839  42.408  0.00  0.00    -0.051 C 
BRANCH  28  29
ATOM     29  C   UNL     1      84.749  54.829  41.168  0.00  0.00    -0.053 C 
BRANCH  29  30
ATOM     30  C   UNL     1      85.275  53.422  40.844  0.00  0.00    -0.053 C 
BRANCH  30  31
ATOM     31  C   UNL     1      86.097  52.822  42.000  0.00  0.00    -0.053 C 
BRANCH  31  32
ATOM     32  C   UNL     1      87.615  52.957  41.766  0.00  0.00    -0.053 C 
BRANCH  32  33
ATOM     33  C   UNL     1      88.183  51.881  40.825  0.00  0.00    -0.053 C 
BRANCH  33  34
ATOM     34  C   UNL     1      89.631  51.491  41.173  0.00  0.00    -0.053 C 
BRANCH  34  35
ATOM     35  C   UNL     1      89.821  49.967  41.240  0.00  0.00    -0.053 C 
BRANCH  35  36
ATOM     36  C   UNL     1      90.922  49.560  42.237  0.00  0.00    -0.053 C 
BRANCH  36  37
ATOM     37  C   UNL     1      90.795  48.089  42.690  0.00  0.00    -0.053 C 
BRANCH  37  38
ATOM     38  C   UNL     1      89.799  47.262  41.855  0.00  0.00    -0.053 C 
BRANCH  38  40
ATOM     39  C   UNL     1      87.999  45.454  42.035  0.00  0.00    -0.065 C 
ATOM     40  C   UNL     1      89.385  45.922  42.484  0.00  0.00    -0.056 C 
ENDBRANCH  38  40
ENDBRANCH  37  38
ENDBRANCH  36  37
ENDBRANCH  35  36
ENDBRANCH  34  35
ENDBRANCH  33  34
ENDBRANCH  32  33
ENDBRANCH  31  32
ENDBRANCH  30  31
ENDBRANCH  29  30
ENDBRANCH  28  29
ENDBRANCH  27  28
ENDBRANCH  24  27
ENDBRANCH  23  26
ENDBRANCH  22  23
ENDBRANCH   1  22
TORSDOF 28
ENDMDL
MODEL 2
REMARK VINA RESULT:    -7.492      2.280      6.313
REMARK INTER + INTRA:         -24.031
REMARK INTER:                 -18.256
REMARK INTRA:                  -5.775
REMARK UNBOUND:                -4.274
REMARK  Name = 
REMARK  30 active torsions:
REMARK  status: ('A' for Active; 'I' for Inactive)
REMARK    1  A    between atoms: C_1  and  C_2
REMARK    2  A    between atoms: C_2  and  C_3
REMARK    3  A    between atoms: C_3  and  C_4
REMARK    4  A    between atoms: C_4  and  C_5
REMARK    5  A    between atoms: C_5  and  C_6
REMARK    6  A    between atoms: C_6  and  C_7
REMARK    7  A    between atoms: C_7  and  C_8
REMARK    8  A    between atoms: C_8  and  C_9
REMARK    9  A    between atoms: C_9  and  C_10
REMARK   10  A    between atoms: C_10  and  C_11
REMARK   11  A    between atoms: C_11  and  C_12
REMARK   12  A    between atoms: C_12  and  C_13
REMARK   13  A    between atoms: C_13  and  C_14
REMARK   14  A    between atoms: C_14  and  C_15
REMARK   15  A    between atoms: C_17  and  C_18
REMARK   16  A    between atoms: C_18  and  C_19
REMARK   17  A    between atoms: C_19  and  C_20
REMARK   18  A    between atoms: C_22  and  C_23
REMARK   19  A    between atoms: C_23  and  C_24
REMARK   20  A    between atoms: C_24  and  C_25
REMARK   21  A    between atoms: C_25  and  C_26
REMARK   22  A    between atoms: C_26  and  C_27
REMARK   23  A    between atoms: C_27  and  C_28
REMARK   24  A    between atoms: C_28  and  C_29
REMARK   25  A    between atoms: C_29  and  C_30
REMARK   26  A    between atoms: C_30  and  C_31
REMARK   27  A    between atoms: C_31  and  C_32
REMARK   28  A    between atoms: C_32  and  C_33
REMARK   29  A    between atoms: C_33  and  C_34
REMARK   30  A    between atoms: C_36  and  C_40
REMARK                            x       y       z     vdW  Elec       q    Type
REMARK                         _______ _______ _______ _____ _____    ______ ____
ROOT
ATOM      1  C   UNL     1      83.030  52.905  41.826  0.00  0.00    +0.085 C 
ATOM      2  O   UNL     1      81.809  53.098  41.149  0.00  0.00    -0.368 OA
ATOM      3  C   UNL     1      82.199  51.762  41.377  0.00  0.00    +0.085 C 
ENDROOT
BRANCH   3   4
ATOM      4  C   UNL     1      81.348  51.093  42.464  0.00  0.00    -0.024 C 
BRANCH   4   5
ATOM      5  C   UNL     1      81.836  49.670  42.775  0.00  0.00    -0.051 C 
BRANCH   5   6
ATOM      6  C   UNL     1      81.262  49.092  44.088  0.00  0.00    -0.053 C 
BRANCH   6   7
ATOM      7  C   UNL     1      80.696  47.667  43.949  0.00  0.00    -0.053 C 
BRANCH   7   8
ATOM      8  C   UNL     1      81.648  46.715  43.203  0.00  0.00    -0.053 C 
BRANCH   8   9
ATOM      9  C   UNL     1      82.692  46.069  44.140  0.00  0.00    -0.053 C 
BRANCH   9  10
ATOM     10  C   UNL     1      83.933  45.530  43.410  0.00  0.00    -0.053 C 
BRANCH  10  11
ATOM     11  C   UNL     1      84.780  46.637  42.768  0.00  0.00    -0.053 C 
BRANCH  11  12
ATOM     12  C   UNL     1      85.892  47.097  43.719  0.00  0.00    -0.053 C 
BRANCH  12  13
ATOM     13  C   UNL     1      86.538  48.399  43.222  0.00  0.00    -0.049 C 
BRANCH  13  14
ATOM     14  C   UNL     1      87.508  48.159  42.058  0.00  0.00    -0.021 C 
BRANCH  14  15
ATOM     15  C   UNL     1      88.311  49.387  41.732  0.00  0.00    +0.036 C 
ATOM     16  C   UNL     1      87.862  50.465  41.105  0.00  0.00    -0.034 C 
ATOM     17  C   UNL     1      88.939  51.520  41.029  0.00  0.00    +0.120 C 
ATOM     18  O   UNL     1      90.044  50.919  41.701  0.00  0.00    -0.454 OA
ATOM     19  C   UNL     1      89.675  49.655  42.120  0.00  0.00    +0.336 C 
ATOM     20  O   UNL     1      90.432  48.871  42.750  0.00  0.00    -0.245 OA
ATOM     21  C   UNL     1      88.513  52.795  41.749  0.00  0.00    -0.024 C 
ENDBRANCH  14  15
ENDBRANCH  13  14
ENDBRANCH  12  13
ENDBRANCH  11  12
ENDBRANCH  10  11
ENDBRANCH   9  10
ENDBRANCH   8   9
ENDBRANCH   7   8
ENDBRANCH   6   7
ENDBRANCH   5   6
ENDBRANCH   4   5
ENDBRANCH   3   4
BRANCH   1  22
ATOM     22  C   UNL     1      84.240  53.234  40.945  0.00  0.00    -0.022 C 
BRANCH  22  23
ATOM     23  C   UNL     1      85.086  54.363  41.547  0.00  0.00    -0.022 C 
BRANCH  23  26
ATOM     24  C   UNL     1      84.899  55.929  43.668  0.00  0.00    +0.085 C 
ATOM     25  O   UNL     1      84.846  56.647  42.457  0.00  0.00    -0.368 OA
ATOM     26  C   UNL     1      84.292  55.349  42.429  0.00  0.00    +0.085 C 
BRANCH  24  27
ATOM     27  C   UNL     1      86.366  55.700  44.065  0.00  0.00    -0.024 C 
BRANCH  27  28
ATOM     28  C   UNL     1      86.517  55.506  45.579  0.00  0.00    -0.051 C 
BRANCH  28  29
ATOM     29  C   UNL     1      85.656  56.491  46.388  0.00  0.00    -0.053 C 
BRANCH  29  30
ATOM     30  C   UNL     1      84.736  55.773  47.389  0.00  0.00    -0.053 C 
BRANCH  30  31
ATOM     31  C   UNL     1      84.333  54.366  46.910  0.00  0.00    -0.053 C 
BRANCH  31  32
ATOM     32  C   UNL     1      83.638  53.551  48.020  0.00  0.00    -0.053 C 
BRANCH  32  33
ATOM     33  C   UNL     1      84.622  52.769  48.907  0.00  0.00    -0.053 C 
BRANCH  33  34
ATOM     34  C   UNL     1      85.983  52.540  48.226  0.00  0.00    -0.053 C 
BRANCH  34  35
ATOM     35  C   UNL     1      86.435  51.073  48.312  0.00  0.00    -0.053 C 
BRANCH  35  36
ATOM     36  C   UNL     1      87.380  50.685  47.160  0.00  0.00    -0.053 C 
BRANCH  36  37
ATOM     37  C   UNL     1      87.588  51.837  46.152  0.00  0.00    -0.053 C 
BRANCH  37  38
ATOM     38  C   UNL     1      87.102  51.515  44.726  0.00  0.00    -0.053 C 
BRANCH  38  40
ATOM     39  C   UNL     1      84.570  51.155  44.704  0.00  0.00    -0.065 C 
ATOM     40  C   UNL     1      85.726  52.098  44.366  0.00  0.00    -0.056 C 
ENDBRANCH  38  40
ENDBRANCH  37  38
ENDBRANCH  36  37
ENDBRANCH  35  36
ENDBRANCH  34  35
ENDBRANCH  33  34
ENDBRANCH  32  33
ENDBRANCH  31  32
ENDBRANCH  30  31
ENDBRANCH  29  30
ENDBRANCH  28  29
ENDBRANCH  27  28
ENDBRANCH  24  27
ENDBRANCH  23  26
ENDBRANCH  22  23
ENDBRANCH   1  22
TORSDOF 28
ENDMDL
MODEL 3
REMARK VINA RESULT:    -7.479      1.465      2.935
REMARK INTER + INTRA:         -23.997
REMARK INTER:                 -18.357
REMARK INTRA:                  -5.639
REMARK UNBOUND:                -4.274
REMARK  Name = 
REMARK  30 active torsions:
REMARK  status: ('A' for Active; 'I' for Inactive)
REMARK    1  A    between atoms: C_1  and  C_2
REMARK    2  A    between atoms: C_2  and  C_3
REMARK    3  A    between atoms: C_3  and  C_4
REMARK    4  A    between atoms: C_4  and  C_5
REMARK    5  A    between atoms: C_5  and  C_6
REMARK    6  A    between atoms: C_6  and  C_7
REMARK    7  A    between atoms: C_7  and  C_8
REMARK    8  A    between atoms: C_8  and  C_9
REMARK    9  A    between atoms: C_9  and  C_10
REMARK   10  A    between atoms: C_10  and  C_11
REMARK   11  A    between atoms: C_11  and  C_12
REMARK   12  A    between atoms: C_12  and  C_13
REMARK   13  A    between atoms: C_13  and  C_14
REMARK   14  A    between atoms: C_14  and  C_15
REMARK   15  A    between atoms: C_17  and  C_18
REMARK   16  A    between atoms: C_18  and  C_19
REMARK   17  A    between atoms: C_19  and  C_20
REMARK   18  A    between atoms: C_22  and  C_23
REMARK   19  A    between atoms: C_23  and  C_24
REMARK   20  A    between atoms: C_24  and  C_25
REMARK   21  A    between atoms: C_25  and  C_26
REMARK   22  A    between atoms: C_26  and  C_27
REMARK   23  A    between atoms: C_27  and  C_28
REMARK   24  A    between atoms: C_28  and  C_29
REMARK   25  A    between atoms: C_29  and  C_30
REMARK   26  A    between atoms: C_30  and  C_31
REMARK   27  A    between atoms: C_31  and  C_32
REMARK   28  A    between atoms: C_32  and  C_33
REMARK   29  A    between atoms: C_33  and  C_34
REMARK   30  A    between atoms: C_36  and  C_40
REMARK                            x       y       z     vdW  Elec       q    Type
REMARK                         _______ _______ _______ _____ _____    ______ ____
ROOT
ATOM      1  C   UNL     1      85.679  56.097  43.927  0.00  0.00    +0.085 C 
ATOM      2  O   UNL     1      86.622  57.036  44.394  0.00  0.00    -0.368 OA
ATOM      3  C   UNL     1      85.736  56.502  45.353  0.00  0.00    +0.085 C 
ENDROOT
BRANCH   3   4
ATOM      4  C   UNL     1      86.437  55.515  46.296  0.00  0.00    -0.024 C 
BRANCH   4   5
ATOM      5  C   UNL     1      85.457  54.896  47.304  0.00  0.00    -0.051 C 
BRANCH   5   6
ATOM      6  C   UNL     1      84.408  53.965  46.657  0.00  0.00    -0.053 C 
BRANCH   6   7
ATOM      7  C   UNL     1      85.001  52.942  45.673  0.00  0.00    -0.053 C 
BRANCH   7   8
ATOM      8  C   UNL     1      85.802  51.831  46.376  0.00  0.00    -0.053 C 
BRANCH   8   9
ATOM      9  C   UNL     1      87.321  51.949  46.127  0.00  0.00    -0.053 C 
BRANCH   9  10
ATOM     10  C   UNL     1      88.012  50.604  45.846  0.00  0.00    -0.053 C 
BRANCH  10  11
ATOM     11  C   UNL     1      87.028  49.497  45.444  0.00  0.00    -0.053 C 
BRANCH  11  12
ATOM     12  C   UNL     1      87.210  49.109  43.972  0.00  0.00    -0.053 C 
BRANCH  12  13
ATOM     13  C   UNL     1      85.879  49.196  43.211  0.00  0.00    -0.049 C 
BRANCH  13  14
ATOM     14  C   UNL     1      84.783  48.338  43.856  0.00  0.00    -0.021 C 
BRANCH  14  15
ATOM     15  C   UNL     1      83.409  48.878  43.580  0.00  0.00    +0.036 C 
ATOM     16  C   UNL     1      83.089  50.157  43.446  0.00  0.00    -0.034 C 
ATOM     17  C   UNL     1      81.628  50.303  43.098  0.00  0.00    +0.120 C 
ATOM     18  O   UNL     1      81.162  48.957  43.034  0.00  0.00    -0.454 OA
ATOM     19  C   UNL     1      82.215  48.109  43.318  0.00  0.00    +0.336 C 
ATOM     20  O   UNL     1      82.126  46.853  43.335  0.00  0.00    -0.245 OA
ATOM     21  C   UNL     1      81.450  50.989  41.748  0.00  0.00    -0.024 C 
ENDBRANCH  14  15
ENDBRANCH  13  14
ENDBRANCH  12  13
ENDBRANCH  11  12
ENDBRANCH  10  11
ENDBRANCH   9  10
ENDBRANCH   8   9
ENDBRANCH   7   8
ENDBRANCH   6   7
ENDBRANCH   5   6
ENDBRANCH   4   5
ENDBRANCH   3   4
BRANCH   1  22
ATOM     22  C   UNL     1      84.572  56.752  43.094  0.00  0.00    -0.022 C 
BRANCH  22  23
ATOM     23  C   UNL     1      83.796  55.714  42.272  0.00  0.00    -0.022 C 
BRANCH  23  26
ATOM     24  C   UNL     1      84.787  54.072  40.453  0.00  0.00    +0.085 C 
ATOM     25  O   UNL     1      83.557  54.637  40.063  0.00  0.00    -0.368 OA
ATOM     26  C   UNL     1      84.380  55.451  40.869  0.00  0.00    +0.085 C 
BRANCH  24  27
ATOM     27  C   UNL     1      84.528  52.829  41.321  0.00  0.00    -0.024 C 
BRANCH  27  28
ATOM     28  C   UNL     1      85.830  52.083  41.640  0.00  0.00    -0.051 C 
BRANCH  28  29
ATOM     29  C   UNL     1      86.798  52.925  42.489  0.00  0.00    -0.053 C 
BRANCH  29  30
ATOM     30  C   UNL     1      88.267  52.684  42.106  0.00  0.00    -0.053 C 
BRANCH  30  31
ATOM     31  C   UNL     1      88.503  51.269  41.546  0.00  0.00    -0.053 C 
BRANCH  31  32
ATOM     32  C   UNL     1      90.002  50.962  41.352  0.00  0.00    -0.053 C 
BRANCH  32  33
ATOM     33  C   UNL     1      90.503  49.800  42.226  0.00  0.00    -0.053 C 
BRANCH  33  34
ATOM     34  C   UNL     1      90.484  48.450  41.488  0.00  0.00    -0.053 C 
BRANCH  34  35
ATOM     35  C   UNL     1      90.015  47.299  42.394  0.00  0.00    -0.053 C 
BRANCH  35  36
ATOM     36  C   UNL     1      88.806  46.548  41.806  0.00  0.00    -0.053 C 
BRANCH  36  37
ATOM     37  C   UNL     1      88.628  45.142  42.418  0.00  0.00    -0.053 C 
BRANCH  37  38
ATOM     38  C   UNL     1      87.172  44.638  42.411  0.00  0.00    -0.053 C 
BRANCH  38  40
ATOM     39  C   UNL     1      85.187  44.153  43.949  0.00  0.00    -0.065 C 
ATOM     40  C   UNL     1      86.315  45.123  43.592  0.00  0.00    -0.056 C 
ENDBRANCH  38  40
ENDBRANCH  37  38
ENDBRANCH  36  37
ENDBRANCH  35  36
ENDBRANCH  34  35
ENDBRANCH  33  34
ENDBRANCH  32  33
ENDBRANCH  31  32
ENDBRANCH  30  31
ENDBRANCH  29  30
ENDBRANCH  28  29
ENDBRANCH  27  28
ENDBRANCH  24  27
ENDBRANCH  23  26
ENDBRANCH  22  23
ENDBRANCH   1  22
TORSDOF 28
ENDMDL
MODEL 4
REMARK VINA RESULT:    -7.431      1.674      4.751
REMARK INTER + INTRA:         -23.868
REMARK INTER:                 -18.710
REMARK INTRA:                  -5.158
REMARK UNBOUND:                -4.274
REMARK  Name = 
REMARK  30 active torsions:
REMARK  status: ('A' for Active; 'I' for Inactive)
REMARK    1  A    between atoms: C_1  and  C_2
REMARK    2  A    between atoms: C_2  and  C_3
REMARK    3  A    between atoms: C_3  and  C_4
REMARK    4  A    between atoms: C_4  and  C_5
REMARK    5  A    between atoms: C_5  and  C_6
REMARK    6  A    between atoms: C_6  and  C_7
REMARK    7  A    between atoms: C_7  and  C_8
REMARK    8  A    between atoms: C_8  and  C_9
REMARK    9  A    between atoms: C_9  and  C_10
REMARK   10  A    between atoms: C_10  and  C_11
REMARK   11  A    between atoms: C_11  and  C_12
REMARK   12  A    between atoms: C_12  and  C_13
REMARK   13  A    between atoms: C_13  and  C_14
REMARK   14  A    between atoms: C_14  and  C_15
REMARK   15  A    between atoms: C_17  and  C_18
REMARK   16  A    between atoms: C_18  and  C_19
REMARK   17  A    between atoms: C_19  and  C_20
REMARK   18  A    between atoms: C_22  and  C_23
REMARK   19  A    between atoms: C_23  and  C_24
REMARK   20  A    between atoms: C_24  and  C_25
REMARK   21  A    between atoms: C_25  and  C_26
REMARK   22  A    between atoms: C_26  and  C_27
REMARK   23  A    between atoms: C_27  and  C_28
REMARK   24  A    between atoms: C_28  and  C_29
REMARK   25  A    between atoms: C_29  and  C_30
REMARK   26  A    between atoms: C_30  and  C_31
REMARK   27  A    between atoms: C_31  and  C_32
REMARK   28  A    between atoms: C_32  and  C_33
REMARK   29  A    between atoms: C_33  and  C_34
REMARK   30  A    between atoms: C_36  and  C_40
REMARK                            x       y       z     vdW  Elec       q    Type
REMARK                         _______ _______ _______ _____ _____    ______ ____
ROOT
ATOM      1  C   UNL     1      85.528  55.871  43.234  0.00  0.00    +0.085 C 
ATOM      2  O   UNL     1      85.013  57.177  43.365  0.00  0.00    -0.368 OA
ATOM      3  C   UNL     1      84.911  56.343  44.498  0.00  0.00    +0.085 C 
ENDROOT
BRANCH   3   4
ATOM      4  C   UNL     1      85.893  56.753  45.603  0.00  0.00    -0.024 C 
BRANCH   4   5
ATOM      5  C   UNL     1      85.454  56.230  46.979  0.00  0.00    -0.051 C 
BRANCH   5   6
ATOM      6  C   UNL     1      84.087  55.512  46.962  0.00  0.00    -0.053 C 
BRANCH   6   7
ATOM      7  C   UNL     1      83.767  54.745  48.257  0.00  0.00    -0.053 C 
BRANCH   7   8
ATOM      8  C   UNL     1      84.051  53.237  48.145  0.00  0.00    -0.053 C 
BRANCH   8   9
ATOM      9  C   UNL     1      85.519  52.885  48.471  0.00  0.00    -0.053 C 
BRANCH   9  10
ATOM     10  C   UNL     1      86.136  51.847  47.518  0.00  0.00    -0.053 C 
BRANCH  10  11
ATOM     11  C   UNL     1      86.109  52.290  46.050  0.00  0.00    -0.053 C 
BRANCH  11  12
ATOM     12  C   UNL     1      85.659  51.142  45.139  0.00  0.00    -0.053 C 
BRANCH  12  13
ATOM     13  C   UNL     1      84.224  51.366  44.639  0.00  0.00    -0.049 C 
BRANCH  13  14
ATOM     14  C   UNL     1      83.967  50.688  43.287  0.00  0.00    -0.021 C 
BRANCH  14  15
ATOM     15  C   UNL     1      82.545  50.221  43.152  0.00  0.00    +0.036 C 
ATOM     16  C   UNL     1      82.031  49.129  43.699  0.00  0.00    -0.034 C 
ATOM     17  C   UNL     1      80.554  49.035  43.404  0.00  0.00    +0.120 C 
ATOM     18  O   UNL     1      80.289  50.210  42.640  0.00  0.00    -0.454 OA
ATOM     19  C   UNL     1      81.467  50.916  42.490  0.00  0.00    +0.336 C 
ATOM     20  O   UNL     1      81.562  52.006  41.868  0.00  0.00    -0.245 OA
ATOM     21  C   UNL     1      79.734  49.044  44.689  0.00  0.00    -0.024 C 
ENDBRANCH  14  15
ENDBRANCH  13  14
ENDBRANCH  12  13
ENDBRANCH  11  12
ENDBRANCH  10  11
ENDBRANCH   9  10
ENDBRANCH   8   9
ENDBRANCH   7   8
ENDBRANCH   6   7
ENDBRANCH   5   6
ENDBRANCH   4   5
ENDBRANCH   3   4
BRANCH   1  22
ATOM     22  C   UNL     1      84.642  54.984  42.353  0.00  0.00    -0.022 C 
BRANCH  22  23
ATOM     23  C   UNL     1      85.367  53.695  41.941  0.00  0.00    -0.022 C 
BRANCH  23  26
ATOM     24  C   UNL     1      87.603  52.325  42.270  0.00  0.00    +0.085 C 
ATOM     25  O   UNL     1      87.792  53.500  41.518  0.00  0.00    -0.368 OA
ATOM     26  C   UNL     1      86.794  53.560  42.512  0.00  0.00    +0.085 C 
BRANCH  24  27
ATOM     27  C   UNL     1      87.138  51.191  41.341  0.00  0.00    -0.024 C 
BRANCH  27  28
ATOM     28  C   UNL     1      87.646  49.825  41.820  0.00  0.00    -0.051 C 
BRANCH  28  29
ATOM     29  C   UNL     1      88.838  49.946  42.786  0.00  0.00    -0.053 C 
BRANCH  29  30
ATOM     30  C   UNL     1      90.188  49.864  42.056  0.00  0.00    -0.053 C 
BRANCH  30  31
ATOM     31  C   UNL     1      90.508  48.438  41.572  0.00  0.00    -0.053 C 
BRANCH  31  32
ATOM     32  C   UNL     1      90.663  47.446  42.743  0.00  0.00    -0.053 C 
BRANCH  32  33
ATOM     33  C   UNL     1      90.044  46.067  42.457  0.00  0.00    -0.053 C 
BRANCH  33  34
ATOM     34  C   UNL     1      88.545  46.145  42.122  0.00  0.00    -0.053 C 
BRANCH  34  35
ATOM     35  C   UNL     1      87.893  44.754  42.044  0.00  0.00    -0.053 C 
BRANCH  35  36
ATOM     36  C   UNL     1      87.076  44.422  43.306  0.00  0.00    -0.053 C 
BRANCH  36  37
ATOM     37  C   UNL     1      85.572  44.238  43.006  0.00  0.00    -0.053 C 
BRANCH  37  38
ATOM     38  C   UNL     1      84.841  45.549  42.659  0.00  0.00    -0.053 C 
BRANCH  38  40
ATOM     39  C   UNL     1      85.650  47.605  43.949  0.00  0.00    -0.065 C 
ATOM     40  C   UNL     1      84.605  46.492  43.851  0.00  0.00    -0.056 C 
ENDBRANCH  38  40
ENDBRANCH  37  38
ENDBRANCH  36  37
ENDBRANCH  35  36
ENDBRANCH  34  35
ENDBRANCH  33  34
ENDBRANCH  32  33
ENDBRANCH  31  32
ENDBRANCH  30  31
ENDBRANCH  29  30
ENDBRANCH  28  29
ENDBRANCH  27  28
ENDBRANCH  24  27
ENDBRANCH  23  26
ENDBRANCH  22  23
ENDBRANCH   1  22
TORSDOF 28
ENDMDL
MODEL 5
REMARK VINA RESULT:    -7.394      1.740      7.327
REMARK INTER + INTRA:         -23.772
REMARK INTER:                 -19.260
REMARK INTRA:                  -4.512
REMARK UNBOUND:                -4.274
REMARK  Name = 
REMARK  30 active torsions:
REMARK  status: ('A' for Active; 'I' for Inactive)
REMARK    1  A    between atoms: C_1  and  C_2
REMARK    2  A    between atoms: C_2  and  C_3
REMARK    3  A    between atoms: C_3  and  C_4
REMARK    4  A    between atoms: C_4  and  C_5
REMARK    5  A    between atoms: C_5  and  C_6
REMARK    6  A    between atoms: C_6  and  C_7
REMARK    7  A    between atoms: C_7  and  C_8
REMARK    8  A    between atoms: C_8  and  C_9
REMARK    9  A    between atoms: C_9  and  C_10
REMARK   10  A    between atoms: C_10  and  C_11
REMARK   11  A    between atoms: C_11  and  C_12
REMARK   12  A    between atoms: C_12  and  C_13
REMARK   13  A    between atoms: C_13  and  C_14
REMARK   14  A    between atoms: C_14  and  C_15
REMARK   15  A    between atoms: C_17  and  C_18
REMARK   16  A    between atoms: C_18  and  C_19
REMARK   17  A    between atoms: C_19  and  C_20
REMARK   18  A    between atoms: C_22  and  C_23
REMARK   19  A    between atoms: C_23  and  C_24
REMARK   20  A    between atoms: C_24  and  C_25
REMARK   21  A    between atoms: C_25  and  C_26
REMARK   22  A    between atoms: C_26  and  C_27
REMARK   23  A    between atoms: C_27  and  C_28
REMARK   24  A    between atoms: C_28  and  C_29
REMARK   25  A    between atoms: C_29  and  C_30
REMARK   26  A    between atoms: C_30  and  C_31
REMARK   27  A    between atoms: C_31  and  C_32
REMARK   28  A    between atoms: C_32  and  C_33
REMARK   29  A    between atoms: C_33  and  C_34
REMARK   30  A    between atoms: C_36  and  C_40
REMARK                            x       y       z     vdW  Elec       q    Type
REMARK                         _______ _______ _______ _____ _____    ______ ____
ROOT
ATOM      1  C   UNL     1      81.455  49.869  42.749  0.00  0.00    +0.085 C 
ATOM      2  O   UNL     1      81.439  50.770  41.665  0.00  0.00    -0.368 OA
ATOM      3  C   UNL     1      82.077  51.212  42.842  0.00  0.00    +0.085 C 
ENDROOT
BRANCH   3   4
ATOM      4  C   UNL     1      83.603  51.248  42.690  0.00  0.00    -0.024 C 
BRANCH   4   5
ATOM      5  C   UNL     1      84.299  51.635  44.004  0.00  0.00    -0.051 C 
BRANCH   5   6
ATOM      6  C   UNL     1      85.840  51.574  43.930  0.00  0.00    -0.053 C 
BRANCH   6   7
ATOM      7  C   UNL     1      86.498  50.905  45.150  0.00  0.00    -0.053 C 
BRANCH   7   8
ATOM      8  C   UNL     1      87.352  51.881  45.979  0.00  0.00    -0.053 C 
BRANCH   8   9
ATOM      9  C   UNL     1      86.530  53.066  46.529  0.00  0.00    -0.053 C 
BRANCH   9  10
ATOM     10  C   UNL     1      85.639  52.702  47.728  0.00  0.00    -0.053 C 
BRANCH  10  11
ATOM     11  C   UNL     1      84.363  53.550  47.808  0.00  0.00    -0.053 C 
BRANCH  11  12
ATOM     12  C   UNL     1      84.701  55.030  48.026  0.00  0.00    -0.053 C 
BRANCH  12  13
ATOM     13  C   UNL     1      84.102  55.901  46.912  0.00  0.00    -0.049 C 
BRANCH  13  14
ATOM     14  C   UNL     1      85.180  56.646  46.114  0.00  0.00    -0.021 C 
BRANCH  14  15
ATOM     15  C   UNL     1      85.104  56.340  44.644  0.00  0.00    +0.036 C 
ATOM     16  C   UNL     1      84.775  55.173  44.109  0.00  0.00    -0.034 C 
ATOM     17  C   UNL     1      84.735  55.274  42.604  0.00  0.00    +0.120 C 
ATOM     18  O   UNL     1      85.064  56.638  42.351  0.00  0.00    -0.454 OA
ATOM     19  C   UNL     1      85.283  57.274  43.558  0.00  0.00    +0.336 C 
ATOM     20  O   UNL     1      85.587  58.490  43.671  0.00  0.00    -0.245 OA
ATOM     21  C   UNL     1      83.344  54.957  42.068  0.00  0.00    -0.024 C 
ENDBRANCH  14  15
ENDBRANCH  13  14
ENDBRANCH  12  13
ENDBRANCH  11  12
ENDBRANCH  10  11
ENDBRANCH   9  10
ENDBRANCH   8   9
ENDBRANCH   7   8
ENDBRANCH   6   7
ENDBRANCH   5   6
ENDBRANCH   4   5
ENDBRANCH   3   4
BRANCH   1  22
ATOM     22  C   UNL     1      80.077  49.728  43.406  0.00  0.00    -0.022 C 
BRANCH  22  23
ATOM     23  C   UNL     1      80.109  48.737  44.577  0.00  0.00    -0.022 C 
BRANCH  23  26
ATOM     24  C   UNL     1      80.700  46.251  43.898  0.00  0.00    +0.085 C 
ATOM     25  O   UNL     1      80.071  46.336  45.156  0.00  0.00    -0.368 OA
ATOM     26  C   UNL     1      79.680  47.302  44.205  0.00  0.00    +0.085 C 
BRANCH  24  27
ATOM     27  C   UNL     1      82.211  46.482  44.064  0.00  0.00    -0.024 C 
BRANCH  27  28
ATOM     28  C   UNL     1      82.894  46.739  42.715  0.00  0.00    -0.051 C 
BRANCH  28  29
ATOM     29  C   UNL     1      84.343  46.223  42.679  0.00  0.00    -0.053 C 
BRANCH  29  30
ATOM     30  C   UNL     1      84.769  45.594  44.016  0.00  0.00    -0.053 C 
BRANCH  30  31
ATOM     31  C   UNL     1      86.171  44.961  43.946  0.00  0.00    -0.053 C 
BRANCH  31  32
ATOM     32  C   UNL     1      86.680  44.832  42.495  0.00  0.00    -0.053 C 
BRANCH  32  33
ATOM     33  C   UNL     1      88.212  44.753  42.394  0.00  0.00    -0.053 C 
BRANCH  33  34
ATOM     34  C   UNL     1      88.884  46.136  42.456  0.00  0.00    -0.053 C 
BRANCH  34  35
ATOM     35  C   UNL     1      88.061  47.215  41.733  0.00  0.00    -0.053 C 
BRANCH  35  36
ATOM     36  C   UNL     1      87.712  48.398  42.654  0.00  0.00    -0.053 C 
BRANCH  36  37
ATOM     37  C   UNL     1      88.944  49.264  42.998  0.00  0.00    -0.053 C 
BRANCH  37  38
ATOM     38  C   UNL     1      89.824  49.609  41.781  0.00  0.00    -0.053 C 
BRANCH  38  40
ATOM     39  C   UNL     1      88.987  52.019  41.958  0.00  0.00    -0.065 C 
ATOM     40  C   UNL     1      89.411  50.883  41.026  0.00  0.00    -0.056 C 
ENDBRANCH  38  40
ENDBRANCH  37  38
ENDBRANCH  36  37
ENDBRANCH  35  36
ENDBRANCH  34  35
ENDBRANCH  33  34
ENDBRANCH  32  33
ENDBRANCH  31  32
ENDBRANCH  30  31
ENDBRANCH  29  30
ENDBRANCH  28  29
ENDBRANCH  27  28
ENDBRANCH  24  27
ENDBRANCH  23  26
ENDBRANCH  22  23
ENDBRANCH   1  22
TORSDOF 28
ENDMDL
MODEL 6
REMARK VINA RESULT:    -7.362      2.190      6.211
REMARK INTER + INTRA:         -23.688
REMARK INTER:                 -18.695
REMARK INTRA:                  -4.993
REMARK UNBOUND:                -4.274
REMARK  Name = 
REMARK  30 active torsions:
REMARK  status: ('A' for Active; 'I' for Inactive)
REMARK    1  A    between atoms: C_1  and  C_2
REMARK    2  A    between atoms: C_2  and  C_3
REMARK    3  A    between atoms: C_3  and  C_4
REMARK    4  A    between atoms: C_4  and  C_5
REMARK    5  A    between atoms: C_5  and  C_6
REMARK    6  A    between atoms: C_6  and  C_7
REMARK    7  A    between atoms: C_7  and  C_8
REMARK    8  A    between atoms: C_8  and  C_9
REMARK    9  A    between atoms: C_9  and  C_10
REMARK   10  A    between atoms: C_10  and  C_11
REMARK   11  A    between atoms: C_11  and  C_12
REMARK   12  A    between atoms: C_12  and  C_13
REMARK   13  A    between atoms: C_13  and  C_14
REMARK   14  A    between atoms: C_14  and  C_15
REMARK   15  A    between atoms: C_17  and  C_18
REMARK   16  A    between atoms: C_18  and  C_19
REMARK   17  A    between atoms: C_19  and  C_20
REMARK   18  A    between atoms: C_22  and  C_23
REMARK   19  A    between atoms: C_23  and  C_24
REMARK   20  A    between atoms: C_24  and  C_25
REMARK   21  A    between atoms: C_25  and  C_26
REMARK   22  A    between atoms: C_26  and  C_27
REMARK   23  A    between atoms: C_27  and  C_28
REMARK   24  A    between atoms: C_28  and  C_29
REMARK   25  A    between atoms: C_29  and  C_30
REMARK   26  A    between atoms: C_30  and  C_31
REMARK   27  A    between atoms: C_31  and  C_32
REMARK   28  A    between atoms: C_32  and  C_33
REMARK   29  A    between atoms: C_33  and  C_34
REMARK   30  A    between atoms: C_36  and  C_40
REMARK                            x       y       z     vdW  Elec       q    Type
REMARK                         _______ _______ _______ _____ _____    ______ ____
ROOT
ATOM      1  C   UNL     1      87.560  50.960  41.762  0.00  0.00    +0.085 C 
ATOM      2  O   UNL     1      88.117  50.417  40.586  0.00  0.00    -0.368 OA
ATOM      3  C   UNL     1      88.875  50.273  41.766  0.00  0.00    +0.085 C 
ENDROOT
BRANCH   3   4
ATOM      4  C   UNL     1      88.866  48.828  42.282  0.00  0.00    -0.024 C 
BRANCH   4   5
ATOM      5  C   UNL     1      90.218  48.134  42.059  0.00  0.00    -0.051 C 
BRANCH   5   6
ATOM      6  C   UNL     1      90.141  46.593  42.120  0.00  0.00    -0.053 C 
BRANCH   6   7
ATOM      7  C   UNL     1      88.731  46.048  42.407  0.00  0.00    -0.053 C 
BRANCH   7   8
ATOM      8  C   UNL     1      88.724  44.540  42.715  0.00  0.00    -0.053 C 
BRANCH   8   9
ATOM      9  C   UNL     1      87.336  44.035  43.166  0.00  0.00    -0.053 C 
BRANCH   9  10
ATOM     10  C   UNL     1      86.276  44.053  42.052  0.00  0.00    -0.053 C 
BRANCH  10  11
ATOM     11  C   UNL     1      84.914  44.574  42.528  0.00  0.00    -0.053 C 
BRANCH  11  12
ATOM     12  C   UNL     1      84.880  46.108  42.518  0.00  0.00    -0.053 C 
BRANCH  12  13
ATOM     13  C   UNL     1      83.811  46.640  43.483  0.00  0.00    -0.049 C 
BRANCH  13  14
ATOM     14  C   UNL     1      82.535  47.078  42.753  0.00  0.00    -0.021 C 
BRANCH  14  15
ATOM     15  C   UNL     1      81.441  47.458  43.711  0.00  0.00    +0.036 C 
ATOM     16  C   UNL     1      81.183  48.681  44.150  0.00  0.00    -0.034 C 
ATOM     17  C   UNL     1      79.962  48.679  45.036  0.00  0.00    +0.120 C 
ATOM     18  O   UNL     1      79.549  47.314  45.034  0.00  0.00    -0.454 OA
ATOM     19  C   UNL     1      80.422  46.587  44.249  0.00  0.00    +0.336 C 
ATOM     20  O   UNL     1      80.323  45.349  44.042  0.00  0.00    -0.245 OA
ATOM     21  C   UNL     1      78.862  49.565  44.461  0.00  0.00    -0.024 C 
ENDBRANCH  14  15
ENDBRANCH  13  14
ENDBRANCH  12  13
ENDBRANCH  11  12
ENDBRANCH  10  11
ENDBRANCH   9  10
ENDBRANCH   8   9
ENDBRANCH   7   8
ENDBRANCH   6   7
ENDBRANCH   5   6
ENDBRANCH   4   5
ENDBRANCH   3   4
BRANCH   1  22
ATOM     22  C   UNL     1      87.611  52.492  41.773  0.00  0.00    -0.022 C 
BRANCH  22  23
ATOM     23  C   UNL     1      86.209  53.102  41.907  0.00  0.00    -0.022 C 
BRANCH  23  26
ATOM     24  C   UNL     1      84.131  53.857  40.458  0.00  0.00    +0.085 C 
ATOM     25  O   UNL     1      85.069  54.891  40.643  0.00  0.00    -0.368 OA
ATOM     26  C   UNL     1      85.598  53.585  40.575  0.00  0.00    +0.085 C 
BRANCH  24  27
ATOM     27  C   UNL     1      83.175  53.810  41.662  0.00  0.00    -0.024 C 
BRANCH  27  28
ATOM     28  C   UNL     1      82.017  52.832  41.424  0.00  0.00    -0.051 C 
BRANCH  28  29
ATOM     29  C   UNL     1      82.236  51.479  42.123  0.00  0.00    -0.053 C 
BRANCH  29  30
ATOM     30  C   UNL     1      83.306  51.558  43.223  0.00  0.00    -0.053 C 
BRANCH  30  31
ATOM     31  C   UNL     1      84.226  50.324  43.237  0.00  0.00    -0.053 C 
BRANCH  31  32
ATOM     32  C   UNL     1      84.806  50.046  44.639  0.00  0.00    -0.053 C 
BRANCH  32  33
ATOM     33  C   UNL     1      86.127  49.259  44.605  0.00  0.00    -0.053 C 
BRANCH  33  34
ATOM     34  C   UNL     1      87.176  49.816  45.583  0.00  0.00    -0.053 C 
BRANCH  34  35
ATOM     35  C   UNL     1      86.665  51.053  46.341  0.00  0.00    -0.053 C 
BRANCH  35  36
ATOM     36  C   UNL     1      87.114  52.369  45.679  0.00  0.00    -0.053 C 
BRANCH  36  37
ATOM     37  C   UNL     1      86.034  53.469  45.757  0.00  0.00    -0.053 C 
BRANCH  37  38
ATOM     38  C   UNL     1      84.959  53.213  46.832  0.00  0.00    -0.053 C 
BRANCH  38  40
ATOM     39  C   UNL     1      84.088  54.962  48.483  0.00  0.00    -0.065 C 
ATOM     40  C   UNL     1      85.189  53.949  48.163  0.00  0.00    -0.056 C 
ENDBRANCH  38  40
ENDBRANCH  37  38
ENDBRANCH  36  37
ENDBRANCH  35  36
ENDBRANCH  34  35
ENDBRANCH  33  34
ENDBRANCH  32  33
ENDBRANCH  31  32
ENDBRANCH  30  31
ENDBRANCH  29  30
ENDBRANCH  28  29
ENDBRANCH  27  28
ENDBRANCH  24  27
ENDBRANCH  23  26
ENDBRANCH  22  23
ENDBRANCH   1  22
TORSDOF 28
ENDMDL
MODEL 7
REMARK VINA RESULT:    -7.319      2.240      7.905
REMARK INTER + INTRA:         -23.573
REMARK INTER:                 -19.299
REMARK INTRA:                  -4.274
REMARK UNBOUND:                -4.274
REMARK  Name = 
REMARK  30 active torsions:
REMARK  status: ('A' for Active; 'I' for Inactive)
REMARK    1  A    between atoms: C_1  and  C_2
REMARK    2  A    between atoms: C_2  and  C_3
REMARK    3  A    between atoms: C_3  and  C_4
REMARK    4  A    between atoms: C_4  and  C_5
REMARK    5  A    between atoms: C_5  and  C_6
REMARK    6  A    between atoms: C_6  and  C_7
REMARK    7  A    between atoms: C_7  and  C_8
REMARK    8  A    between atoms: C_8  and  C_9
REMARK    9  A    between atoms: C_9  and  C_10
REMARK   10  A    between atoms: C_10  and  C_11
REMARK   11  A    between atoms: C_11  and  C_12
REMARK   12  A    between atoms: C_12  and  C_13
REMARK   13  A    between atoms: C_13  and  C_14
REMARK   14  A    between atoms: C_14  and  C_15
REMARK   15  A    between atoms: C_17  and  C_18
REMARK   16  A    between atoms: C_18  and  C_19
REMARK   17  A    between atoms: C_19  and  C_20
REMARK   18  A    between atoms: C_22  and  C_23
REMARK   19  A    between atoms: C_23  and  C_24
REMARK   20  A    between atoms: C_24  and  C_25
REMARK   21  A    between atoms: C_25  and  C_26
REMARK   22  A    between atoms: C_26  and  C_27
REMARK   23  A    between atoms: C_27  and  C_28
REMARK   24  A    between atoms: C_28  and  C_29
REMARK   25  A    between atoms: C_29  and  C_30
REMARK   26  A    between atoms: C_30  and  C_31
REMARK   27  A    between atoms: C_31  and  C_32
REMARK   28  A    between atoms: C_32  and  C_33
REMARK   29  A    between atoms: C_33  and  C_34
REMARK   30  A    between atoms: C_36  and  C_40
REMARK                            x       y       z     vdW  Elec       q    Type
REMARK                         _______ _______ _______ _____ _____    ______ ____
ROOT
ATOM      1  C   UNL     1      88.496  51.729  41.131  0.00  0.00    +0.085 C 
ATOM      2  O   UNL     1      87.471  51.439  40.207  0.00  0.00    -0.368 OA
ATOM      3  C   UNL     1      87.230  51.079  41.549  0.00  0.00    +0.085 C 
ENDROOT
BRANCH   3   4
ATOM      4  C   UNL     1      86.200  52.001  42.216  0.00  0.00    -0.024 C 
BRANCH   4   5
ATOM      5  C   UNL     1      86.048  51.698  43.714  0.00  0.00    -0.051 C 
BRANCH   5   6
ATOM      6  C   UNL     1      87.298  52.053  44.548  0.00  0.00    -0.053 C 
BRANCH   6   7
ATOM      7  C   UNL     1      86.991  52.418  46.011  0.00  0.00    -0.053 C 
BRANCH   7   8
ATOM      8  C   UNL     1      86.335  51.265  46.791  0.00  0.00    -0.053 C 
BRANCH   8   9
ATOM      9  C   UNL     1      86.170  51.584  48.293  0.00  0.00    -0.053 C 
BRANCH   9  10
ATOM     10  C   UNL     1      85.711  53.024  48.575  0.00  0.00    -0.053 C 
BRANCH  10  11
ATOM     11  C   UNL     1      84.186  53.187  48.533  0.00  0.00    -0.053 C 
BRANCH  11  12
ATOM     12  C   UNL     1      83.794  54.511  47.866  0.00  0.00    -0.053 C 
BRANCH  12  13
ATOM     13  C   UNL     1      85.035  55.259  47.355  0.00  0.00    -0.049 C 
BRANCH  13  14
ATOM     14  C   UNL     1      84.671  56.549  46.610  0.00  0.00    -0.021 C 
BRANCH  14  15
ATOM     15  C   UNL     1      84.879  56.421  45.127  0.00  0.00    +0.036 C 
ATOM     16  C   UNL     1      84.885  55.289  44.438  0.00  0.00    -0.034 C 
ATOM     17  C   UNL     1      85.047  55.567  42.964  0.00  0.00    +0.120 C 
ATOM     18  O   UNL     1      85.115  56.990  42.898  0.00  0.00    -0.454 OA
ATOM     19  C   UNL     1      85.015  57.500  44.178  0.00  0.00    +0.336 C 
ATOM     20  O   UNL     1      85.036  58.728  44.453  0.00  0.00    -0.245 OA
ATOM     21  C   UNL     1      83.848  55.058  42.173  0.00  0.00    -0.024 C 
ENDBRANCH  14  15
ENDBRANCH  13  14
ENDBRANCH  12  13
ENDBRANCH  11  12
ENDBRANCH  10  11
ENDBRANCH   9  10
ENDBRANCH   8   9
ENDBRANCH   7   8
ENDBRANCH   6   7
ENDBRANCH   5   6
ENDBRANCH   4   5
ENDBRANCH   3   4
BRANCH   1  22
ATOM     22  C   UNL     1      89.701  50.795  40.971  0.00  0.00    -0.022 C 
BRANCH  22  23
ATOM     23  C   UNL     1      90.160  50.231  42.322  0.00  0.00    -0.022 C 
BRANCH  23  26
ATOM     24  C   UNL     1      90.114  47.588  42.371  0.00  0.00    +0.085 C 
ATOM     25  O   UNL     1      90.483  48.102  41.113  0.00  0.00    -0.368 OA
ATOM     26  C   UNL     1      90.877  48.868  42.230  0.00  0.00    +0.085 C 
BRANCH  24  27
ATOM     27  C   UNL     1      88.581  47.539  42.475  0.00  0.00    -0.024 C 
BRANCH  27  28
ATOM     28  C   UNL     1      88.015  46.256  41.852  0.00  0.00    -0.051 C 
BRANCH  28  29
ATOM     29  C   UNL     1      88.601  44.984  42.489  0.00  0.00    -0.053 C 
BRANCH  29  30
ATOM     30  C   UNL     1      87.565  43.852  42.587  0.00  0.00    -0.053 C 
BRANCH  30  31
ATOM     31  C   UNL     1      86.877  43.804  43.963  0.00  0.00    -0.053 C 
BRANCH  31  32
ATOM     32  C   UNL     1      85.351  44.005  43.859  0.00  0.00    -0.053 C 
BRANCH  32  33
ATOM     33  C   UNL     1      84.874  45.350  44.433  0.00  0.00    -0.053 C 
BRANCH  33  34
ATOM     34  C   UNL     1      84.290  46.282  43.358  0.00  0.00    -0.053 C 
BRANCH  34  35
ATOM     35  C   UNL     1      84.964  47.664  43.359  0.00  0.00    -0.053 C 
BRANCH  35  36
ATOM     36  C   UNL     1      83.962  48.802  43.628  0.00  0.00    -0.053 C 
BRANCH  36  37
ATOM     37  C   UNL     1      82.511  48.410  43.271  0.00  0.00    -0.053 C 
BRANCH  37  38
ATOM     38  C   UNL     1      81.616  49.606  42.894  0.00  0.00    -0.053 C 
BRANCH  38  40
ATOM     39  C   UNL     1      82.225  51.698  41.554  0.00  0.00    -0.065 C 
ATOM     40  C   UNL     1      82.327  50.970  42.896  0.00  0.00    -0.056 C 
ENDBRANCH  38  40
ENDBRANCH  37  38
ENDBRANCH  36  37
ENDBRANCH  35  36
ENDBRANCH  34  35
ENDBRANCH  33  34
ENDBRANCH  32  33
ENDBRANCH  31  32
ENDBRANCH  30  31
ENDBRANCH  29  30
ENDBRANCH  28  29
ENDBRANCH  27  28
ENDBRANCH  24  27
ENDBRANCH  23  26
ENDBRANCH  22  23
ENDBRANCH   1  22
TORSDOF 28
ENDMDL
MODEL 8
REMARK VINA RESULT:    -7.315      2.075      5.034
REMARK INTER + INTRA:         -23.562
REMARK INTER:                 -19.110
REMARK INTRA:                  -4.452
REMARK UNBOUND:                -4.274
REMARK  Name = 
REMARK  30 active torsions:
REMARK  status: ('A' for Active; 'I' for Inactive)
REMARK    1  A    between atoms: C_1  and  C_2
REMARK    2  A    between atoms: C_2  and  C_3
REMARK    3  A    between atoms: C_3  and  C_4
REMARK    4  A    between atoms: C_4  and  C_5
REMARK    5  A    between atoms: C_5  and  C_6
REMARK    6  A    between atoms: C_6  and  C_7
REMARK    7  A    between atoms: C_7  and  C_8
REMARK    8  A    between atoms: C_8  and  C_9
REMARK    9  A    between atoms: C_9  and  C_10
REMARK   10  A    between atoms: C_10  and  C_11
REMARK   11  A    between atoms: C_11  and  C_12
REMARK   12  A    between atoms: C_12  and  C_13
REMARK   13  A    between atoms: C_13  and  C_14
REMARK   14  A    between atoms: C_14  and  C_15
REMARK   15  A    between atoms: C_17  and  C_18
REMARK   16  A    between atoms: C_18  and  C_19
REMARK   17  A    between atoms: C_19  and  C_20
REMARK   18  A    between atoms: C_22  and  C_23
REMARK   19  A    between atoms: C_23  and  C_24
REMARK   20  A    between atoms: C_24  and  C_25
REMARK   21  A    between atoms: C_25  and  C_26
REMARK   22  A    between atoms: C_26  and  C_27
REMARK   23  A    between atoms: C_27  and  C_28
REMARK   24  A    between atoms: C_28  and  C_29
REMARK   25  A    between atoms: C_29  and  C_30
REMARK   26  A    between atoms: C_30  and  C_31
REMARK   27  A    between atoms: C_31  and  C_32
REMARK   28  A    between atoms: C_32  and  C_33
REMARK   29  A    between atoms: C_33  and  C_34
REMARK   30  A    between atoms: C_36  and  C_40
REMARK                            x       y       z     vdW  Elec       q    Type
REMARK                         _______ _______ _______ _____ _____    ______ ____
ROOT
ATOM      1  C   UNL     1      85.518  55.779  43.428  0.00  0.00    +0.085 C 
ATOM      2  O   UNL     1      86.327  56.916  43.627  0.00  0.00    -0.368 OA
ATOM      3  C   UNL     1      85.709  56.375  44.773  0.00  0.00    +0.085 C 
ENDROOT
BRANCH   3   4
ATOM      4  C   UNL     1      86.713  55.654  45.681  0.00  0.00    -0.024 C 
BRANCH   4   5
ATOM      5  C   UNL     1      86.026  55.013  46.896  0.00  0.00    -0.051 C 
BRANCH   5   6
ATOM      6  C   UNL     1      84.676  54.342  46.562  0.00  0.00    -0.053 C 
BRANCH   6   7
ATOM      7  C   UNL     1      84.352  53.118  47.438  0.00  0.00    -0.053 C 
BRANCH   7   8
ATOM      8  C   UNL     1      85.298  52.979  48.644  0.00  0.00    -0.053 C 
BRANCH   8   9
ATOM      9  C   UNL     1      85.816  51.535  48.825  0.00  0.00    -0.053 C 
BRANCH   9  10
ATOM     10  C   UNL     1      87.026  51.194  47.938  0.00  0.00    -0.053 C 
BRANCH  10  11
ATOM     11  C   UNL     1      86.748  50.047  46.959  0.00  0.00    -0.053 C 
BRANCH  11  12
ATOM     12  C   UNL     1      87.533  50.236  45.655  0.00  0.00    -0.053 C 
BRANCH  12  13
ATOM     13  C   UNL     1      87.406  51.677  45.140  0.00  0.00    -0.049 C 
BRANCH  13  14
ATOM     14  C   UNL     1      86.472  51.781  43.928  0.00  0.00    -0.021 C 
BRANCH  14  15
ATOM     15  C   UNL     1      87.225  51.725  42.629  0.00  0.00    +0.036 C 
ATOM     16  C   UNL     1      87.962  52.700  42.116  0.00  0.00    -0.034 C 
ATOM     17  C   UNL     1      88.625  52.245  40.839  0.00  0.00    +0.120 C 
ATOM     18  O   UNL     1      88.190  50.894  40.698  0.00  0.00    -0.454 OA
ATOM     19  C   UNL     1      87.361  50.582  41.759  0.00  0.00    +0.336 C 
ATOM     20  O   UNL     1      86.819  49.458  41.924  0.00  0.00    -0.245 OA
ATOM     21  C   UNL     1      90.144  52.302  40.956  0.00  0.00    -0.024 C 
ENDBRANCH  14  15
ENDBRANCH  13  14
ENDBRANCH  12  13
ENDBRANCH  11  12
ENDBRANCH  10  11
ENDBRANCH   9  10
ENDBRANCH   8   9
ENDBRANCH   7   8
ENDBRANCH   6   7
ENDBRANCH   5   6
ENDBRANCH   4   5
ENDBRANCH   3   4
BRANCH   1  22
ATOM     22  C   UNL     1      84.197  56.122  42.730  0.00  0.00    -0.022 C 
BRANCH  22  23
ATOM     23  C   UNL     1      84.113  55.485  41.337  0.00  0.00    -0.022 C 
BRANCH  23  26
ATOM     24  C   UNL     1      83.973  52.846  41.301  0.00  0.00    +0.085 C 
ATOM     25  O   UNL     1      84.411  53.383  40.075  0.00  0.00    -0.368 OA
ATOM     26  C   UNL     1      84.786  54.100  41.231  0.00  0.00    +0.085 C 
BRANCH  24  27
ATOM     27  C   UNL     1      82.436  52.848  41.342  0.00  0.00    -0.024 C 
BRANCH  27  28
ATOM     28  C   UNL     1      81.888  51.589  42.026  0.00  0.00    -0.051 C 
BRANCH  28  29
ATOM     29  C   UNL     1      82.834  51.051  43.114  0.00  0.00    -0.053 C 
BRANCH  29  30
ATOM     30  C   UNL     1      82.289  49.777  43.780  0.00  0.00    -0.053 C 
BRANCH  30  31
ATOM     31  C   UNL     1      82.485  48.527  42.902  0.00  0.00    -0.053 C 
BRANCH  31  32
ATOM     32  C   UNL     1      81.883  47.262  43.547  0.00  0.00    -0.053 C 
BRANCH  32  33
ATOM     33  C   UNL     1      82.875  46.090  43.627  0.00  0.00    -0.053 C 
BRANCH  33  34
ATOM     34  C   UNL     1      84.191  46.373  42.884  0.00  0.00    -0.053 C 
BRANCH  34  35
ATOM     35  C   UNL     1      85.404  46.376  43.830  0.00  0.00    -0.053 C 
BRANCH  35  36
ATOM     36  C   UNL     1      86.059  44.987  43.943  0.00  0.00    -0.053 C 
BRANCH  36  37
ATOM     37  C   UNL     1      86.622  44.487  42.594  0.00  0.00    -0.053 C 
BRANCH  37  38
ATOM     38  C   UNL     1      88.134  44.728  42.421  0.00  0.00    -0.053 C 
BRANCH  38  40
ATOM     39  C   UNL     1      89.991  46.480  42.263  0.00  0.00    -0.065 C 
ATOM     40  C   UNL     1      88.517  46.159  42.009  0.00  0.00    -0.056 C 
ENDBRANCH  38  40
ENDBRANCH  37  38
ENDBRANCH  36  37
ENDBRANCH  35  36
ENDBRANCH  34  35
ENDBRANCH  33  34
ENDBRANCH  32  33
ENDBRANCH  31  32
ENDBRANCH  30  31
ENDBRANCH  29  30
ENDBRANCH  28  29
ENDBRANCH  27  28
ENDBRANCH  24  27
ENDBRANCH  23  26
ENDBRANCH  22  23
ENDBRANCH   1  22
TORSDOF 28
ENDMDL
MODEL 9
REMARK VINA RESULT:    -7.258      2.114      6.169
REMARK INTER + INTRA:         -23.414
REMARK INTER:                 -19.629
REMARK INTRA:                  -3.785
REMARK UNBOUND:                -4.274
REMARK  Name = 
REMARK  30 active torsions:
REMARK  status: ('A' for Active; 'I' for Inactive)
REMARK    1  A    between atoms: C_1  and  C_2
REMARK    2  A    between atoms: C_2  and  C_3
REMARK    3  A    between atoms: C_3  and  C_4
REMARK    4  A    between atoms: C_4  and  C_5
REMARK    5  A    between atoms: C_5  and  C_6
REMARK    6  A    between atoms: C_6  and  C_7
REMARK    7  A    between atoms: C_7  and  C_8
REMARK    8  A    between atoms: C_8  and  C_9
REMARK    9  A    between atoms: C_9  and  C_10
REMARK   10  A    between atoms: C_10  and  C_11
REMARK   11  A    between atoms: C_11  and  C_12
REMARK   12  A    between atoms: C_12  and  C_13
REMARK   13  A    between atoms: C_13  and  C_14
REMARK   14  A    between atoms: C_14  and  C_15
REMARK   15  A    between atoms: C_17  and  C_18
REMARK   16  A    between atoms: C_18  and  C_19
REMARK   17  A    between atoms: C_19  and  C_20
REMARK   18  A    between atoms: C_22  and  C_23
REMARK   19  A    between atoms: C_23  and  C_24
REMARK   20  A    between atoms: C_24  and  C_25
REMARK   21  A    between atoms: C_25  and  C_26
REMARK   22  A    between atoms: C_26  and  C_27
REMARK   23  A    between atoms: C_27  and  C_28
REMARK   24  A    between atoms: C_28  and  C_29
REMARK   25  A    between atoms: C_29  and  C_30
REMARK   26  A    between atoms: C_30  and  C_31
REMARK   27  A    between atoms: C_31  and  C_32
REMARK   28  A    between atoms: C_32  and  C_33
REMARK   29  A    between atoms: C_33  and  C_34
REMARK   30  A    between atoms: C_36  and  C_40
REMARK                            x       y       z     vdW  Elec       q    Type
REMARK                         _______ _______ _______ _____ _____    ______ ____
ROOT
ATOM      1  C   UNL     1      88.263  51.298  41.837  0.00  0.00    +0.085 C 
ATOM      2  O   UNL     1      88.720  50.633  40.681  0.00  0.00    -0.368 OA
ATOM      3  C   UNL     1      89.654  50.795  41.725  0.00  0.00    +0.085 C 
ENDROOT
BRANCH   3   4
ATOM      4  C   UNL     1      89.941  49.473  42.448  0.00  0.00    -0.024 C 
BRANCH   4   5
ATOM      5  C   UNL     1      90.760  48.511  41.575  0.00  0.00    -0.051 C 
BRANCH   5   6
ATOM      6  C   UNL     1      90.115  47.117  41.415  0.00  0.00    -0.053 C 
BRANCH   6   7
ATOM      7  C   UNL     1      89.141  46.745  42.547  0.00  0.00    -0.053 C 
BRANCH   7   8
ATOM      8  C   UNL     1      88.128  45.663  42.132  0.00  0.00    -0.053 C 
BRANCH   8   9
ATOM      9  C   UNL     1      88.439  44.288  42.762  0.00  0.00    -0.053 C 
BRANCH   9  10
ATOM     10  C   UNL     1      87.273  43.696  43.572  0.00  0.00    -0.053 C 
BRANCH  10  11
ATOM     11  C   UNL     1      86.228  44.745  43.974  0.00  0.00    -0.053 C 
BRANCH  11  12
ATOM     12  C   UNL     1      84.847  44.388  43.412  0.00  0.00    -0.053 C 
BRANCH  12  13
ATOM     13  C   UNL     1      83.797  45.426  43.831  0.00  0.00    -0.049 C 
BRANCH  13  14
ATOM     14  C   UNL     1      83.551  46.478  42.742  0.00  0.00    -0.021 C 
BRANCH  14  15
ATOM     15  C   UNL     1      82.547  47.510  43.172  0.00  0.00    +0.036 C 
ATOM     16  C   UNL     1      82.776  48.808  43.307  0.00  0.00    -0.034 C 
ATOM     17  C   UNL     1      81.506  49.533  43.680  0.00  0.00    +0.120 C 
ATOM     18  O   UNL     1      80.528  48.496  43.723  0.00  0.00    -0.454 OA
ATOM     19  C   UNL     1      81.141  47.295  43.422  0.00  0.00    +0.336 C 
ATOM     20  O   UNL     1      80.542  46.189  43.372  0.00  0.00    -0.245 OA
ATOM     21  C   UNL     1      81.133  50.568  42.624  0.00  0.00    -0.024 C 
ENDBRANCH  14  15
ENDBRANCH  13  14
ENDBRANCH  12  13
ENDBRANCH  11  12
ENDBRANCH  10  11
ENDBRANCH   9  10
ENDBRANCH   8   9
ENDBRANCH   7   8
ENDBRANCH   6   7
ENDBRANCH   5   6
ENDBRANCH   4   5
ENDBRANCH   3   4
BRANCH   1  22
ATOM     22  C   UNL     1      88.080  52.802  41.607  0.00  0.00    -0.022 C 
BRANCH  22  23
ATOM     23  C   UNL     1      86.671  53.265  42.000  0.00  0.00    -0.022 C 
BRANCH  23  26
ATOM     24  C   UNL     1      84.501  53.872  40.618  0.00  0.00    +0.085 C 
ATOM     25  O   UNL     1      85.626  53.663  39.798  0.00  0.00    -0.368 OA
ATOM     26  C   UNL     1      85.575  52.894  40.979  0.00  0.00    +0.085 C 
BRANCH  24  27
ATOM     27  C   UNL     1      84.494  55.326  41.118  0.00  0.00    -0.024 C 
BRANCH  27  28
ATOM     28  C   UNL     1      83.740  55.462  42.447  0.00  0.00    -0.051 C 
BRANCH  28  29
ATOM     29  C   UNL     1      84.479  56.358  43.455  0.00  0.00    -0.053 C 
BRANCH  29  30
ATOM     30  C   UNL     1      84.891  55.593  44.722  0.00  0.00    -0.053 C 
BRANCH  30  31
ATOM     31  C   UNL     1      85.234  56.534  45.892  0.00  0.00    -0.053 C 
BRANCH  31  32
ATOM     32  C   UNL     1      85.477  55.764  47.206  0.00  0.00    -0.053 C 
BRANCH  32  33
ATOM     33  C   UNL     1      84.183  55.235  47.849  0.00  0.00    -0.053 C 
BRANCH  33  34
ATOM     34  C   UNL     1      84.373  53.868  48.529  0.00  0.00    -0.053 C 
BRANCH  34  35
ATOM     35  C   UNL     1      85.812  53.344  48.388  0.00  0.00    -0.053 C 
BRANCH  35  36
ATOM     36  C   UNL     1      85.882  51.807  48.444  0.00  0.00    -0.053 C 
BRANCH  36  37
ATOM     37  C   UNL     1      86.823  51.218  47.371  0.00  0.00    -0.053 C 
BRANCH  37  38
ATOM     38  C   UNL     1      86.737  51.929  46.006  0.00  0.00    -0.053 C 
BRANCH  38  40
ATOM     39  C   UNL     1      84.404  52.019  44.962  0.00  0.00    -0.065 C 
ATOM     40  C   UNL     1      85.751  51.296  45.010  0.00  0.00    -0.056 C 
ENDBRANCH  38  40
ENDBRANCH  37  38
ENDBRANCH  36  37
ENDBRANCH  35  36
ENDBRANCH  34  35
ENDBRANCH  33  34
ENDBRANCH  32  33
ENDBRANCH  31  32
ENDBRANCH  30  31
ENDBRANCH  29  30
ENDBRANCH  28  29
ENDBRANCH  27  28
ENDBRANCH  24  27
ENDBRANCH  23  26
ENDBRANCH  22  23
ENDBRANCH   1  22
TORSDOF 28
ENDMDL
