MODEL 1
REMARK VINA RESULT:    -9.099      0.000      0.000
REMARK INTER + INTRA:         -11.094
REMARK INTER:                 -10.964
REMARK INTRA:                  -0.131
REMARK UNBOUND:                 0.132
REMARK  Name = 
REMARK  9 active torsions:
REMARK  status: ('A' for Active; 'I' for Inactive)
REMARK    1  A    between atoms: C_1  and  O_2
REMARK    2  A    between atoms: O_2  and  C_3
REMARK    3  A    between atoms: C_4  and  O_5
REMARK    4  A    between atoms: C_7  and  C_11
REMARK    5  A    between atoms: C_9  and  O_10
REMARK    6  A    between atoms: C_17  and  C_18
REMARK    7  A    between atoms: C_17  and  C_19
REMARK    8  A    between atoms: C_23  and  O_29
REMARK    9  A    between atoms: C_27  and  O_28
REMARK                            x       y       z     vdW  Elec       q    Type
REMARK                         _______ _______ _______ _____ _____    ______ ____
ROOT
ATOM      1  C   UNL     1      87.010  49.905  42.286  0.00  0.00    +0.158 C 
ATOM      2  O   UNL     1      86.524  50.270  43.579  0.00  0.00    -0.480 OA
ATOM      3  C   UNL     1      86.346  51.604  43.959  0.00  0.00    +0.139 A 
ATOM      4  C   UNL     1      85.583  51.893  45.089  0.00  0.00    +0.023 A 
ATOM      5  C   UNL     1      85.373  53.216  45.474  0.00  0.00    +0.136 A 
ATOM      6  O   UNL     1      84.594  53.489  46.604  0.00  0.00    -0.481 OA
ATOM      7  C   UNL     1      84.583  54.767  47.251  0.00  0.00    +0.124 C 
ATOM      8  C   UNL     1      83.194  54.986  47.861  0.00  0.00    -0.021 C 
ATOM      9  C   UNL     1      85.647  54.770  48.357  0.00  0.00    -0.021 C 
ATOM     10  C   UNL     1      84.886  55.880  46.268  0.00  0.00    -0.041 C 
ATOM     11  C   UNL     1      85.551  55.650  45.131  0.00  0.00    -0.048 C 
ATOM     12  C   UNL     1      85.915  54.273  44.725  0.00  0.00    +0.059 A 
ATOM     13  C   UNL     1      86.729  53.988  43.599  0.00  0.00    +0.142 A 
ATOM     14  C   UNL     1      86.940  52.641  43.216  0.00  0.00    +0.104 A 
ATOM     15  C   UNL     1      87.809  52.259  42.072  0.00  0.00    +0.202 C 
ATOM     16  O   UNL     1      88.287  53.135  41.301  0.00  0.00    -0.289 OA
ATOM     17  C   UNL     1      88.187  50.814  41.874  0.00  0.00    +0.158 C 
ENDROOT
BRANCH   1  21
ATOM     18  C   UNL     1      88.199  45.734  42.369  0.00  0.00    +0.203 A 
ATOM     19  C   UNL     1      86.831  46.089  42.461  0.00  0.00    +0.163 A 
ATOM     20  C   UNL     1      86.457  47.440  42.426  0.00  0.00    -0.010 A 
ATOM     21  C   UNL     1      87.419  48.450  42.293  0.00  0.00    +0.003 A 
ATOM     22  C   UNL     1      88.772  48.096  42.214  0.00  0.00    -0.010 A 
ATOM     23  C   UNL     1      89.163  46.755  42.248  0.00  0.00    +0.163 A 
BRANCH  18  25
ATOM     24  C   UNL     1      88.705  43.546  43.528  0.00  0.00    +0.079 C 
ATOM     25  O   UNL     1      88.661  44.404  42.394  0.00  0.00    -0.489 OA
ENDBRANCH  18  25
BRANCH  19  26
ATOM     26  O   UNL     1      85.838  45.120  42.589  0.00  0.00    -0.503 OA
ATOM     27  H   UNL     1      84.951  45.326  42.367  0.00  0.00    +0.000 HD
ENDBRANCH  19  26
BRANCH  23  28
ATOM     28  O   UNL     1      90.522  46.455  42.160  0.00  0.00    -0.503 OA
ATOM     29  H   UNL     1      90.801  45.564  42.083  0.00  0.00    +0.000 HD
ENDBRANCH  23  28
ENDBRANCH   1  21
BRANCH  17  30
ATOM     30  O   UNL     1      88.515  50.594  40.525  0.00  0.00    -0.380 OA
ATOM     31  H   UNL     1      89.465  50.741  40.395  0.00  0.00    +0.000 HD
ENDBRANCH  17  30
BRANCH  13  32
ATOM     32  O   UNL     1      87.346  55.007  42.866  0.00  0.00    -0.505 OA
ATOM     33  H   UNL     1      86.867  55.464  42.204  0.00  0.00    +0.000 HD
ENDBRANCH  13  32
TORSDOF 6
ENDMDL
MODEL 2
REMARK VINA RESULT:    -9.069      1.879      8.403
REMARK INTER + INTRA:         -11.057
REMARK INTER:                 -10.639
REMARK INTRA:                  -0.419
REMARK UNBOUND:                 0.132
REMARK  Name = 
REMARK  9 active torsions:
REMARK  status: ('A' for Active; 'I' for Inactive)
REMARK    1  A    between atoms: C_1  and  O_2
REMARK    2  A    between atoms: O_2  and  C_3
REMARK    3  A    between atoms: C_4  and  O_5
REMARK    4  A    between atoms: C_7  and  C_11
REMARK    5  A    between atoms: C_9  and  O_10
REMARK    6  A    between atoms: C_17  and  C_18
REMARK    7  A    between atoms: C_17  and  C_19
REMARK    8  A    between atoms: C_23  and  O_29
REMARK    9  A    between atoms: C_27  and  O_28
REMARK                            x       y       z     vdW  Elec       q    Type
REMARK                         _______ _______ _______ _____ _____    ______ ____
ROOT
ATOM      1  C   UNL     1      87.084  52.809  43.918  0.00  0.00    +0.158 C 
ATOM      2  O   UNL     1      86.313  51.625  44.129  0.00  0.00    -0.480 OA
ATOM      3  C   UNL     1      86.631  50.409  43.515  0.00  0.00    +0.139 A 
ATOM      4  C   UNL     1      86.053  49.235  43.994  0.00  0.00    +0.023 A 
ATOM      5  C   UNL     1      86.373  48.008  43.414  0.00  0.00    +0.136 A 
ATOM      6  O   UNL     1      85.793  46.838  43.914  0.00  0.00    -0.481 OA
ATOM      7  C   UNL     1      85.808  45.596  43.201  0.00  0.00    +0.124 C 
ATOM      8  C   UNL     1      85.840  44.454  44.224  0.00  0.00    -0.021 C 
ATOM      9  C   UNL     1      84.536  45.500  42.348  0.00  0.00    -0.021 C 
ATOM     10  C   UNL     1      87.021  45.499  42.297  0.00  0.00    -0.041 C 
ATOM     11  C   UNL     1      87.661  46.590  41.864  0.00  0.00    -0.048 C 
ATOM     12  C   UNL     1      87.287  47.939  42.350  0.00  0.00    +0.059 A 
ATOM     13  C   UNL     1      87.847  49.132  41.827  0.00  0.00    +0.142 A 
ATOM     14  C   UNL     1      87.514  50.374  42.420  0.00  0.00    +0.104 A 
ATOM     15  C   UNL     1      88.029  51.671  41.908  0.00  0.00    +0.202 C 
ATOM     16  O   UNL     1      88.903  51.708  41.001  0.00  0.00    -0.289 OA
ATOM     17  C   UNL     1      87.445  52.961  42.425  0.00  0.00    +0.158 C 
ENDROOT
BRANCH   1  21
ATOM     18  C   UNL     1      84.923  56.292  45.338  0.00  0.00    +0.203 A 
ATOM     19  C   UNL     1      84.638  55.745  44.062  0.00  0.00    +0.163 A 
ATOM     20  C   UNL     1      85.338  54.614  43.616  0.00  0.00    -0.010 A 
ATOM     21  C   UNL     1      86.314  54.009  44.418  0.00  0.00    +0.003 A 
ATOM     22  C   UNL     1      86.602  54.560  45.674  0.00  0.00    -0.010 A 
ATOM     23  C   UNL     1      85.915  55.686  46.134  0.00  0.00    +0.163 A 
BRANCH  18  25
ATOM     24  C   UNL     1      84.641  58.781  45.670  0.00  0.00    +0.079 C 
ATOM     25  O   UNL     1      84.267  57.422  45.864  0.00  0.00    -0.489 OA
ENDBRANCH  18  25
BRANCH  19  26
ATOM     26  O   UNL     1      83.672  56.309  43.231  0.00  0.00    -0.503 OA
ATOM     27  H   UNL     1      83.524  55.954  42.376  0.00  0.00    +0.000 HD
ENDBRANCH  19  26
BRANCH  23  28
ATOM     28  O   UNL     1      86.234  56.192  47.394  0.00  0.00    -0.503 OA
ATOM     29  H   UNL     1      85.974  55.727  48.165  0.00  0.00    +0.000 HD
ENDBRANCH  23  28
ENDBRANCH   1  21
BRANCH  17  30
ATOM     30  O   UNL     1      88.378  54.000  42.259  0.00  0.00    -0.380 OA
ATOM     31  H   UNL     1      88.751  53.959  41.364  0.00  0.00    +0.000 HD
ENDBRANCH  17  30
BRANCH  13  32
ATOM     32  O   UNL     1      88.706  49.115  40.724  0.00  0.00    -0.505 OA
ATOM     33  H   UNL     1      89.193  49.882  40.497  0.00  0.00    +0.000 HD
ENDBRANCH  13  32
TORSDOF 6
ENDMDL
MODEL 3
REMARK VINA RESULT:    -8.148      1.964      3.983
REMARK INTER + INTRA:          -9.922
REMARK INTER:                  -9.595
REMARK INTRA:                  -0.326
REMARK UNBOUND:                 0.132
REMARK  Name = 
REMARK  9 active torsions:
REMARK  status: ('A' for Active; 'I' for Inactive)
REMARK    1  A    between atoms: C_1  and  O_2
REMARK    2  A    between atoms: O_2  and  C_3
REMARK    3  A    between atoms: C_4  and  O_5
REMARK    4  A    between atoms: C_7  and  C_11
REMARK    5  A    between atoms: C_9  and  O_10
REMARK    6  A    between atoms: C_17  and  C_18
REMARK    7  A    between atoms: C_17  and  C_19
REMARK    8  A    between atoms: C_23  and  O_29
REMARK    9  A    between atoms: C_27  and  O_28
REMARK                            x       y       z     vdW  Elec       q    Type
REMARK                         _______ _______ _______ _____ _____    ______ ____
ROOT
ATOM      1  C   UNL     1      87.473  50.548  45.190  0.00  0.00    +0.158 C 
ATOM      2  O   UNL     1      87.117  51.716  44.448  0.00  0.00    -0.480 OA
ATOM      3  C   UNL     1      86.716  52.902  45.071  0.00  0.00    +0.139 A 
ATOM      4  C   UNL     1      86.689  54.083  44.332  0.00  0.00    +0.023 A 
ATOM      5  C   UNL     1      86.315  55.281  44.937  0.00  0.00    +0.136 A 
ATOM      6  O   UNL     1      86.306  56.460  44.184  0.00  0.00    -0.481 OA
ATOM      7  C   UNL     1      85.647  57.656  44.618  0.00  0.00    +0.124 C 
ATOM      8  C   UNL     1      86.417  58.859  44.061  0.00  0.00    -0.021 C 
ATOM      9  C   UNL     1      84.212  57.655  44.074  0.00  0.00    -0.021 C 
ATOM     10  C   UNL     1      85.604  57.738  46.131  0.00  0.00    -0.041 C 
ATOM     11  C   UNL     1      85.698  56.645  46.896  0.00  0.00    -0.048 C 
ATOM     12  C   UNL     1      85.972  55.317  46.299  0.00  0.00    +0.059 A 
ATOM     13  C   UNL     1      85.953  54.113  47.049  0.00  0.00    +0.142 A 
ATOM     14  C   UNL     1      86.332  52.900  46.425  0.00  0.00    +0.104 A 
ATOM     15  C   UNL     1      86.304  51.592  47.131  0.00  0.00    +0.202 C 
ATOM     16  O   UNL     1      86.072  51.529  48.369  0.00  0.00    -0.289 OA
ATOM     17  C   UNL     1      86.477  50.318  46.346  0.00  0.00    +0.158 C 
ENDROOT
BRANCH   1  21
ATOM     18  C   UNL     1      87.580  47.160  42.483  0.00  0.00    +0.203 A 
ATOM     19  C   UNL     1      88.733  47.962  42.671  0.00  0.00    +0.163 A 
ATOM     20  C   UNL     1      88.689  49.050  43.554  0.00  0.00    -0.010 A 
ATOM     21  C   UNL     1      87.520  49.356  44.263  0.00  0.00    +0.003 A 
ATOM     22  C   UNL     1      86.378  48.569  44.065  0.00  0.00    -0.010 A 
ATOM     23  C   UNL     1      86.403  47.481  43.189  0.00  0.00    +0.163 A 
BRANCH  18  25
ATOM     24  C   UNL     1      87.766  44.692  41.977  0.00  0.00    +0.079 C 
ATOM     25  O   UNL     1      87.537  46.049  41.618  0.00  0.00    -0.489 OA
ENDBRANCH  18  25
BRANCH  19  26
ATOM     26  O   UNL     1      89.920  47.694  41.993  0.00  0.00    -0.503 OA
ATOM     27  H   UNL     1      90.674  48.233  42.135  0.00  0.00    +0.000 HD
ENDBRANCH  19  26
BRANCH  23  28
ATOM     28  O   UNL     1      85.241  46.725  43.032  0.00  0.00    -0.503 OA
ATOM     29  H   UNL     1      84.647  46.919  42.335  0.00  0.00    +0.000 HD
ENDBRANCH  23  28
ENDBRANCH   1  21
BRANCH  17  30
ATOM     30  O   UNL     1      86.953  49.303  47.196  0.00  0.00    -0.380 OA
ATOM     31  H   UNL     1      86.871  48.445  46.751  0.00  0.00    +0.000 HD
ENDBRANCH  17  30
BRANCH  13  32
ATOM     32  O   UNL     1      85.550  54.092  48.387  0.00  0.00    -0.505 OA
ATOM     33  H   UNL     1      85.126  53.334  48.737  0.00  0.00    +0.000 HD
ENDBRANCH  13  32
TORSDOF 6
ENDMDL
MODEL 4
REMARK VINA RESULT:    -7.940      4.280      7.177
REMARK INTER + INTRA:          -9.664
REMARK INTER:                 -10.228
REMARK INTRA:                   0.563
REMARK UNBOUND:                 0.132
REMARK  Name = 
REMARK  9 active torsions:
REMARK  status: ('A' for Active; 'I' for Inactive)
REMARK    1  A    between atoms: C_1  and  O_2
REMARK    2  A    between atoms: O_2  and  C_3
REMARK    3  A    between atoms: C_4  and  O_5
REMARK    4  A    between atoms: C_7  and  C_11
REMARK    5  A    between atoms: C_9  and  O_10
REMARK    6  A    between atoms: C_17  and  C_18
REMARK    7  A    between atoms: C_17  and  C_19
REMARK    8  A    between atoms: C_23  and  O_29
REMARK    9  A    between atoms: C_27  and  O_28
REMARK                            x       y       z     vdW  Elec       q    Type
REMARK                         _______ _______ _______ _____ _____    ______ ____
ROOT
ATOM      1  C   UNL     1      83.384  50.775  43.292  0.00  0.00    +0.158 C 
ATOM      2  O   UNL     1      84.479  49.860  43.331  0.00  0.00    -0.480 OA
ATOM      3  C   UNL     1      85.751  50.198  42.853  0.00  0.00    +0.139 A 
ATOM      4  C   UNL     1      86.840  49.402  43.199  0.00  0.00    +0.023 A 
ATOM      5  C   UNL     1      88.119  49.731  42.755  0.00  0.00    +0.136 A 
ATOM      6  O   UNL     1      89.204  48.928  43.122  0.00  0.00    -0.481 OA
ATOM      7  C   UNL     1      90.479  48.997  42.471  0.00  0.00    +0.124 C 
ATOM      8  C   UNL     1      91.563  48.653  43.498  0.00  0.00    -0.021 C 
ATOM      9  C   UNL     1      90.503  47.979  41.323  0.00  0.00    -0.021 C 
ATOM     10  C   UNL     1      90.732  50.382  41.911  0.00  0.00    -0.041 C 
ATOM     11  C   UNL     1      89.729  51.219  41.627  0.00  0.00    -0.048 C 
ATOM     12  C   UNL     1      88.328  50.873  41.963  0.00  0.00    +0.059 A 
ATOM     13  C   UNL     1      87.220  51.665  41.569  0.00  0.00    +0.142 A 
ATOM     14  C   UNL     1      85.924  51.321  42.023  0.00  0.00    +0.104 A 
ATOM     15  C   UNL     1      84.707  52.078  41.625  0.00  0.00    +0.202 C 
ATOM     16  O   UNL     1      84.798  53.152  40.972  0.00  0.00    -0.289 OA
ATOM     17  C   UNL     1      83.345  51.516  41.938  0.00  0.00    +0.158 C 
ENDROOT
BRANCH   1  21
ATOM     18  C   UNL     1      79.685  48.651  44.080  0.00  0.00    +0.203 A 
ATOM     19  C   UNL     1      79.656  49.954  43.526  0.00  0.00    +0.163 A 
ATOM     20  C   UNL     1      80.858  50.629  43.268  0.00  0.00    -0.010 A 
ATOM     21  C   UNL     1      82.094  50.030  43.544  0.00  0.00    +0.003 A 
ATOM     22  C   UNL     1      82.118  48.745  44.103  0.00  0.00    -0.010 A 
ATOM     23  C   UNL     1      80.930  48.059  44.366  0.00  0.00    +0.163 A 
BRANCH  18  25
ATOM     24  C   UNL     1      78.279  46.553  43.990  0.00  0.00    +0.079 C 
ATOM     25  O   UNL     1      78.527  47.902  44.367  0.00  0.00    -0.489 OA
ENDBRANCH  18  25
BRANCH  19  26
ATOM     26  O   UNL     1      78.452  50.590  43.229  0.00  0.00    -0.503 OA
ATOM     27  H   UNL     1      78.398  51.525  43.250  0.00  0.00    +0.000 HD
ENDBRANCH  19  26
BRANCH  23  28
ATOM     28  O   UNL     1      81.009  46.779  44.917  0.00  0.00    -0.503 OA
ATOM     29  H   UNL     1      81.501  46.111  44.482  0.00  0.00    +0.000 HD
ENDBRANCH  23  28
ENDBRANCH   1  21
BRANCH  17  30
ATOM     30  O   UNL     1      82.405  52.561  41.989  0.00  0.00    -0.380 OA
ATOM     31  H   UNL     1      82.677  53.208  42.658  0.00  0.00    +0.000 HD
ENDBRANCH  17  30
BRANCH  13  32
ATOM     32  O   UNL     1      87.373  52.769  40.725  0.00  0.00    -0.505 OA
ATOM     33  H   UNL     1      87.948  52.718  39.987  0.00  0.00    +0.000 HD
ENDBRANCH  13  32
TORSDOF 6
ENDMDL
MODEL 5
REMARK VINA RESULT:    -7.927      3.031      8.444
REMARK INTER + INTRA:          -9.649
REMARK INTER:                  -9.806
REMARK INTRA:                   0.158
REMARK UNBOUND:                 0.132
REMARK  Name = 
REMARK  9 active torsions:
REMARK  status: ('A' for Active; 'I' for Inactive)
REMARK    1  A    between atoms: C_1  and  O_2
REMARK    2  A    between atoms: O_2  and  C_3
REMARK    3  A    between atoms: C_4  and  O_5
REMARK    4  A    between atoms: C_7  and  C_11
REMARK    5  A    between atoms: C_9  and  O_10
REMARK    6  A    between atoms: C_17  and  C_18
REMARK    7  A    between atoms: C_17  and  C_19
REMARK    8  A    between atoms: C_23  and  O_29
REMARK    9  A    between atoms: C_27  and  O_28
REMARK                            x       y       z     vdW  Elec       q    Type
REMARK                         _______ _______ _______ _____ _____    ______ ____
ROOT
ATOM      1  C   UNL     1      86.501  51.429  42.196  0.00  0.00    +0.158 C 
ATOM      2  O   UNL     1      86.055  50.086  42.385  0.00  0.00    -0.480 OA
ATOM      3  C   UNL     1      86.929  48.994  42.325  0.00  0.00    +0.139 A 
ATOM      4  C   UNL     1      86.512  47.762  42.823  0.00  0.00    +0.023 A 
ATOM      5  C   UNL     1      87.373  46.666  42.796  0.00  0.00    +0.136 A 
ATOM      6  O   UNL     1      86.942  45.439  43.311  0.00  0.00    -0.481 OA
ATOM      7  C   UNL     1      87.618  44.204  43.046  0.00  0.00    +0.124 C 
ATOM      8  C   UNL     1      87.438  43.286  44.261  0.00  0.00    -0.021 C 
ATOM      9  C   UNL     1      86.993  43.557  41.803  0.00  0.00    -0.021 C 
ATOM     10  C   UNL     1      89.096  44.431  42.798  0.00  0.00    -0.041 C 
ATOM     11  C   UNL     1      89.564  45.615  42.388  0.00  0.00    -0.048 C 
ATOM     12  C   UNL     1      88.672  46.792  42.277  0.00  0.00    +0.059 A 
ATOM     13  C   UNL     1      89.090  48.031  41.728  0.00  0.00    +0.142 A 
ATOM     14  C   UNL     1      88.208  49.138  41.757  0.00  0.00    +0.104 A 
ATOM     15  C   UNL     1      88.558  50.458  41.169  0.00  0.00    +0.202 C 
ATOM     16  O   UNL     1      89.720  50.688  40.739  0.00  0.00    -0.289 OA
ATOM     17  C   UNL     1      87.490  51.510  41.013  0.00  0.00    +0.158 C 
ENDROOT
BRANCH   1  21
ATOM     18  C   UNL     1      83.072  54.023  41.622  0.00  0.00    +0.203 A 
ATOM     19  C   UNL     1      84.386  54.533  41.476  0.00  0.00    +0.163 A 
ATOM     20  C   UNL     1      85.487  53.683  41.657  0.00  0.00    -0.010 A 
ATOM     21  C   UNL     1      85.309  52.330  41.973  0.00  0.00    +0.003 A 
ATOM     22  C   UNL     1      84.008  51.833  42.128  0.00  0.00    -0.010 A 
ATOM     23  C   UNL     1      82.900  52.665  41.953  0.00  0.00    +0.163 A 
BRANCH  18  25
ATOM     24  C   UNL     1      81.025  54.772  40.344  0.00  0.00    +0.079 C 
ATOM     25  O   UNL     1      81.912  54.805  41.456  0.00  0.00    -0.489 OA
ENDBRANCH  18  25
BRANCH  19  26
ATOM     26  O   UNL     1      84.614  55.870  41.157  0.00  0.00    -0.503 OA
ATOM     27  H   UNL     1      84.477  56.536  41.802  0.00  0.00    +0.000 HD
ENDBRANCH  19  26
BRANCH  23  28
ATOM     28  O   UNL     1      81.626  52.119  42.112  0.00  0.00    -0.503 OA
ATOM     29  H   UNL     1      80.923  52.654  42.423  0.00  0.00    +0.000 HD
ENDBRANCH  23  28
ENDBRANCH   1  21
BRANCH  17  30
ATOM     30  O   UNL     1      88.087  52.783  40.971  0.00  0.00    -0.380 OA
ATOM     31  H   UNL     1      88.751  52.805  40.265  0.00  0.00    +0.000 HD
ENDBRANCH  17  30
BRANCH  13  32
ATOM     32  O   UNL     1      90.349  48.181  41.137  0.00  0.00    -0.505 OA
ATOM     33  H   UNL     1      91.039  48.606  41.606  0.00  0.00    +0.000 HD
ENDBRANCH  13  32
TORSDOF 6
ENDMDL
MODEL 6
REMARK VINA RESULT:    -7.556      2.424      9.002
REMARK INTER + INTRA:          -9.191
REMARK INTER:                  -8.734
REMARK INTRA:                  -0.457
REMARK UNBOUND:                 0.132
REMARK  Name = 
REMARK  9 active torsions:
REMARK  status: ('A' for Active; 'I' for Inactive)
REMARK    1  A    between atoms: C_1  and  O_2
REMARK    2  A    between atoms: O_2  and  C_3
REMARK    3  A    between atoms: C_4  and  O_5
REMARK    4  A    between atoms: C_7  and  C_11
REMARK    5  A    between atoms: C_9  and  O_10
REMARK    6  A    between atoms: C_17  and  C_18
REMARK    7  A    between atoms: C_17  and  C_19
REMARK    8  A    between atoms: C_23  and  O_29
REMARK    9  A    between atoms: C_27  and  O_28
REMARK                            x       y       z     vdW  Elec       q    Type
REMARK                         _______ _______ _______ _____ _____    ______ ____
ROOT
ATOM      1  C   UNL     1      84.201  50.767  43.184  0.00  0.00    +0.158 C 
ATOM      2  O   UNL     1      85.313  49.896  43.391  0.00  0.00    -0.480 OA
ATOM      3  C   UNL     1      85.208  48.507  43.260  0.00  0.00    +0.139 A 
ATOM      4  C   UNL     1      86.369  47.744  43.160  0.00  0.00    +0.023 A 
ATOM      5  C   UNL     1      86.289  46.361  43.004  0.00  0.00    +0.136 A 
ATOM      6  O   UNL     1      87.465  45.611  42.894  0.00  0.00    -0.481 OA
ATOM      7  C   UNL     1      87.496  44.187  43.048  0.00  0.00    +0.124 C 
ATOM      8  C   UNL     1      88.615  43.631  42.159  0.00  0.00    -0.021 C 
ATOM      9  C   UNL     1      87.783  43.856  44.518  0.00  0.00    -0.021 C 
ATOM     10  C   UNL     1      86.174  43.564  42.648  0.00  0.00    -0.041 C 
ATOM     11  C   UNL     1      85.037  44.267  42.654  0.00  0.00    -0.048 C 
ATOM     12  C   UNL     1      85.040  45.721  42.935  0.00  0.00    +0.059 A 
ATOM     13  C   UNL     1      83.854  46.484  43.079  0.00  0.00    +0.142 A 
ATOM     14  C   UNL     1      83.944  47.888  43.240  0.00  0.00    +0.104 A 
ATOM     15  C   UNL     1      82.751  48.752  43.435  0.00  0.00    +0.202 C 
ATOM     16  O   UNL     1      81.586  48.282  43.324  0.00  0.00    -0.289 OA
ATOM     17  C   UNL     1      82.931  50.190  43.845  0.00  0.00    +0.158 C 
ENDROOT
BRANCH   1  21
ATOM     18  C   UNL     1      85.193  54.685  44.758  0.00  0.00    +0.203 A 
ATOM     19  C   UNL     1      85.222  54.447  43.362  0.00  0.00    +0.163 A 
ATOM     20  C   UNL     1      84.893  53.178  42.863  0.00  0.00    -0.010 A 
ATOM     21  C   UNL     1      84.525  52.139  43.727  0.00  0.00    +0.003 A 
ATOM     22  C   UNL     1      84.509  52.374  45.108  0.00  0.00    -0.010 A 
ATOM     23  C   UNL     1      84.835  53.632  45.622  0.00  0.00    +0.163 A 
BRANCH  18  25
ATOM     24  C   UNL     1      84.610  57.012  45.553  0.00  0.00    +0.079 C 
ATOM     25  O   UNL     1      85.507  55.928  45.342  0.00  0.00    -0.489 OA
ENDBRANCH  18  25
BRANCH  19  26
ATOM     26  O   UNL     1      85.576  55.452  42.462  0.00  0.00    -0.503 OA
ATOM     27  H   UNL     1      85.959  55.228  41.637  0.00  0.00    +0.000 HD
ENDBRANCH  19  26
BRANCH  23  28
ATOM     28  O   UNL     1      84.797  53.816  47.005  0.00  0.00    -0.503 OA
ATOM     29  H   UNL     1      85.592  53.959  47.480  0.00  0.00    +0.000 HD
ENDBRANCH  23  28
ENDBRANCH   1  21
BRANCH  17  30
ATOM     30  O   UNL     1      81.804  50.936  43.455  0.00  0.00    -0.380 OA
ATOM     31  H   UNL     1      82.090  51.799  43.116  0.00  0.00    +0.000 HD
ENDBRANCH  17  30
BRANCH  13  32
ATOM     32  O   UNL     1      82.593  45.880  43.087  0.00  0.00    -0.505 OA
ATOM     33  H   UNL     1      82.085  45.843  42.301  0.00  0.00    +0.000 HD
ENDBRANCH  13  32
TORSDOF 6
ENDMDL
MODEL 7
REMARK VINA RESULT:    -7.514      2.015      8.847
REMARK INTER + INTRA:          -9.139
REMARK INTER:                  -8.674
REMARK INTRA:                  -0.465
REMARK UNBOUND:                 0.132
REMARK  Name = 
REMARK  9 active torsions:
REMARK  status: ('A' for Active; 'I' for Inactive)
REMARK    1  A    between atoms: C_1  and  O_2
REMARK    2  A    between atoms: O_2  and  C_3
REMARK    3  A    between atoms: C_4  and  O_5
REMARK    4  A    between atoms: C_7  and  C_11
REMARK    5  A    between atoms: C_9  and  O_10
REMARK    6  A    between atoms: C_17  and  C_18
REMARK    7  A    between atoms: C_17  and  C_19
REMARK    8  A    between atoms: C_23  and  O_29
REMARK    9  A    between atoms: C_27  and  O_28
REMARK                            x       y       z     vdW  Elec       q    Type
REMARK                         _______ _______ _______ _____ _____    ______ ____
ROOT
ATOM      1  C   UNL     1      85.331  52.274  43.515  0.00  0.00    +0.158 C 
ATOM      2  O   UNL     1      86.643  51.738  43.335  0.00  0.00    -0.480 OA
ATOM      3  C   UNL     1      86.872  50.369  43.161  0.00  0.00    +0.139 A 
ATOM      4  C   UNL     1      88.108  49.943  42.680  0.00  0.00    +0.023 A 
ATOM      5  C   UNL     1      88.352  48.586  42.476  0.00  0.00    +0.136 A 
ATOM      6  O   UNL     1      89.594  48.176  41.981  0.00  0.00    -0.481 OA
ATOM      7  C   UNL     1      90.044  46.817  42.037  0.00  0.00    +0.124 C 
ATOM      8  C   UNL     1      90.950  46.559  40.827  0.00  0.00    -0.021 C 
ATOM      9  C   UNL     1      90.835  46.612  43.337  0.00  0.00    -0.021 C 
ATOM     10  C   UNL     1      88.876  45.852  42.010  0.00  0.00    -0.041 C 
ATOM     11  C   UNL     1      87.650  46.225  42.391  0.00  0.00    -0.048 C 
ATOM     12  C   UNL     1      87.354  47.633  42.742  0.00  0.00    +0.059 A 
ATOM     13  C   UNL     1      86.108  48.053  43.273  0.00  0.00    +0.142 A 
ATOM     14  C   UNL     1      85.870  49.433  43.480  0.00  0.00    +0.104 A 
ATOM     15  C   UNL     1      84.606  49.951  44.067  0.00  0.00    +0.202 C 
ATOM     16  O   UNL     1      83.629  49.183  44.278  0.00  0.00    -0.289 OA
ATOM     17  C   UNL     1      84.516  51.395  44.487  0.00  0.00    +0.158 C 
ENDROOT
BRANCH   1  21
ATOM     18  C   UNL     1      85.681  56.355  44.944  0.00  0.00    +0.203 A 
ATOM     19  C   UNL     1      85.266  56.096  43.614  0.00  0.00    +0.163 A 
ATOM     20  C   UNL     1      85.150  54.772  43.165  0.00  0.00    -0.010 A 
ATOM     21  C   UNL     1      85.430  53.696  44.016  0.00  0.00    +0.003 A 
ATOM     22  C   UNL     1      85.852  53.955  45.327  0.00  0.00    -0.010 A 
ATOM     23  C   UNL     1      85.974  55.268  45.791  0.00  0.00    +0.163 A 
BRANCH  18  25
ATOM     24  C   UNL     1      84.774  58.484  45.957  0.00  0.00    +0.079 C 
ATOM     25  O   UNL     1      85.822  57.651  45.476  0.00  0.00    -0.489 OA
ENDBRANCH  18  25
BRANCH  19  26
ATOM     26  O   UNL     1      84.970  57.133  42.732  0.00  0.00    -0.503 OA
ATOM     27  H   UNL     1      85.463  57.930  42.763  0.00  0.00    +0.000 HD
ENDBRANCH  19  26
BRANCH  23  28
ATOM     28  O   UNL     1      86.391  55.473  47.106  0.00  0.00    -0.503 OA
ATOM     29  H   UNL     1      85.762  55.492  47.800  0.00  0.00    +0.000 HD
ENDBRANCH  23  28
ENDBRANCH   1  21
BRANCH  17  30
ATOM     30  O   UNL     1      83.170  51.801  44.490  0.00  0.00    -0.380 OA
ATOM     31  H   UNL     1      83.009  52.382  45.250  0.00  0.00    +0.000 HD
ENDBRANCH  17  30
BRANCH  13  32
ATOM     32  O   UNL     1      85.113  47.134  43.618  0.00  0.00    -0.505 OA
ATOM     33  H   UNL     1      85.184  46.241  43.343  0.00  0.00    +0.000 HD
ENDBRANCH  13  32
TORSDOF 6
ENDMDL
MODEL 8
REMARK VINA RESULT:    -7.275      1.506      2.336
REMARK INTER + INTRA:          -8.844
REMARK INTER:                  -8.375
REMARK INTRA:                  -0.469
REMARK UNBOUND:                 0.132
REMARK  Name = 
REMARK  9 active torsions:
REMARK  status: ('A' for Active; 'I' for Inactive)
REMARK    1  A    between atoms: C_1  and  O_2
REMARK    2  A    between atoms: O_2  and  C_3
REMARK    3  A    between atoms: C_4  and  O_5
REMARK    4  A    between atoms: C_7  and  C_11
REMARK    5  A    between atoms: C_9  and  O_10
REMARK    6  A    between atoms: C_17  and  C_18
REMARK    7  A    between atoms: C_17  and  C_19
REMARK    8  A    between atoms: C_23  and  O_29
REMARK    9  A    between atoms: C_27  and  O_28
REMARK                            x       y       z     vdW  Elec       q    Type
REMARK                         _______ _______ _______ _____ _____    ______ ____
ROOT
ATOM      1  C   UNL     1      86.953  50.785  42.151  0.00  0.00    +0.158 C 
ATOM      2  O   UNL     1      86.871  51.341  43.465  0.00  0.00    -0.480 OA
ATOM      3  C   UNL     1      86.278  52.584  43.713  0.00  0.00    +0.139 A 
ATOM      4  C   UNL     1      85.944  52.928  45.021  0.00  0.00    +0.023 A 
ATOM      5  C   UNL     1      85.331  54.150  45.291  0.00  0.00    +0.136 A 
ATOM      6  O   UNL     1      84.991  54.475  46.608  0.00  0.00    -0.481 OA
ATOM      7  C   UNL     1      84.657  55.806  47.020  0.00  0.00    +0.124 C 
ATOM      8  C   UNL     1      83.649  55.715  48.171  0.00  0.00    -0.021 C 
ATOM      9  C   UNL     1      85.935  56.510  47.497  0.00  0.00    -0.021 C 
ATOM     10  C   UNL     1      84.052  56.596  45.878  0.00  0.00    -0.041 C 
ATOM     11  C   UNL     1      84.278  56.270  44.601  0.00  0.00    -0.048 C 
ATOM     12  C   UNL     1      85.033  55.044  44.249  0.00  0.00    +0.059 A 
ATOM     13  C   UNL     1      85.408  54.722  42.920  0.00  0.00    +0.142 A 
ATOM     14  C   UNL     1      86.033  53.480  42.656  0.00  0.00    +0.104 A 
ATOM     15  C   UNL     1      86.491  53.084  41.298  0.00  0.00    +0.202 C 
ATOM     16  O   UNL     1      86.212  53.788  40.290  0.00  0.00    -0.289 OA
ATOM     17  C   UNL     1      87.364  51.867  41.130  0.00  0.00    +0.158 C 
ENDROOT
BRANCH   1  21
ATOM     18  C   UNL     1      89.763  47.481  42.085  0.00  0.00    +0.203 A 
ATOM     19  C   UNL     1      90.210  48.794  42.374  0.00  0.00    +0.163 A 
ATOM     20  C   UNL     1      89.291  49.854  42.400  0.00  0.00    -0.010 A 
ATOM     21  C   UNL     1      87.931  49.633  42.151  0.00  0.00    +0.003 A 
ATOM     22  C   UNL     1      87.494  48.336  41.853  0.00  0.00    -0.010 A 
ATOM     23  C   UNL     1      88.395  47.269  41.822  0.00  0.00    +0.163 A 
BRANCH  18  25
ATOM     24  C   UNL     1      91.109  45.632  43.158  0.00  0.00    +0.079 C 
ATOM     25  O   UNL     1      90.615  46.361  42.040  0.00  0.00    -0.489 OA
ENDBRANCH  18  25
BRANCH  19  26
ATOM     26  O   UNL     1      91.552  49.062  42.634  0.00  0.00    -0.503 OA
ATOM     27  H   UNL     1      91.791  49.816  43.136  0.00  0.00    +0.000 HD
ENDBRANCH  19  26
BRANCH  23  28
ATOM     28  O   UNL     1      87.908  45.995  41.527  0.00  0.00    -0.503 OA
ATOM     29  H   UNL     1      87.235  45.616  42.057  0.00  0.00    +0.000 HD
ENDBRANCH  23  28
ENDBRANCH   1  21
BRANCH  17  30
ATOM     30  O   UNL     1      87.231  51.369  39.822  0.00  0.00    -0.380 OA
ATOM     31  H   UNL     1      86.991  52.093  39.224  0.00  0.00    +0.000 HD
ENDBRANCH  17  30
BRANCH  13  32
ATOM     32  O   UNL     1      85.195  55.613  41.863  0.00  0.00    -0.505 OA
ATOM     33  H   UNL     1      84.383  56.075  41.796  0.00  0.00    +0.000 HD
ENDBRANCH  13  32
TORSDOF 6
ENDMDL
MODEL 9
REMARK VINA RESULT:    -6.969      1.865      8.339
REMARK INTER + INTRA:          -8.467
REMARK INTER:                  -8.599
REMARK INTRA:                   0.132
REMARK UNBOUND:                 0.132
REMARK  Name = 
REMARK  9 active torsions:
REMARK  status: ('A' for Active; 'I' for Inactive)
REMARK    1  A    between atoms: C_1  and  O_2
REMARK    2  A    between atoms: O_2  and  C_3
REMARK    3  A    between atoms: C_4  and  O_5
REMARK    4  A    between atoms: C_7  and  C_11
REMARK    5  A    between atoms: C_9  and  O_10
REMARK    6  A    between atoms: C_17  and  C_18
REMARK    7  A    between atoms: C_17  and  C_19
REMARK    8  A    between atoms: C_23  and  O_29
REMARK    9  A    between atoms: C_27  and  O_28
REMARK                            x       y       z     vdW  Elec       q    Type
REMARK                         _______ _______ _______ _____ _____    ______ ____
ROOT
ATOM      1  C   UNL     1      86.913  53.402  44.082  0.00  0.00    +0.158 C 
ATOM      2  O   UNL     1      87.231  52.040  44.375  0.00  0.00    -0.480 OA
ATOM      3  C   UNL     1      87.871  51.208  43.450  0.00  0.00    +0.139 A 
ATOM      4  C   UNL     1      88.434  50.012  43.888  0.00  0.00    +0.023 A 
ATOM      5  C   UNL     1      89.097  49.177  42.989  0.00  0.00    +0.136 A 
ATOM      6  O   UNL     1      89.667  47.986  43.448  0.00  0.00    -0.481 OA
ATOM      7  C   UNL     1      90.081  46.932  42.569  0.00  0.00    +0.124 C 
ATOM      8  C   UNL     1      91.277  46.215  43.208  0.00  0.00    -0.021 C 
ATOM      9  C   UNL     1      88.915  45.951  42.391  0.00  0.00    -0.021 C 
ATOM     10  C   UNL     1      90.483  47.477  41.214  0.00  0.00    -0.041 C 
ATOM     11  C   UNL     1      90.031  48.655  40.769  0.00  0.00    -0.048 C 
ATOM     12  C   UNL     1      89.215  49.536  41.636  0.00  0.00    +0.059 A 
ATOM     13  C   UNL     1      88.607  50.730  41.172  0.00  0.00    +0.142 A 
ATOM     14  C   UNL     1      87.933  51.570  42.091  0.00  0.00    +0.104 A 
ATOM     15  C   UNL     1      87.240  52.818  41.678  0.00  0.00    +0.202 C 
ATOM     16  O   UNL     1      87.343  53.257  40.500  0.00  0.00    -0.289 OA
ATOM     17  C   UNL     1      86.339  53.528  42.655  0.00  0.00    +0.158 C 
ENDROOT
BRANCH   1  21
ATOM     18  C   UNL     1      84.069  54.890  46.999  0.00  0.00    +0.203 A 
ATOM     19  C   UNL     1      84.631  53.598  47.143  0.00  0.00    +0.163 A 
ATOM     20  C   UNL     1      85.555  53.129  46.198  0.00  0.00    -0.010 A 
ATOM     21  C   UNL     1      85.940  53.925  45.112  0.00  0.00    +0.003 A 
ATOM     22  C   UNL     1      85.373  55.199  44.966  0.00  0.00    -0.010 A 
ATOM     23  C   UNL     1      84.451  55.681  45.897  0.00  0.00    +0.163 A 
BRANCH  18  25
ATOM     24  C   UNL     1      81.728  55.509  47.721  0.00  0.00    +0.079 C 
ATOM     25  O   UNL     1      83.137  55.439  47.902  0.00  0.00    -0.489 OA
ENDBRANCH  18  25
BRANCH  19  26
ATOM     26  O   UNL     1      84.283  52.771  48.210  0.00  0.00    -0.503 OA
ATOM     27  H   UNL     1      84.552  52.991  49.081  0.00  0.00    +0.000 HD
ENDBRANCH  19  26
BRANCH  23  28
ATOM     28  O   UNL     1      83.921  56.958  45.710  0.00  0.00    -0.503 OA
ATOM     29  H   UNL     1      84.106  57.431  44.923  0.00  0.00    +0.000 HD
ENDBRANCH  23  28
ENDBRANCH   1  21
BRANCH  17  30
ATOM     30  O   UNL     1      86.233  54.885  42.298  0.00  0.00    -0.380 OA
ATOM     31  H   UNL     1      86.799  55.061  41.530  0.00  0.00    +0.000 HD
ENDBRANCH  17  30
BRANCH  13  32
ATOM     32  O   UNL     1      88.639  51.090  39.821  0.00  0.00    -0.505 OA
ATOM     33  H   UNL     1      88.498  51.981  39.570  0.00  0.00    +0.000 HD
ENDBRANCH  13  32
TORSDOF 6
ENDMDL
