MODEL 1
REMARK VINA RESULT:   -10.307      0.000      0.000
REMARK INTER + INTRA:         -23.736
REMARK INTER:                 -20.523
REMARK INTRA:                  -3.213
REMARK UNBOUND:                -3.186
REMARK  Name = 
REMARK  25 active torsions:
REMARK  status: ('A' for Active; 'I' for Inactive)
REMARK    1  A    between atoms: C_1  and  O_2
REMARK    2  A    between atoms: O_2  and  C_3
REMARK    3  A    between atoms: C_3  and  C_5
REMARK    4  A    between atoms: C_5  and  C_6
REMARK    5  A    between atoms: C_5  and  C_24
REMARK    6  A    between atoms: C_11  and  C_14
REMARK    7  A    between atoms: C_14  and  C_15
REMARK    8  A    between atoms: C_16  and  C_17
REMARK    9  A    between atoms: C_16  and  C_23
REMARK   10  A    between atoms: C_17  and  C_18
REMARK   11  A    between atoms: C_18  and  C_19
REMARK   12  A    between atoms: C_20  and  C_21
REMARK   13  A    between atoms: C_20  and  C_22
REMARK   14  A    between atoms: C_24  and  C_25
REMARK   15  A    between atoms: C_24  and  C_43
REMARK   16  A    between atoms: C_30  and  C_33
REMARK   17  A    between atoms: C_33  and  C_34
REMARK   18  A    between atoms: C_35  and  C_36
REMARK   19  A    between atoms: C_35  and  C_42
REMARK   20  A    between atoms: C_36  and  C_37
REMARK   21  A    between atoms: C_37  and  C_38
REMARK   22  A    between atoms: C_39  and  C_40
REMARK   23  A    between atoms: C_39  and  C_41
REMARK   24  A    between atoms: C_43  and  O_45
REMARK   25  A    between atoms: O_45  and  C_46
REMARK                            x       y       z     vdW  Elec       q    Type
REMARK                         _______ _______ _______ _____ _____    ______ ____
ROOT
ATOM      1  C   UNL     1      87.632  51.805  42.478  0.00  0.00    +0.102 C 
ENDROOT
BRANCH   1   2
ATOM      2  C   UNL     1      87.151  51.126  43.769  0.00  0.00    +0.018 C 
ATOM      3  C   UNL     1      86.670  49.868  43.810  0.00  0.00    -0.007 C 
ATOM      4  C   UNL     1      86.121  49.306  45.053  0.00  0.00    +0.180 C 
ATOM      5  O   UNL     1      85.685  48.126  45.071  0.00  0.00    -0.288 OA
ATOM      6  C   UNL     1      86.054  50.132  46.266  0.00  0.00    -0.008 C 
ATOM      7  C   UNL     1      86.584  51.368  46.283  0.00  0.00    +0.007 C 
ATOM      8  C   UNL     1      87.172  51.919  45.033  0.00  0.00    +0.187 C 
ATOM      9  O   UNL     1      87.682  53.073  45.040  0.00  0.00    -0.287 OA
BRANCH   7  10
ATOM     10  C   UNL     1      86.473  52.243  47.516  0.00  0.00    -0.005 C 
BRANCH  10  11
ATOM     11  C   UNL     1      85.648  53.489  47.286  0.00  0.00    -0.081 C 
ATOM     12  C   UNL     1      84.531  53.805  47.988  0.00  0.00    -0.076 C 
ATOM     13  C   UNL     1      84.066  52.929  49.127  0.00  0.00    -0.044 C 
BRANCH  12  14
ATOM     14  C   UNL     1      83.682  55.036  47.686  0.00  0.00    -0.029 C 
BRANCH  14  15
ATOM     15  C   UNL     1      84.400  56.240  47.047  0.00  0.00    -0.031 C 
BRANCH  15  16
ATOM     16  C   UNL     1      84.018  56.428  45.595  0.00  0.00    -0.085 C 
ATOM     17  C   UNL     1      84.914  56.387  44.585  0.00  0.00    -0.080 C 
ATOM     18  C   UNL     1      86.387  56.190  44.842  0.00  0.00    -0.044 C 
ATOM     19  C   UNL     1      84.421  56.559  43.171  0.00  0.00    -0.044 C 
ENDBRANCH  15  16
ENDBRANCH  14  15
ENDBRANCH  12  14
ENDBRANCH  10  11
ENDBRANCH   7  10
ENDBRANCH   1   2
BRANCH   1  20
ATOM     20  C   UNL     1      86.553  52.654  41.845  0.00  0.00    +0.316 C 
ATOM     21  O   UNL     1      86.653  53.912  41.817  0.00  0.00    -0.250 OA
BRANCH  20  23
ATOM     22  C   UNL     1      84.110  52.269  41.789  0.00  0.00    +0.082 C 
ATOM     23  O   UNL     1      85.425  52.028  41.305  0.00  0.00    -0.467 OA
ENDBRANCH  20  23
ENDBRANCH   1  20
BRANCH   1  24
ATOM     24  C   UNL     1      88.362  50.937  41.397  0.00  0.00    +0.102 C 
BRANCH  24  25
ATOM     25  C   UNL     1      89.166  49.715  41.870  0.00  0.00    +0.018 C 
ATOM     26  C   UNL     1      90.324  49.812  42.554  0.00  0.00    -0.007 C 
ATOM     27  C   UNL     1      91.074  48.610  42.956  0.00  0.00    +0.180 C 
ATOM     28  O   UNL     1      92.154  48.725  43.593  0.00  0.00    -0.288 OA
ATOM     29  C   UNL     1      90.563  47.276  42.611  0.00  0.00    -0.008 C 
ATOM     30  C   UNL     1      89.415  47.141  41.935  0.00  0.00    +0.007 C 
ATOM     31  C   UNL     1      88.653  48.354  41.538  0.00  0.00    +0.187 C 
ATOM     32  O   UNL     1      87.562  48.229  40.915  0.00  0.00    -0.287 OA
BRANCH  30  33
ATOM     33  C   UNL     1      88.872  45.767  41.632  0.00  0.00    -0.005 C 
BRANCH  33  34
ATOM     34  C   UNL     1      87.549  45.572  42.333  0.00  0.00    -0.081 C 
ATOM     35  C   UNL     1      87.229  44.504  43.097  0.00  0.00    -0.076 C 
ATOM     36  C   UNL     1      88.179  43.345  43.296  0.00  0.00    -0.044 C 
BRANCH  35  37
ATOM     37  C   UNL     1      85.894  44.478  43.807  0.00  0.00    -0.029 C 
BRANCH  37  38
ATOM     38  C   UNL     1      84.879  45.361  43.070  0.00  0.00    -0.031 C 
BRANCH  38  39
ATOM     39  C   UNL     1      83.548  45.365  43.780  0.00  0.00    -0.085 C 
ATOM     40  C   UNL     1      82.685  46.405  43.775  0.00  0.00    -0.080 C 
ATOM     41  C   UNL     1      81.398  46.271  44.547  0.00  0.00    -0.044 C 
ATOM     42  C   UNL     1      82.960  47.677  43.004  0.00  0.00    -0.044 C 
ENDBRANCH  38  39
ENDBRANCH  37  38
ENDBRANCH  35  37
ENDBRANCH  33  34
ENDBRANCH  30  33
ENDBRANCH  24  25
BRANCH  24  43
ATOM     43  C   UNL     1      89.144  51.785  40.421  0.00  0.00    +0.316 C 
ATOM     44  O   UNL     1      89.178  51.453  39.205  0.00  0.00    -0.250 OA
BRANCH  43  45
ATOM     45  O   UNL     1      89.837  52.918  40.861  0.00  0.00    -0.467 OA
ATOM     46  C   UNL     1      90.611  53.729  39.988  0.00  0.00    +0.082 C 
ENDBRANCH  43  45
ENDBRANCH  24  43
ENDBRANCH   1  24
TORSDOF 17
ENDMDL
MODEL 2
REMARK VINA RESULT:    -9.822      0.831      7.982
REMARK INTER + INTRA:         -22.770
REMARK INTER:                 -20.599
REMARK INTRA:                  -2.171
REMARK UNBOUND:                -3.186
REMARK  Name = 
REMARK  25 active torsions:
REMARK  status: ('A' for Active; 'I' for Inactive)
REMARK    1  A    between atoms: C_1  and  O_2
REMARK    2  A    between atoms: O_2  and  C_3
REMARK    3  A    between atoms: C_3  and  C_5
REMARK    4  A    between atoms: C_5  and  C_6
REMARK    5  A    between atoms: C_5  and  C_24
REMARK    6  A    between atoms: C_11  and  C_14
REMARK    7  A    between atoms: C_14  and  C_15
REMARK    8  A    between atoms: C_16  and  C_17
REMARK    9  A    between atoms: C_16  and  C_23
REMARK   10  A    between atoms: C_17  and  C_18
REMARK   11  A    between atoms: C_18  and  C_19
REMARK   12  A    between atoms: C_20  and  C_21
REMARK   13  A    between atoms: C_20  and  C_22
REMARK   14  A    between atoms: C_24  and  C_25
REMARK   15  A    between atoms: C_24  and  C_43
REMARK   16  A    between atoms: C_30  and  C_33
REMARK   17  A    between atoms: C_33  and  C_34
REMARK   18  A    between atoms: C_35  and  C_36
REMARK   19  A    between atoms: C_35  and  C_42
REMARK   20  A    between atoms: C_36  and  C_37
REMARK   21  A    between atoms: C_37  and  C_38
REMARK   22  A    between atoms: C_39  and  C_40
REMARK   23  A    between atoms: C_39  and  C_41
REMARK   24  A    between atoms: C_43  and  O_45
REMARK   25  A    between atoms: O_45  and  C_46
REMARK                            x       y       z     vdW  Elec       q    Type
REMARK                         _______ _______ _______ _____ _____    ______ ____
ROOT
ATOM      1  C   UNL     1      87.983  51.183  40.916  0.00  0.00    +0.102 C 
ENDROOT
BRANCH   1   2
ATOM      2  C   UNL     1      88.819  50.045  41.522  0.00  0.00    +0.018 C 
ATOM      3  C   UNL     1      90.045  50.227  42.051  0.00  0.00    -0.007 C 
ATOM      4  C   UNL     1      90.846  49.086  42.517  0.00  0.00    +0.180 C 
ATOM      5  O   UNL     1      91.985  49.279  43.016  0.00  0.00    -0.288 OA
ATOM      6  C   UNL     1      90.330  47.717  42.373  0.00  0.00    -0.008 C 
ATOM      7  C   UNL     1      89.087  47.500  41.912  0.00  0.00    +0.007 C 
ATOM      8  C   UNL     1      88.264  48.661  41.476  0.00  0.00    +0.187 C 
ATOM      9  O   UNL     1      87.092  48.470  41.051  0.00  0.00    -0.287 OA
BRANCH   7  10
ATOM     10  C   UNL     1      88.568  46.090  41.714  0.00  0.00    -0.005 C 
BRANCH  10  11
ATOM     11  C   UNL     1      87.278  45.822  42.456  0.00  0.00    -0.081 C 
ATOM     12  C   UNL     1      87.027  44.695  43.168  0.00  0.00    -0.076 C 
ATOM     13  C   UNL     1      88.087  43.630  43.320  0.00  0.00    -0.044 C 
BRANCH  12  14
ATOM     14  C   UNL     1      85.689  44.425  43.850  0.00  0.00    -0.029 C 
BRANCH  14  15
ATOM     15  C   UNL     1      84.417  44.763  43.049  0.00  0.00    -0.031 C 
BRANCH  15  16
ATOM     16  C   UNL     1      84.189  46.255  42.941  0.00  0.00    -0.085 C 
ATOM     17  C   UNL     1      83.073  46.866  43.392  0.00  0.00    -0.080 C 
ATOM     18  C   UNL     1      81.938  46.086  44.009  0.00  0.00    -0.044 C 
ATOM     19  C   UNL     1      82.961  48.364  43.259  0.00  0.00    -0.044 C 
ENDBRANCH  15  16
ENDBRANCH  14  15
ENDBRANCH  12  14
ENDBRANCH  10  11
ENDBRANCH   7  10
ENDBRANCH   1   2
BRANCH   1  20
ATOM     20  C   UNL     1      88.795  52.047  39.976  0.00  0.00    +0.316 C 
ATOM     21  O   UNL     1      88.966  51.708  38.772  0.00  0.00    -0.250 OA
BRANCH  20  23
ATOM     22  C   UNL     1      90.518  53.818  39.866  0.00  0.00    +0.082 C 
ATOM     23  O   UNL     1      89.373  53.223  40.464  0.00  0.00    -0.467 OA
ENDBRANCH  20  23
ENDBRANCH   1  20
BRANCH   1  24
ATOM     24  C   UNL     1      87.110  52.067  41.870  0.00  0.00    +0.102 C 
BRANCH  24  25
ATOM     25  C   UNL     1      86.816  51.537  43.282  0.00  0.00    +0.018 C 
ATOM     26  C   UNL     1      86.456  50.262  43.534  0.00  0.00    -0.007 C 
ATOM     27  C   UNL     1      86.153  49.812  44.903  0.00  0.00    +0.180 C 
ATOM     28  O   UNL     1      85.818  48.617  45.113  0.00  0.00    -0.288 OA
ATOM     29  C   UNL     1      86.238  50.759  46.023  0.00  0.00    -0.008 C 
ATOM     30  C   UNL     1      86.595  52.032  45.812  0.00  0.00    +0.007 C 
ATOM     31  C   UNL     1      86.911  52.485  44.432  0.00  0.00    +0.187 C 
ATOM     32  O   UNL     1      87.263  53.680  44.232  0.00  0.00    -0.287 OA
BRANCH  30  33
ATOM     33  C   UNL     1      86.731  52.983  46.975  0.00  0.00    -0.005 C 
BRANCH  33  34
ATOM     34  C   UNL     1      85.719  54.096  46.848  0.00  0.00    -0.081 C 
ATOM     35  C   UNL     1      84.593  54.205  47.588  0.00  0.00    -0.076 C 
ATOM     36  C   UNL     1      84.206  53.168  48.618  0.00  0.00    -0.044 C 
BRANCH  35  37
ATOM     37  C   UNL     1      83.708  55.418  47.411  0.00  0.00    -0.029 C 
BRANCH  37  38
ATOM     38  C   UNL     1      84.409  56.470  46.542  0.00  0.00    -0.031 C 
BRANCH  38  39
ATOM     39  C   UNL     1      84.088  56.270  45.083  0.00  0.00    -0.085 C 
ATOM     40  C   UNL     1      84.937  56.553  44.069  0.00  0.00    -0.080 C 
ATOM     41  C   UNL     1      84.470  56.318  42.657  0.00  0.00    -0.044 C 
ATOM     42  C   UNL     1      86.337  57.070  44.312  0.00  0.00    -0.044 C 
ENDBRANCH  38  39
ENDBRANCH  37  38
ENDBRANCH  35  37
ENDBRANCH  33  34
ENDBRANCH  30  33
ENDBRANCH  24  25
BRANCH  24  43
ATOM     43  C   UNL     1      85.863  52.579  41.187  0.00  0.00    +0.316 C 
ATOM     44  O   UNL     1      84.749  52.057  41.464  0.00  0.00    -0.250 OA
BRANCH  43  45
ATOM     45  O   UNL     1      85.943  53.610  40.244  0.00  0.00    -0.467 OA
ATOM     46  C   UNL     1      84.792  54.197  39.652  0.00  0.00    +0.082 C 
ENDBRANCH  43  45
ENDBRANCH  24  43
ENDBRANCH   1  24
TORSDOF 17
ENDMDL
MODEL 3
REMARK VINA RESULT:    -9.660      1.583      4.010
REMARK INTER + INTRA:         -22.447
REMARK INTER:                 -17.864
REMARK INTRA:                  -4.584
REMARK UNBOUND:                -3.186
REMARK  Name = 
REMARK  25 active torsions:
REMARK  status: ('A' for Active; 'I' for Inactive)
REMARK    1  A    between atoms: C_1  and  O_2
REMARK    2  A    between atoms: O_2  and  C_3
REMARK    3  A    between atoms: C_3  and  C_5
REMARK    4  A    between atoms: C_5  and  C_6
REMARK    5  A    between atoms: C_5  and  C_24
REMARK    6  A    between atoms: C_11  and  C_14
REMARK    7  A    between atoms: C_14  and  C_15
REMARK    8  A    between atoms: C_16  and  C_17
REMARK    9  A    between atoms: C_16  and  C_23
REMARK   10  A    between atoms: C_17  and  C_18
REMARK   11  A    between atoms: C_18  and  C_19
REMARK   12  A    between atoms: C_20  and  C_21
REMARK   13  A    between atoms: C_20  and  C_22
REMARK   14  A    between atoms: C_24  and  C_25
REMARK   15  A    between atoms: C_24  and  C_43
REMARK   16  A    between atoms: C_30  and  C_33
REMARK   17  A    between atoms: C_33  and  C_34
REMARK   18  A    between atoms: C_35  and  C_36
REMARK   19  A    between atoms: C_35  and  C_42
REMARK   20  A    between atoms: C_36  and  C_37
REMARK   21  A    between atoms: C_37  and  C_38
REMARK   22  A    between atoms: C_39  and  C_40
REMARK   23  A    between atoms: C_39  and  C_41
REMARK   24  A    between atoms: C_43  and  O_45
REMARK   25  A    between atoms: O_45  and  C_46
REMARK                            x       y       z     vdW  Elec       q    Type
REMARK                         _______ _______ _______ _____ _____    ______ ____
ROOT
ATOM      1  C   UNL     1      87.985  52.491  41.589  0.00  0.00    +0.102 C 
ENDROOT
BRANCH   1   2
ATOM      2  C   UNL     1      86.567  53.008  41.876  0.00  0.00    +0.018 C 
ATOM      3  C   UNL     1      85.454  52.425  41.393  0.00  0.00    -0.007 C 
ATOM      4  C   UNL     1      84.129  53.025  41.607  0.00  0.00    +0.180 C 
ATOM      5  O   UNL     1      83.101  52.458  41.154  0.00  0.00    -0.288 OA
ATOM      6  C   UNL     1      84.008  54.301  42.326  0.00  0.00    -0.008 C 
ATOM      7  C   UNL     1      85.087  54.879  42.880  0.00  0.00    +0.007 C 
ATOM      8  C   UNL     1      86.421  54.249  42.692  0.00  0.00    +0.187 C 
ATOM      9  O   UNL     1      87.440  54.777  43.217  0.00  0.00    -0.287 OA
BRANCH   7  10
ATOM     10  C   UNL     1      84.976  56.220  43.578  0.00  0.00    -0.005 C 
BRANCH  10  11
ATOM     11  C   UNL     1      84.205  56.151  44.876  0.00  0.00    -0.081 C 
ATOM     12  C   UNL     1      84.769  56.252  46.106  0.00  0.00    -0.076 C 
ATOM     13  C   UNL     1      86.250  56.515  46.252  0.00  0.00    -0.044 C 
BRANCH  12  14
ATOM     14  C   UNL     1      83.973  56.109  47.399  0.00  0.00    -0.029 C 
BRANCH  14  15
ATOM     15  C   UNL     1      83.333  54.735  47.677  0.00  0.00    -0.031 C 
BRANCH  15  16
ATOM     16  C   UNL     1      84.271  53.809  48.420  0.00  0.00    -0.085 C 
ATOM     17  C   UNL     1      85.040  52.886  47.803  0.00  0.00    -0.080 C 
ATOM     18  C   UNL     1      84.985  52.682  46.309  0.00  0.00    -0.044 C 
ATOM     19  C   UNL     1      85.960  52.032  48.638  0.00  0.00    -0.044 C 
ENDBRANCH  15  16
ENDBRANCH  14  15
ENDBRANCH  12  14
ENDBRANCH  10  11
ENDBRANCH   7  10
ENDBRANCH   1   2
BRANCH   1  20
ATOM     20  C   UNL     1      88.635  53.221  40.435  0.00  0.00    +0.316 C 
ATOM     21  O   UNL     1      88.134  53.175  39.277  0.00  0.00    -0.250 OA
BRANCH  20  23
ATOM     22  C   UNL     1      90.848  54.038  39.691  0.00  0.00    +0.082 C 
ATOM     23  O   UNL     1      89.814  53.937  40.662  0.00  0.00    -0.467 OA
ENDBRANCH  20  23
ENDBRANCH   1  20
BRANCH   1  24
ATOM     24  C   UNL     1      88.214  50.946  41.469  0.00  0.00    +0.102 C 
BRANCH  24  25
ATOM     25  C   UNL     1      87.574  50.034  42.528  0.00  0.00    +0.018 C 
ATOM     26  C   UNL     1      87.403  50.400  43.814  0.00  0.00    -0.007 C 
ATOM     27  C   UNL     1      86.814  49.476  44.798  0.00  0.00    +0.180 C 
ATOM     28  O   UNL     1      86.664  49.841  45.993  0.00  0.00    -0.288 OA
ATOM     29  C   UNL     1      86.402  48.128  44.384  0.00  0.00    -0.008 C 
ATOM     30  C   UNL     1      86.554  47.729  43.115  0.00  0.00    +0.007 C 
ATOM     31  C   UNL     1      87.140  48.665  42.119  0.00  0.00    +0.187 C 
ATOM     32  O   UNL     1      87.268  48.298  40.918  0.00  0.00    -0.287 OA
BRANCH  30  33
ATOM     33  C   UNL     1      86.080  46.363  42.688  0.00  0.00    -0.005 C 
BRANCH  33  34
ATOM     34  C   UNL     1      84.572  46.340  42.624  0.00  0.00    -0.081 C 
ATOM     35  C   UNL     1      83.770  45.732  43.526  0.00  0.00    -0.076 C 
ATOM     36  C   UNL     1      84.322  44.959  44.701  0.00  0.00    -0.044 C 
BRANCH  35  37
ATOM     37  C   UNL     1      82.269  45.859  43.381  0.00  0.00    -0.029 C 
BRANCH  37  38
ATOM     38  C   UNL     1      81.729  46.939  44.326  0.00  0.00    -0.031 C 
BRANCH  38  39
ATOM     39  C   UNL     1      81.087  48.064  43.554  0.00  0.00    -0.085 C 
ATOM     40  C   UNL     1      81.659  49.272  43.348  0.00  0.00    -0.080 C 
ATOM     41  C   UNL     1      80.888  50.306  42.571  0.00  0.00    -0.044 C 
ATOM     42  C   UNL     1      83.048  49.601  43.849  0.00  0.00    -0.044 C 
ENDBRANCH  38  39
ENDBRANCH  37  38
ENDBRANCH  35  37
ENDBRANCH  33  34
ENDBRANCH  30  33
ENDBRANCH  24  25
BRANCH  24  43
ATOM     43  C   UNL     1      89.666  50.603  41.231  0.00  0.00    +0.316 C 
ATOM     44  O   UNL     1      90.104  50.556  40.049  0.00  0.00    -0.250 OA
BRANCH  43  45
ATOM     45  O   UNL     1      90.515  50.323  42.307  0.00  0.00    -0.467 OA
ATOM     46  C   UNL     1      91.223  49.097  42.426  0.00  0.00    +0.082 C 
ENDBRANCH  43  45
ENDBRANCH  24  43
ENDBRANCH   1  24
TORSDOF 17
ENDMDL
MODEL 4
REMARK VINA RESULT:    -9.649      1.542      7.477
REMARK INTER + INTRA:         -22.424
REMARK INTER:                 -18.274
REMARK INTRA:                  -4.150
REMARK UNBOUND:                -3.186
REMARK  Name = 
REMARK  25 active torsions:
REMARK  status: ('A' for Active; 'I' for Inactive)
REMARK    1  A    between atoms: C_1  and  O_2
REMARK    2  A    between atoms: O_2  and  C_3
REMARK    3  A    between atoms: C_3  and  C_5
REMARK    4  A    between atoms: C_5  and  C_6
REMARK    5  A    between atoms: C_5  and  C_24
REMARK    6  A    between atoms: C_11  and  C_14
REMARK    7  A    between atoms: C_14  and  C_15
REMARK    8  A    between atoms: C_16  and  C_17
REMARK    9  A    between atoms: C_16  and  C_23
REMARK   10  A    between atoms: C_17  and  C_18
REMARK   11  A    between atoms: C_18  and  C_19
REMARK   12  A    between atoms: C_20  and  C_21
REMARK   13  A    between atoms: C_20  and  C_22
REMARK   14  A    between atoms: C_24  and  C_25
REMARK   15  A    between atoms: C_24  and  C_43
REMARK   16  A    between atoms: C_30  and  C_33
REMARK   17  A    between atoms: C_33  and  C_34
REMARK   18  A    between atoms: C_35  and  C_36
REMARK   19  A    between atoms: C_35  and  C_42
REMARK   20  A    between atoms: C_36  and  C_37
REMARK   21  A    between atoms: C_37  and  C_38
REMARK   22  A    between atoms: C_39  and  C_40
REMARK   23  A    between atoms: C_39  and  C_41
REMARK   24  A    between atoms: C_43  and  O_45
REMARK   25  A    between atoms: O_45  and  C_46
REMARK                            x       y       z     vdW  Elec       q    Type
REMARK                         _______ _______ _______ _____ _____    ______ ____
ROOT
ATOM      1  C   UNL     1      88.514  50.030  41.754  0.00  0.00    +0.102 C 
ENDROOT
BRANCH   1   2
ATOM      2  C   UNL     1      87.609  49.416  42.833  0.00  0.00    +0.018 C 
ATOM      3  C   UNL     1      87.473  49.935  44.069  0.00  0.00    -0.007 C 
ATOM      4  C   UNL     1      86.680  49.246  45.098  0.00  0.00    +0.180 C 
ATOM      5  O   UNL     1      86.559  49.753  46.243  0.00  0.00    -0.288 OA
ATOM      6  C   UNL     1      86.053  47.951  44.798  0.00  0.00    -0.008 C 
ATOM      7  C   UNL     1      86.111  47.434  43.558  0.00  0.00    +0.007 C 
ATOM      8  C   UNL     1      86.883  48.153  42.510  0.00  0.00    +0.187 C 
ATOM      9  O   UNL     1      86.935  47.683  41.340  0.00  0.00    -0.287 OA
BRANCH   7  10
ATOM     10  C   UNL     1      85.510  46.076  43.256  0.00  0.00    -0.005 C 
BRANCH  10  11
ATOM     11  C   UNL     1      84.125  45.897  43.837  0.00  0.00    -0.081 C 
ATOM     12  C   UNL     1      82.977  46.210  43.186  0.00  0.00    -0.076 C 
ATOM     13  C   UNL     1      83.015  46.714  41.762  0.00  0.00    -0.044 C 
BRANCH  12  14
ATOM     14  C   UNL     1      81.598  46.082  43.826  0.00  0.00    -0.029 C 
BRANCH  14  15
ATOM     15  C   UNL     1      81.105  47.276  44.667  0.00  0.00    -0.031 C 
BRANCH  15  16
ATOM     16  C   UNL     1      80.580  48.403  43.805  0.00  0.00    -0.085 C 
ATOM     17  C   UNL     1      81.314  49.490  43.482  0.00  0.00    -0.080 C 
ATOM     18  C   UNL     1      82.718  49.678  44.001  0.00  0.00    -0.044 C 
ATOM     19  C   UNL     1      80.701  50.542  42.593  0.00  0.00    -0.044 C 
ENDBRANCH  15  16
ENDBRANCH  14  15
ENDBRANCH  12  14
ENDBRANCH  10  11
ENDBRANCH   7  10
ENDBRANCH   1   2
BRANCH   1  20
ATOM     20  C   UNL     1      89.944  49.552  41.871  0.00  0.00    +0.316 C 
ATOM     21  O   UNL     1      90.819  50.261  42.441  0.00  0.00    -0.250 OA
BRANCH  20  23
ATOM     22  C   UNL     1      90.429  47.138  42.107  0.00  0.00    +0.082 C 
ATOM     23  O   UNL     1      90.293  48.315  41.321  0.00  0.00    -0.467 OA
ENDBRANCH  20  23
ENDBRANCH   1  20
BRANCH   1  24
ATOM     24  C   UNL     1      88.462  51.578  41.519  0.00  0.00    +0.102 C 
BRANCH  24  25
ATOM     25  C   UNL     1      87.132  52.305  41.770  0.00  0.00    +0.018 C 
ATOM     26  C   UNL     1      85.931  51.780  41.455  0.00  0.00    -0.007 C 
ATOM     27  C   UNL     1      84.686  52.533  41.686  0.00  0.00    +0.180 C 
ATOM     28  O   UNL     1      83.576  52.022  41.383  0.00  0.00    -0.288 OA
ATOM     29  C   UNL     1      84.740  53.881  42.268  0.00  0.00    -0.008 C 
ATOM     30  C   UNL     1      85.915  54.434  42.595  0.00  0.00    +0.007 C 
ATOM     31  C   UNL     1      87.171  53.671  42.372  0.00  0.00    +0.187 C 
ATOM     32  O   UNL     1      88.278  54.183  42.696  0.00  0.00    -0.287 OA
BRANCH  30  33
ATOM     33  C   UNL     1      85.956  55.796  43.241  0.00  0.00    -0.005 C 
BRANCH  33  34
ATOM     34  C   UNL     1      86.108  55.651  44.736  0.00  0.00    -0.081 C 
ATOM     35  C   UNL     1      85.917  56.644  45.632  0.00  0.00    -0.076 C 
ATOM     36  C   UNL     1      85.560  58.051  45.209  0.00  0.00    -0.044 C 
BRANCH  35  37
ATOM     37  C   UNL     1      86.025  56.336  47.109  0.00  0.00    -0.029 C 
BRANCH  37  38
ATOM     38  C   UNL     1      84.879  55.415  47.549  0.00  0.00    -0.031 C 
BRANCH  38  39
ATOM     39  C   UNL     1      85.399  54.248  48.349  0.00  0.00    -0.085 C 
ATOM     40  C   UNL     1      85.429  52.971  47.902  0.00  0.00    -0.080 C 
ATOM     41  C   UNL     1      85.960  51.904  48.823  0.00  0.00    -0.044 C 
ATOM     42  C   UNL     1      84.973  52.593  46.511  0.00  0.00    -0.044 C 
ENDBRANCH  38  39
ENDBRANCH  37  38
ENDBRANCH  35  37
ENDBRANCH  33  34
ENDBRANCH  30  33
ENDBRANCH  24  25
BRANCH  24  43
ATOM     43  C   UNL     1      89.082  51.973  40.198  0.00  0.00    +0.316 C 
ATOM     44  O   UNL     1      88.466  51.722  39.127  0.00  0.00    -0.250 OA
BRANCH  43  45
ATOM     45  O   UNL     1      90.334  52.596  40.160  0.00  0.00    -0.467 OA
ATOM     46  C   UNL     1      90.494  53.975  39.856  0.00  0.00    +0.082 C 
ENDBRANCH  43  45
ENDBRANCH  24  43
ENDBRANCH   1  24
TORSDOF 17
ENDMDL
MODEL 5
REMARK VINA RESULT:    -9.596      2.006      6.768
REMARK INTER + INTRA:         -22.319
REMARK INTER:                 -18.862
REMARK INTRA:                  -3.457
REMARK UNBOUND:                -3.186
REMARK  Name = 
REMARK  25 active torsions:
REMARK  status: ('A' for Active; 'I' for Inactive)
REMARK    1  A    between atoms: C_1  and  O_2
REMARK    2  A    between atoms: O_2  and  C_3
REMARK    3  A    between atoms: C_3  and  C_5
REMARK    4  A    between atoms: C_5  and  C_6
REMARK    5  A    between atoms: C_5  and  C_24
REMARK    6  A    between atoms: C_11  and  C_14
REMARK    7  A    between atoms: C_14  and  C_15
REMARK    8  A    between atoms: C_16  and  C_17
REMARK    9  A    between atoms: C_16  and  C_23
REMARK   10  A    between atoms: C_17  and  C_18
REMARK   11  A    between atoms: C_18  and  C_19
REMARK   12  A    between atoms: C_20  and  C_21
REMARK   13  A    between atoms: C_20  and  C_22
REMARK   14  A    between atoms: C_24  and  C_25
REMARK   15  A    between atoms: C_24  and  C_43
REMARK   16  A    between atoms: C_30  and  C_33
REMARK   17  A    between atoms: C_33  and  C_34
REMARK   18  A    between atoms: C_35  and  C_36
REMARK   19  A    between atoms: C_35  and  C_42
REMARK   20  A    between atoms: C_36  and  C_37
REMARK   21  A    between atoms: C_37  and  C_38
REMARK   22  A    between atoms: C_39  and  C_40
REMARK   23  A    between atoms: C_39  and  C_41
REMARK   24  A    between atoms: C_43  and  O_45
REMARK   25  A    between atoms: O_45  and  C_46
REMARK                            x       y       z     vdW  Elec       q    Type
REMARK                         _______ _______ _______ _____ _____    ______ ____
ROOT
ATOM      1  C   UNL     1      85.108  54.122  44.578  0.00  0.00    +0.102 C 
ENDROOT
BRANCH   1   2
ATOM      2  C   UNL     1      84.707  53.654  43.170  0.00  0.00    +0.018 C 
ATOM      3  C   UNL     1      85.246  54.155  42.042  0.00  0.00    -0.007 C 
ATOM      4  C   UNL     1      84.747  53.750  40.719  0.00  0.00    +0.180 C 
ATOM      5  O   UNL     1      85.271  54.225  39.677  0.00  0.00    -0.288 OA
ATOM      6  C   UNL     1      83.619  52.815  40.614  0.00  0.00    -0.008 C 
ATOM      7  C   UNL     1      83.099  52.243  41.714  0.00  0.00    +0.007 C 
ATOM      8  C   UNL     1      83.631  52.627  43.048  0.00  0.00    +0.187 C 
ATOM      9  O   UNL     1      83.159  52.089  44.087  0.00  0.00    -0.287 OA
BRANCH   7  10
ATOM     10  C   UNL     1      81.903  51.317  41.615  0.00  0.00    -0.005 C 
BRANCH  10  11
ATOM     11  C   UNL     1      82.080  50.034  42.395  0.00  0.00    -0.081 C 
ATOM     12  C   UNL     1      81.106  49.452  43.139  0.00  0.00    -0.076 C 
ATOM     13  C   UNL     1      79.716  50.040  43.178  0.00  0.00    -0.044 C 
BRANCH  12  14
ATOM     14  C   UNL     1      81.337  48.194  43.969  0.00  0.00    -0.029 C 
BRANCH  14  15
ATOM     15  C   UNL     1      81.765  46.924  43.209  0.00  0.00    -0.031 C 
BRANCH  15  16
ATOM     16  C   UNL     1      82.733  46.079  44.009  0.00  0.00    -0.085 C 
ATOM     17  C   UNL     1      83.984  45.792  43.589  0.00  0.00    -0.080 C 
ATOM     18  C   UNL     1      84.498  46.267  42.252  0.00  0.00    -0.044 C 
ATOM     19  C   UNL     1      84.876  44.962  44.477  0.00  0.00    -0.044 C 
ENDBRANCH  15  16
ENDBRANCH  14  15
ENDBRANCH  12  14
ENDBRANCH  10  11
ENDBRANCH   7  10
ENDBRANCH   1   2
BRANCH   1  20
ATOM     20  C   UNL     1      85.654  55.533  44.574  0.00  0.00    +0.316 C 
ATOM     21  O   UNL     1      86.886  55.749  44.410  0.00  0.00    -0.250 OA
BRANCH  20  23
ATOM     22  C   UNL     1      84.477  57.117  46.065  0.00  0.00    +0.082 C 
ATOM     23  O   UNL     1      84.774  56.601  44.774  0.00  0.00    -0.467 OA
ENDBRANCH  20  23
ENDBRANCH   1  20
BRANCH   1  24
ATOM     24  C   UNL     1      85.999  53.183  45.459  0.00  0.00    +0.102 C 
BRANCH  24  25
ATOM     25  C   UNL     1      86.400  51.815  44.884  0.00  0.00    +0.018 C 
ATOM     26  C   UNL     1      85.843  50.654  45.282  0.00  0.00    -0.007 C 
ATOM     27  C   UNL     1      86.287  49.365  44.723  0.00  0.00    +0.180 C 
ATOM     28  O   UNL     1      85.752  48.294  45.111  0.00  0.00    -0.288 OA
ATOM     29  C   UNL     1      87.355  49.330  43.715  0.00  0.00    -0.008 C 
ATOM     30  C   UNL     1      87.930  50.464  43.294  0.00  0.00    +0.007 C 
ATOM     31  C   UNL     1      87.476  51.766  43.850  0.00  0.00    +0.187 C 
ATOM     32  O   UNL     1      88.005  52.837  43.442  0.00  0.00    -0.287 OA
BRANCH  30  33
ATOM     33  C   UNL     1      88.988  50.423  42.220  0.00  0.00    -0.005 C 
BRANCH  33  34
ATOM     34  C   UNL     1      89.283  48.990  41.846  0.00  0.00    -0.081 C 
ATOM     35  C   UNL     1      90.395  48.311  42.205  0.00  0.00    -0.076 C 
ATOM     36  C   UNL     1      91.504  48.952  43.008  0.00  0.00    -0.044 C 
BRANCH  35  37
ATOM     37  C   UNL     1      90.523  46.852  41.827  0.00  0.00    -0.029 C 
BRANCH  37  38
ATOM     38  C   UNL     1      89.885  45.962  42.902  0.00  0.00    -0.031 C 
BRANCH  38  39
ATOM     39  C   UNL     1      88.656  45.269  42.372  0.00  0.00    -0.085 C 
ATOM     40  C   UNL     1      88.182  44.093  42.843  0.00  0.00    -0.080 C 
ATOM     41  C   UNL     1      86.951  43.509  42.201  0.00  0.00    -0.044 C 
ATOM     42  C   UNL     1      88.831  43.368  44.000  0.00  0.00    -0.044 C 
ENDBRANCH  38  39
ENDBRANCH  37  38
ENDBRANCH  35  37
ENDBRANCH  33  34
ENDBRANCH  30  33
ENDBRANCH  24  25
BRANCH  24  43
ATOM     43  C   UNL     1      85.481  53.072  46.874  0.00  0.00    +0.316 C 
ATOM     44  O   UNL     1      84.266  53.311  47.108  0.00  0.00    -0.250 OA
BRANCH  43  45
ATOM     45  O   UNL     1      86.343  52.723  47.920  0.00  0.00    -0.467 OA
ATOM     46  C   UNL     1      86.026  51.716  48.871  0.00  0.00    +0.082 C 
ENDBRANCH  43  45
ENDBRANCH  24  43
ENDBRANCH   1  24
TORSDOF 17
ENDMDL
MODEL 6
REMARK VINA RESULT:    -9.384      2.067      7.314
REMARK INTER + INTRA:         -21.896
REMARK INTER:                 -19.260
REMARK INTRA:                  -2.637
REMARK UNBOUND:                -3.186
REMARK  Name = 
REMARK  25 active torsions:
REMARK  status: ('A' for Active; 'I' for Inactive)
REMARK    1  A    between atoms: C_1  and  O_2
REMARK    2  A    between atoms: O_2  and  C_3
REMARK    3  A    between atoms: C_3  and  C_5
REMARK    4  A    between atoms: C_5  and  C_6
REMARK    5  A    between atoms: C_5  and  C_24
REMARK    6  A    between atoms: C_11  and  C_14
REMARK    7  A    between atoms: C_14  and  C_15
REMARK    8  A    between atoms: C_16  and  C_17
REMARK    9  A    between atoms: C_16  and  C_23
REMARK   10  A    between atoms: C_17  and  C_18
REMARK   11  A    between atoms: C_18  and  C_19
REMARK   12  A    between atoms: C_20  and  C_21
REMARK   13  A    between atoms: C_20  and  C_22
REMARK   14  A    between atoms: C_24  and  C_25
REMARK   15  A    between atoms: C_24  and  C_43
REMARK   16  A    between atoms: C_30  and  C_33
REMARK   17  A    between atoms: C_33  and  C_34
REMARK   18  A    between atoms: C_35  and  C_36
REMARK   19  A    between atoms: C_35  and  C_42
REMARK   20  A    between atoms: C_36  and  C_37
REMARK   21  A    between atoms: C_37  and  C_38
REMARK   22  A    between atoms: C_39  and  C_40
REMARK   23  A    between atoms: C_39  and  C_41
REMARK   24  A    between atoms: C_43  and  O_45
REMARK   25  A    between atoms: O_45  and  C_46
REMARK                            x       y       z     vdW  Elec       q    Type
REMARK                         _______ _______ _______ _____ _____    ______ ____
ROOT
ATOM      1  C   UNL     1      88.696  51.018  41.366  0.00  0.00    +0.102 C 
ENDROOT
BRANCH   1   2
ATOM      2  C   UNL     1      89.406  49.778  41.931  0.00  0.00    +0.018 C 
ATOM      3  C   UNL     1      90.544  49.839  42.649  0.00  0.00    -0.007 C 
ATOM      4  C   UNL     1      91.241  48.616  43.072  0.00  0.00    +0.180 C 
ATOM      5  O   UNL     1      92.299  48.696  43.749  0.00  0.00    -0.288 OA
ATOM      6  C   UNL     1      90.718  47.299  42.679  0.00  0.00    -0.008 C 
ATOM      7  C   UNL     1      89.551  47.195  42.021  0.00  0.00    +0.007 C 
ATOM      8  C   UNL     1      88.830  48.435  41.627  0.00  0.00    +0.187 C 
ATOM      9  O   UNL     1      87.728  48.350  41.018  0.00  0.00    -0.287 OA
BRANCH   7  10
ATOM     10  C   UNL     1      89.033  45.844  41.569  0.00  0.00    -0.005 C 
BRANCH  10  11
ATOM     11  C   UNL     1      87.697  45.487  42.180  0.00  0.00    -0.081 C 
ATOM     12  C   UNL     1      87.482  44.404  42.968  0.00  0.00    -0.076 C 
ATOM     13  C   UNL     1      88.625  43.493  43.348  0.00  0.00    -0.044 C 
BRANCH  12  14
ATOM     14  C   UNL     1      86.106  44.033  43.513  0.00  0.00    -0.029 C 
BRANCH  14  15
ATOM     15  C   UNL     1      84.885  44.640  42.795  0.00  0.00    -0.031 C 
BRANCH  15  16
ATOM     16  C   UNL     1      83.780  45.007  43.761  0.00  0.00    -0.085 C 
ATOM     17  C   UNL     1      82.847  45.946  43.492  0.00  0.00    -0.080 C 
ATOM     18  C   UNL     1      82.867  46.736  42.208  0.00  0.00    -0.044 C 
ATOM     19  C   UNL     1      81.772  46.215  44.515  0.00  0.00    -0.044 C 
ENDBRANCH  15  16
ENDBRANCH  14  15
ENDBRANCH  12  14
ENDBRANCH  10  11
ENDBRANCH   7  10
ENDBRANCH   1   2
BRANCH   1  20
ATOM     20  C   UNL     1      89.527  51.719  40.315  0.00  0.00    +0.316 C 
ATOM     21  O   UNL     1      89.438  51.397  39.098  0.00  0.00    -0.250 OA
BRANCH  20  23
ATOM     22  C   UNL     1      90.750  53.825  39.877  0.00  0.00    +0.082 C 
ATOM     23  O   UNL     1      90.417  52.723  40.711  0.00  0.00    -0.467 OA
ENDBRANCH  20  23
ENDBRANCH   1  20
BRANCH   1  24
ATOM     24  C   UNL     1      88.074  52.051  42.365  0.00  0.00    +0.102 C 
BRANCH  24  25
ATOM     25  C   UNL     1      87.323  51.511  43.592  0.00  0.00    +0.018 C 
ATOM     26  C   UNL     1      87.754  51.684  44.858  0.00  0.00    -0.007 C 
ATOM     27  C   UNL     1      87.014  51.118  45.998  0.00  0.00    +0.180 C 
ATOM     28  O   UNL     1      87.436  51.293  47.172  0.00  0.00    -0.288 OA
ATOM     29  C   UNL     1      85.784  50.348  45.767  0.00  0.00    -0.008 C 
ATOM     30  C   UNL     1      85.325  50.157  44.524  0.00  0.00    +0.007 C 
ATOM     31  C   UNL     1      86.066  50.737  43.373  0.00  0.00    +0.187 C 
ATOM     32  O   UNL     1      85.625  50.573  42.201  0.00  0.00    -0.287 OA
BRANCH  30  33
ATOM     33  C   UNL     1      84.033  49.411  44.300  0.00  0.00    -0.005 C 
BRANCH  33  34
ATOM     34  C   UNL     1      83.142  50.196  43.368  0.00  0.00    -0.081 C 
ATOM     35  C   UNL     1      81.791  50.150  43.370  0.00  0.00    -0.076 C 
ATOM     36  C   UNL     1      81.019  49.250  44.307  0.00  0.00    -0.044 C 
BRANCH  35  37
ATOM     37  C   UNL     1      81.022  51.053  42.432  0.00  0.00    -0.029 C 
BRANCH  37  38
ATOM     38  C   UNL     1      81.926  51.535  41.290  0.00  0.00    -0.031 C 
BRANCH  38  39
ATOM     39  C   UNL     1      82.742  52.730  41.713  0.00  0.00    -0.085 C 
ATOM     40  C   UNL     1      82.374  54.016  41.510  0.00  0.00    -0.080 C 
ATOM     41  C   UNL     1      83.303  55.108  41.971  0.00  0.00    -0.044 C 
ATOM     42  C   UNL     1      81.058  54.384  40.862  0.00  0.00    -0.044 C 
ENDBRANCH  38  39
ENDBRANCH  37  38
ENDBRANCH  35  37
ENDBRANCH  33  34
ENDBRANCH  30  33
ENDBRANCH  24  25
BRANCH  24  43
ATOM     43  C   UNL     1      87.292  53.130  41.652  0.00  0.00    +0.316 C 
ATOM     44  O   UNL     1      87.084  54.229  42.235  0.00  0.00    -0.250 OA
BRANCH  43  45
ATOM     45  O   UNL     1      86.788  52.910  40.366  0.00  0.00    -0.467 OA
ATOM     46  C   UNL     1      85.748  53.699  39.804  0.00  0.00    +0.082 C 
ENDBRANCH  43  45
ENDBRANCH  24  43
ENDBRANCH   1  24
TORSDOF 17
ENDMDL
MODEL 7
REMARK VINA RESULT:    -9.218      2.355      7.642
REMARK INTER + INTRA:         -21.565
REMARK INTER:                 -20.401
REMARK INTRA:                  -1.164
REMARK UNBOUND:                -3.186
REMARK  Name = 
REMARK  25 active torsions:
REMARK  status: ('A' for Active; 'I' for Inactive)
REMARK    1  A    between atoms: C_1  and  O_2
REMARK    2  A    between atoms: O_2  and  C_3
REMARK    3  A    between atoms: C_3  and  C_5
REMARK    4  A    between atoms: C_5  and  C_6
REMARK    5  A    between atoms: C_5  and  C_24
REMARK    6  A    between atoms: C_11  and  C_14
REMARK    7  A    between atoms: C_14  and  C_15
REMARK    8  A    between atoms: C_16  and  C_17
REMARK    9  A    between atoms: C_16  and  C_23
REMARK   10  A    between atoms: C_17  and  C_18
REMARK   11  A    between atoms: C_18  and  C_19
REMARK   12  A    between atoms: C_20  and  C_21
REMARK   13  A    between atoms: C_20  and  C_22
REMARK   14  A    between atoms: C_24  and  C_25
REMARK   15  A    between atoms: C_24  and  C_43
REMARK   16  A    between atoms: C_30  and  C_33
REMARK   17  A    between atoms: C_33  and  C_34
REMARK   18  A    between atoms: C_35  and  C_36
REMARK   19  A    between atoms: C_35  and  C_42
REMARK   20  A    between atoms: C_36  and  C_37
REMARK   21  A    between atoms: C_37  and  C_38
REMARK   22  A    between atoms: C_39  and  C_40
REMARK   23  A    between atoms: C_39  and  C_41
REMARK   24  A    between atoms: C_43  and  O_45
REMARK   25  A    between atoms: O_45  and  C_46
REMARK                            x       y       z     vdW  Elec       q    Type
REMARK                         _______ _______ _______ _____ _____    ______ ____
ROOT
ATOM      1  C   UNL     1      88.096  50.757  43.624  0.00  0.00    +0.102 C 
ENDROOT
BRANCH   1   2
ATOM      2  C   UNL     1      87.586  49.363  43.228  0.00  0.00    +0.018 C 
ATOM      3  C   UNL     1      88.257  48.535  42.404  0.00  0.00    -0.007 C 
ATOM      4  C   UNL     1      87.672  47.258  41.971  0.00  0.00    +0.180 C 
ATOM      5  O   UNL     1      88.320  46.495  41.208  0.00  0.00    -0.288 OA
ATOM      6  C   UNL     1      86.318  46.885  42.404  0.00  0.00    -0.008 C 
ATOM      7  C   UNL     1      85.643  47.653  43.277  0.00  0.00    +0.007 C 
ATOM      8  C   UNL     1      86.255  48.927  43.743  0.00  0.00    +0.187 C 
ATOM      9  O   UNL     1      85.637  49.650  44.571  0.00  0.00    -0.287 OA
BRANCH   7  10
ATOM     10  C   UNL     1      84.228  47.300  43.689  0.00  0.00    -0.005 C 
BRANCH  10  11
ATOM     11  C   UNL     1      83.256  48.446  43.513  0.00  0.00    -0.081 C 
ATOM     12  C   UNL     1      81.919  48.352  43.724  0.00  0.00    -0.076 C 
ATOM     13  C   UNL     1      81.310  47.066  44.230  0.00  0.00    -0.044 C 
BRANCH  12  14
ATOM     14  C   UNL     1      80.956  49.508  43.472  0.00  0.00    -0.029 C 
BRANCH  14  15
ATOM     15  C   UNL     1      79.525  49.356  44.020  0.00  0.00    -0.031 C 
BRANCH  15  16
ATOM     16  C   UNL     1      78.632  50.508  43.614  0.00  0.00    -0.085 C 
ATOM     17  C   UNL     1      77.441  50.761  44.198  0.00  0.00    -0.080 C 
ATOM     18  C   UNL     1      76.889  49.873  45.285  0.00  0.00    -0.044 C 
ATOM     19  C   UNL     1      76.643  51.953  43.733  0.00  0.00    -0.044 C 
ENDBRANCH  15  16
ENDBRANCH  14  15
ENDBRANCH  12  14
ENDBRANCH  10  11
ENDBRANCH   7  10
ENDBRANCH   1   2
BRANCH   1  20
ATOM     20  C   UNL     1      87.722  51.118  45.044  0.00  0.00    +0.316 C 
ATOM     21  O   UNL     1      87.124  52.199  45.301  0.00  0.00    -0.250 OA
BRANCH  20  23
ATOM     22  C   UNL     1      87.560  50.384  47.400  0.00  0.00    +0.082 C 
ATOM     23  O   UNL     1      88.065  50.243  46.079  0.00  0.00    -0.467 OA
ENDBRANCH  20  23
ENDBRANCH   1  20
BRANCH   1  24
ATOM     24  C   UNL     1      87.831  51.960  42.656  0.00  0.00    +0.102 C 
BRANCH  24  25
ATOM     25  C   UNL     1      86.387  52.461  42.500  0.00  0.00    +0.018 C 
ATOM     26  C   UNL     1      85.352  51.652  42.198  0.00  0.00    -0.007 C 
ATOM     27  C   UNL     1      83.991  52.187  42.027  0.00  0.00    +0.180 C 
ATOM     28  O   UNL     1      83.040  51.412  41.745  0.00  0.00    -0.288 OA
ATOM     29  C   UNL     1      83.743  53.627  42.184  0.00  0.00    -0.008 C 
ATOM     30  C   UNL     1      84.746  54.461  42.486  0.00  0.00    +0.007 C 
ATOM     31  C   UNL     1      86.118  53.920  42.669  0.00  0.00    +0.187 C 
ATOM     32  O   UNL     1      87.062  54.702  42.970  0.00  0.00    -0.287 OA
BRANCH  30  33
ATOM     33  C   UNL     1      84.472  55.929  42.697  0.00  0.00    -0.005 C 
BRANCH  33  34
ATOM     34  C   UNL     1      84.353  56.222  44.173  0.00  0.00    -0.081 C 
ATOM     35  C   UNL     1      85.052  57.172  44.832  0.00  0.00    -0.076 C 
ATOM     36  C   UNL     1      86.083  58.035  44.141  0.00  0.00    -0.044 C 
BRANCH  35  37
ATOM     37  C   UNL     1      84.772  57.411  46.299  0.00  0.00    -0.029 C 
BRANCH  37  38
ATOM     38  C   UNL     1      83.854  56.314  46.854  0.00  0.00    -0.031 C 
BRANCH  38  39
ATOM     39  C   UNL     1      84.601  55.412  47.804  0.00  0.00    -0.085 C 
ATOM     40  C   UNL     1      84.779  54.085  47.613  0.00  0.00    -0.080 C 
ATOM     41  C   UNL     1      85.532  53.306  48.660  0.00  0.00    -0.044 C 
ATOM     42  C   UNL     1      84.272  53.372  46.380  0.00  0.00    -0.044 C 
ENDBRANCH  38  39
ENDBRANCH  37  38
ENDBRANCH  35  37
ENDBRANCH  33  34
ENDBRANCH  30  33
ENDBRANCH  24  25
BRANCH  24  43
ATOM     43  C   UNL     1      88.513  51.774  41.320  0.00  0.00    +0.316 C 
ATOM     44  O   UNL     1      87.856  51.304  40.351  0.00  0.00    -0.250 OA
BRANCH  43  45
ATOM     45  O   UNL     1      89.863  52.105  41.160  0.00  0.00    -0.467 OA
ATOM     46  C   UNL     1      90.298  53.167  40.321  0.00  0.00    +0.082 C 
ENDBRANCH  43  45
ENDBRANCH  24  43
ENDBRANCH   1  24
TORSDOF 17
ENDMDL
MODEL 8
REMARK VINA RESULT:    -9.152      1.652      8.490
REMARK INTER + INTRA:         -21.434
REMARK INTER:                 -19.514
REMARK INTRA:                  -1.920
REMARK UNBOUND:                -3.186
REMARK  Name = 
REMARK  25 active torsions:
REMARK  status: ('A' for Active; 'I' for Inactive)
REMARK    1  A    between atoms: C_1  and  O_2
REMARK    2  A    between atoms: O_2  and  C_3
REMARK    3  A    between atoms: C_3  and  C_5
REMARK    4  A    between atoms: C_5  and  C_6
REMARK    5  A    between atoms: C_5  and  C_24
REMARK    6  A    between atoms: C_11  and  C_14
REMARK    7  A    between atoms: C_14  and  C_15
REMARK    8  A    between atoms: C_16  and  C_17
REMARK    9  A    between atoms: C_16  and  C_23
REMARK   10  A    between atoms: C_17  and  C_18
REMARK   11  A    between atoms: C_18  and  C_19
REMARK   12  A    between atoms: C_20  and  C_21
REMARK   13  A    between atoms: C_20  and  C_22
REMARK   14  A    between atoms: C_24  and  C_25
REMARK   15  A    between atoms: C_24  and  C_43
REMARK   16  A    between atoms: C_30  and  C_33
REMARK   17  A    between atoms: C_33  and  C_34
REMARK   18  A    between atoms: C_35  and  C_36
REMARK   19  A    between atoms: C_35  and  C_42
REMARK   20  A    between atoms: C_36  and  C_37
REMARK   21  A    between atoms: C_37  and  C_38
REMARK   22  A    between atoms: C_39  and  C_40
REMARK   23  A    between atoms: C_39  and  C_41
REMARK   24  A    between atoms: C_43  and  O_45
REMARK   25  A    between atoms: O_45  and  C_46
REMARK                            x       y       z     vdW  Elec       q    Type
REMARK                         _______ _______ _______ _____ _____    ______ ____
ROOT
ATOM      1  C   UNL     1      86.666  50.628  43.519  0.00  0.00    +0.102 C 
ENDROOT
BRANCH   1   2
ATOM      2  C   UNL     1      85.527  49.598  43.463  0.00  0.00    +0.018 C 
ATOM      3  C   UNL     1      84.242  49.898  43.732  0.00  0.00    -0.007 C 
ATOM      4  C   UNL     1      83.211  48.852  43.771  0.00  0.00    +0.180 C 
ATOM      5  O   UNL     1      82.014  49.156  44.016  0.00  0.00    -0.288 OA
ATOM      6  C   UNL     1      83.581  47.446  43.552  0.00  0.00    -0.008 C 
ATOM      7  C   UNL     1      84.839  47.115  43.215  0.00  0.00    +0.007 C 
ATOM      8  C   UNL     1      85.872  48.182  43.140  0.00  0.00    +0.187 C 
ATOM      9  O   UNL     1      87.054  47.885  42.815  0.00  0.00    -0.287 OA
BRANCH   7  10
ATOM     10  C   UNL     1      85.238  45.663  43.038  0.00  0.00    -0.005 C 
BRANCH  10  11
ATOM     11  C   UNL     1      86.649  45.495  42.522  0.00  0.00    -0.081 C 
ATOM     12  C   UNL     1      87.517  44.551  42.966  0.00  0.00    -0.076 C 
ATOM     13  C   UNL     1      87.083  43.533  43.995  0.00  0.00    -0.044 C 
BRANCH  12  14
ATOM     14  C   UNL     1      88.957  44.450  42.474  0.00  0.00    -0.029 C 
BRANCH  14  15
ATOM     15  C   UNL     1      89.937  45.536  42.958  0.00  0.00    -0.031 C 
BRANCH  15  16
ATOM     16  C   UNL     1      90.081  46.662  41.957  0.00  0.00    -0.085 C 
ATOM     17  C   UNL     1      90.597  47.869  42.274  0.00  0.00    -0.080 C 
ATOM     18  C   UNL     1      91.035  48.198  43.679  0.00  0.00    -0.044 C 
ATOM     19  C   UNL     1      90.721  48.912  41.192  0.00  0.00    -0.044 C 
ENDBRANCH  15  16
ENDBRANCH  14  15
ENDBRANCH  12  14
ENDBRANCH  10  11
ENDBRANCH   7  10
ENDBRANCH   1   2
BRANCH   1  20
ATOM     20  C   UNL     1      86.871  51.173  44.915  0.00  0.00    +0.316 C 
ATOM     21  O   UNL     1      87.429  52.290  45.098  0.00  0.00    -0.250 OA
BRANCH  20  23
ATOM     22  C   UNL     1      87.217  50.294  47.201  0.00  0.00    +0.082 C 
ATOM     23  O   UNL     1      86.450  50.411  46.009  0.00  0.00    -0.467 OA
ENDBRANCH  20  23
ENDBRANCH   1  20
BRANCH   1  24
ATOM     24  C   UNL     1      86.690  51.783  42.462  0.00  0.00    +0.102 C 
BRANCH  24  25
ATOM     25  C   UNL     1      85.406  52.602  42.253  0.00  0.00    +0.018 C 
ATOM     26  C   UNL     1      84.240  52.060  41.847  0.00  0.00    -0.007 C 
ATOM     27  C   UNL     1      83.046  52.894  41.631  0.00  0.00    +0.180 C 
ATOM     28  O   UNL     1      81.969  52.365  41.252  0.00  0.00    -0.288 OA
ATOM     29  C   UNL     1      83.113  54.345  41.854  0.00  0.00    -0.008 C 
ATOM     30  C   UNL     1      84.254  54.919  42.259  0.00  0.00    +0.007 C 
ATOM     31  C   UNL     1      85.456  54.076  42.488  0.00  0.00    +0.187 C 
ATOM     32  O   UNL     1      86.527  54.612  42.886  0.00  0.00    -0.287 OA
BRANCH  30  33
ATOM     33  C   UNL     1      84.298  56.400  42.538  0.00  0.00    -0.005 C 
BRANCH  33  34
ATOM     34  C   UNL     1      84.162  56.648  44.020  0.00  0.00    -0.081 C 
ATOM     35  C   UNL     1      84.996  57.416  44.756  0.00  0.00    -0.076 C 
ATOM     36  C   UNL     1      86.209  58.089  44.154  0.00  0.00    -0.044 C 
BRANCH  35  37
ATOM     37  C   UNL     1      84.692  57.643  46.220  0.00  0.00    -0.029 C 
BRANCH  37  38
ATOM     38  C   UNL     1      83.732  56.566  46.741  0.00  0.00    -0.031 C 
BRANCH  38  39
ATOM     39  C   UNL     1      84.422  55.652  47.721  0.00  0.00    -0.085 C 
ATOM     40  C   UNL     1      84.736  54.361  47.469  0.00  0.00    -0.080 C 
ATOM     41  C   UNL     1      85.409  53.563  48.555  0.00  0.00    -0.044 C 
ATOM     42  C   UNL     1      84.456  53.710  46.134  0.00  0.00    -0.044 C 
ENDBRANCH  38  39
ENDBRANCH  37  38
ENDBRANCH  35  37
ENDBRANCH  33  34
ENDBRANCH  30  33
ENDBRANCH  24  25
BRANCH  24  43
ATOM     43  C   UNL     1      87.297  51.341  41.151  0.00  0.00    +0.316 C 
ATOM     44  O   UNL     1      87.563  50.121  40.973  0.00  0.00    -0.250 OA
BRANCH  43  45
ATOM     45  O   UNL     1      87.579  52.275  40.148  0.00  0.00    -0.467 OA
ATOM     46  C   UNL     1      88.825  52.315  39.466  0.00  0.00    +0.082 C 
ENDBRANCH  43  45
ENDBRANCH  24  43
ENDBRANCH   1  24
TORSDOF 17
ENDMDL
MODEL 9
REMARK VINA RESULT:    -8.894      1.805      4.144
REMARK INTER + INTRA:         -20.918
REMARK INTER:                 -17.732
REMARK INTRA:                  -3.186
REMARK UNBOUND:                -3.186
REMARK  Name = 
REMARK  25 active torsions:
REMARK  status: ('A' for Active; 'I' for Inactive)
REMARK    1  A    between atoms: C_1  and  O_2
REMARK    2  A    between atoms: O_2  and  C_3
REMARK    3  A    between atoms: C_3  and  C_5
REMARK    4  A    between atoms: C_5  and  C_6
REMARK    5  A    between atoms: C_5  and  C_24
REMARK    6  A    between atoms: C_11  and  C_14
REMARK    7  A    between atoms: C_14  and  C_15
REMARK    8  A    between atoms: C_16  and  C_17
REMARK    9  A    between atoms: C_16  and  C_23
REMARK   10  A    between atoms: C_17  and  C_18
REMARK   11  A    between atoms: C_18  and  C_19
REMARK   12  A    between atoms: C_20  and  C_21
REMARK   13  A    between atoms: C_20  and  C_22
REMARK   14  A    between atoms: C_24  and  C_25
REMARK   15  A    between atoms: C_24  and  C_43
REMARK   16  A    between atoms: C_30  and  C_33
REMARK   17  A    between atoms: C_33  and  C_34
REMARK   18  A    between atoms: C_35  and  C_36
REMARK   19  A    between atoms: C_35  and  C_42
REMARK   20  A    between atoms: C_36  and  C_37
REMARK   21  A    between atoms: C_37  and  C_38
REMARK   22  A    between atoms: C_39  and  C_40
REMARK   23  A    between atoms: C_39  and  C_41
REMARK   24  A    between atoms: C_43  and  O_45
REMARK   25  A    between atoms: O_45  and  C_46
REMARK                            x       y       z     vdW  Elec       q    Type
REMARK                         _______ _______ _______ _____ _____    ______ ____
ROOT
ATOM      1  C   UNL     1      84.830  50.573  43.634  0.00  0.00    +0.102 C 
ENDROOT
BRANCH   1   2
ATOM      2  C   UNL     1      85.771  50.881  44.810  0.00  0.00    +0.018 C 
ATOM      3  C   UNL     1      86.956  50.266  44.991  0.00  0.00    -0.007 C 
ATOM      4  C   UNL     1      87.766  50.519  46.191  0.00  0.00    +0.180 C 
ATOM      5  O   UNL     1      88.874  49.940  46.336  0.00  0.00    -0.288 OA
ATOM      6  C   UNL     1      87.269  51.426  47.236  0.00  0.00    -0.008 C 
ATOM      7  C   UNL     1      86.124  52.108  47.061  0.00  0.00    +0.007 C 
ATOM      8  C   UNL     1      85.325  51.877  45.827  0.00  0.00    +0.187 C 
ATOM      9  O   UNL     1      84.255  52.520  45.648  0.00  0.00    -0.287 OA
BRANCH   7  10
ATOM     10  C   UNL     1      85.581  53.005  48.156  0.00  0.00    -0.005 C 
BRANCH  10  11
ATOM     11  C   UNL     1      85.598  54.470  47.785  0.00  0.00    -0.081 C 
ATOM     12  C   UNL     1      84.490  55.248  47.694  0.00  0.00    -0.076 C 
ATOM     13  C   UNL     1      83.129  54.689  48.034  0.00  0.00    -0.044 C 
BRANCH  12  14
ATOM     14  C   UNL     1      84.535  56.707  47.250  0.00  0.00    -0.029 C 
BRANCH  14  15
ATOM     15  C   UNL     1      85.441  57.045  46.051  0.00  0.00    -0.031 C 
BRANCH  15  16
ATOM     16  C   UNL     1      84.764  56.768  44.727  0.00  0.00    -0.085 C 
ATOM     17  C   UNL     1      85.355  56.081  43.725  0.00  0.00    -0.080 C 
ATOM     18  C   UNL     1      86.769  55.571  43.843  0.00  0.00    -0.044 C 
ATOM     19  C   UNL     1      84.579  55.837  42.456  0.00  0.00    -0.044 C 
ENDBRANCH  15  16
ENDBRANCH  14  15
ENDBRANCH  12  14
ENDBRANCH  10  11
ENDBRANCH   7  10
ENDBRANCH   1   2
BRANCH   1  20
ATOM     20  C   UNL     1      84.413  49.120  43.605  0.00  0.00    +0.316 C 
ATOM     21  O   UNL     1      85.208  48.227  43.201  0.00  0.00    -0.250 OA
BRANCH  20  23
ATOM     22  C   UNL     1      81.964  49.108  43.262  0.00  0.00    +0.082 C 
ATOM     23  O   UNL     1      83.122  48.776  44.017  0.00  0.00    -0.467 OA
ENDBRANCH  20  23
ENDBRANCH   1  20
BRANCH   1  24
ATOM     24  C   UNL     1      85.227  51.067  42.202  0.00  0.00    +0.102 C 
BRANCH  24  25
ATOM     25  C   UNL     1      86.694  51.450  41.948  0.00  0.00    +0.018 C 
ATOM     26  C   UNL     1      87.187  52.684  42.178  0.00  0.00    -0.007 C 
ATOM     27  C   UNL     1      88.593  53.009  41.886  0.00  0.00    +0.180 C 
ATOM     28  O   UNL     1      89.031  54.168  42.110  0.00  0.00    -0.288 OA
ATOM     29  C   UNL     1      89.485  51.981  41.332  0.00  0.00    -0.008 C 
ATOM     30  C   UNL     1      89.031  50.744  41.092  0.00  0.00    +0.007 C 
ATOM     31  C   UNL     1      87.614  50.413  41.396  0.00  0.00    +0.187 C 
ATOM     32  O   UNL     1      87.189  49.243  41.186  0.00  0.00    -0.287 OA
BRANCH  30  33
ATOM     33  C   UNL     1      89.967  49.682  40.573  0.00  0.00    -0.005 C 
BRANCH  33  34
ATOM     34  C   UNL     1      89.833  48.429  41.404  0.00  0.00    -0.081 C 
ATOM     35  C   UNL     1      90.589  48.136  42.486  0.00  0.00    -0.076 C 
ATOM     36  C   UNL     1      91.703  49.042  42.958  0.00  0.00    -0.044 C 
BRANCH  35  37
ATOM     37  C   UNL     1      90.291  46.880  43.275  0.00  0.00    -0.029 C 
BRANCH  37  38
ATOM     38  C   UNL     1      89.992  45.711  42.328  0.00  0.00    -0.031 C 
BRANCH  38  39
ATOM     39  C   UNL     1      89.228  44.621  43.036  0.00  0.00    -0.085 C 
ATOM     40  C   UNL     1      87.882  44.488  43.002  0.00  0.00    -0.080 C 
ATOM     41  C   UNL     1      87.255  43.358  43.776  0.00  0.00    -0.044 C 
ATOM     42  C   UNL     1      87.001  45.415  42.197  0.00  0.00    -0.044 C 
ENDBRANCH  38  39
ENDBRANCH  37  38
ENDBRANCH  35  37
ENDBRANCH  33  34
ENDBRANCH  30  33
ENDBRANCH  24  25
BRANCH  24  43
ATOM     43  C   UNL     1      84.270  52.112  41.676  0.00  0.00    +0.316 C 
ATOM     44  O   UNL     1      84.607  52.814  40.683  0.00  0.00    -0.250 OA
BRANCH  43  45
ATOM     45  O   UNL     1      83.030  52.313  42.291  0.00  0.00    -0.467 OA
ATOM     46  C   UNL     1      81.898  52.809  41.590  0.00  0.00    +0.082 C 
ENDBRANCH  43  45
ENDBRANCH  24  43
ENDBRANCH   1  24
TORSDOF 17
ENDMDL
