MODEL 1
REMARK VINA RESULT:    -9.941      0.000      0.000
REMARK INTER + INTRA:         -23.246
REMARK INTER:                 -19.927
REMARK INTRA:                  -3.320
REMARK UNBOUND:                -3.425
REMARK  Name = 
REMARK  25 active torsions:
REMARK  status: ('A' for Active; 'I' for Inactive)
REMARK    1  A    between atoms: C_1  and  O_2
REMARK    2  A    between atoms: O_2  and  C_3
REMARK    3  A    between atoms: C_3  and  C_5
REMARK    4  A    between atoms: C_5  and  C_6
REMARK    5  A    between atoms: C_5  and  C_24
REMARK    6  A    between atoms: C_11  and  C_14
REMARK    7  A    between atoms: C_14  and  C_15
REMARK    8  A    between atoms: C_16  and  C_17
REMARK    9  A    between atoms: C_16  and  C_23
REMARK   10  A    between atoms: C_17  and  C_18
REMARK   11  A    between atoms: C_18  and  C_19
REMARK   12  A    between atoms: C_20  and  C_21
REMARK   13  A    between atoms: C_20  and  C_22
REMARK   14  A    between atoms: C_24  and  C_25
REMARK   15  A    between atoms: C_24  and  C_43
REMARK   16  A    between atoms: C_30  and  C_33
REMARK   17  A    between atoms: C_33  and  C_34
REMARK   18  A    between atoms: C_35  and  C_36
REMARK   19  A    between atoms: C_35  and  C_42
REMARK   20  A    between atoms: C_36  and  C_37
REMARK   21  A    between atoms: C_37  and  C_38
REMARK   22  A    between atoms: C_39  and  C_40
REMARK   23  A    between atoms: C_39  and  C_41
REMARK   24  A    between atoms: C_43  and  O_45
REMARK   25  A    between atoms: O_45  and  C_46
REMARK                            x       y       z     vdW  Elec       q    Type
REMARK                         _______ _______ _______ _____ _____    ______ ____
ROOT
ATOM      1  C   UNL     1      87.563  51.754  42.659  0.00  0.00    +0.102 C 
ENDROOT
BRANCH   1   2
ATOM      2  C   UNL     1      87.100  51.135  43.988  0.00  0.00    +0.018 C 
ATOM      3  C   UNL     1      86.656  49.868  44.100  0.00  0.00    -0.007 C 
ATOM      4  C   UNL     1      86.121  49.362  45.372  0.00  0.00    +0.180 C 
ATOM      5  O   UNL     1      85.720  48.172  45.458  0.00  0.00    -0.288 OA
ATOM      6  C   UNL     1      86.029  50.253  46.537  0.00  0.00    -0.008 C 
ATOM      7  C   UNL     1      86.522  51.503  46.484  0.00  0.00    +0.007 C 
ATOM      8  C   UNL     1      87.096  51.999  45.204  0.00  0.00    +0.187 C 
ATOM      9  O   UNL     1      87.572  53.166  45.145  0.00  0.00    -0.287 OA
BRANCH   7  10
ATOM     10  C   UNL     1      86.383  52.443  47.665  0.00  0.00    -0.005 C 
BRANCH  10  11
ATOM     11  C   UNL     1      85.151  53.315  47.587  0.00  0.00    -0.081 C 
ATOM     12  C   UNL     1      85.176  54.671  47.565  0.00  0.00    -0.076 C 
ATOM     13  C   UNL     1      86.490  55.415  47.550  0.00  0.00    -0.044 C 
BRANCH  12  14
ATOM     14  C   UNL     1      83.911  55.524  47.556  0.00  0.00    -0.029 C 
BRANCH  14  15
ATOM     15  C   UNL     1      83.910  56.762  46.639  0.00  0.00    -0.031 C 
BRANCH  15  16
ATOM     16  C   UNL     1      83.862  56.388  45.174  0.00  0.00    -0.085 C 
ATOM     17  C   UNL     1      84.689  56.920  44.248  0.00  0.00    -0.080 C 
ATOM     18  C   UNL     1      85.706  57.974  44.609  0.00  0.00    -0.044 C 
ATOM     19  C   UNL     1      84.574  56.455  42.818  0.00  0.00    -0.044 C 
ENDBRANCH  15  16
ENDBRANCH  14  15
ENDBRANCH  12  14
ENDBRANCH  10  11
ENDBRANCH   7  10
ENDBRANCH   1   2
BRANCH   1  20
ATOM     20  C   UNL     1      86.469  52.561  41.996  0.00  0.00    +0.316 C 
ATOM     21  O   UNL     1      86.628  53.790  41.755  0.00  0.00    -0.250 OA
BRANCH  20  23
ATOM     22  C   UNL     1      84.003  52.414  42.107  0.00  0.00    +0.082 C 
ATOM     23  O   UNL     1      85.265  51.931  41.667  0.00  0.00    -0.467 OA
ENDBRANCH  20  23
ENDBRANCH   1  20
BRANCH   1  24
ATOM     24  C   UNL     1      88.291  50.840  41.617  0.00  0.00    +0.102 C 
BRANCH  24  25
ATOM     25  C   UNL     1      89.090  49.636  42.140  0.00  0.00    +0.018 C 
ATOM     26  C   UNL     1      90.238  49.757  42.837  0.00  0.00    -0.007 C 
ATOM     27  C   UNL     1      90.984  48.570  43.288  0.00  0.00    +0.180 C 
ATOM     28  O   UNL     1      92.054  48.708  43.937  0.00  0.00    -0.288 OA
ATOM     29  C   UNL     1      90.481  47.225  42.980  0.00  0.00    -0.008 C 
ATOM     30  C   UNL     1      89.343  47.066  42.292  0.00  0.00    +0.007 C 
ATOM     31  C   UNL     1      88.584  48.263  41.845  0.00  0.00    +0.187 C 
ATOM     32  O   UNL     1      87.502  48.116  41.211  0.00  0.00    -0.287 OA
BRANCH  30  33
ATOM     33  C   UNL     1      88.806  45.681  42.026  0.00  0.00    -0.005 C 
BRANCH  33  34
ATOM     34  C   UNL     1      87.448  45.526  42.667  0.00  0.00    -0.081 C 
ATOM     35  C   UNL     1      87.088  44.506  43.477  0.00  0.00    -0.076 C 
ATOM     36  C   UNL     1      88.026  43.365  43.798  0.00  0.00    -0.044 C 
BRANCH  35  37
ATOM     37  C   UNL     1      85.717  44.520  44.116  0.00  0.00    -0.029 C 
BRANCH  37  38
ATOM     38  C   UNL     1      84.802  45.521  43.399  0.00  0.00    -0.031 C 
BRANCH  38  39
ATOM     39  C   UNL     1      83.386  45.421  43.906  0.00  0.00    -0.085 C 
ATOM     40  C   UNL     1      82.529  46.465  43.985  0.00  0.00    -0.080 C 
ATOM     41  C   UNL     1      81.148  46.216  44.532  0.00  0.00    -0.044 C 
ATOM     42  C   UNL     1      82.906  47.854  43.522  0.00  0.00    -0.044 C 
ENDBRANCH  38  39
ENDBRANCH  37  38
ENDBRANCH  35  37
ENDBRANCH  33  34
ENDBRANCH  30  33
ENDBRANCH  24  25
BRANCH  24  43
ATOM     43  C   UNL     1      89.077  51.645  40.607  0.00  0.00    +0.316 C 
ATOM     44  O   UNL     1      89.092  51.278  39.401  0.00  0.00    -0.250 OA
BRANCH  43  45
ATOM     45  O   UNL     1      89.796  52.777  41.007  0.00  0.00    -0.467 OA
ATOM     46  C   UNL     1      90.585  53.541  40.105  0.00  0.00    +0.082 C 
ENDBRANCH  43  45
ENDBRANCH  24  43
ENDBRANCH   1  24
TORSDOF 17
ENDMDL
MODEL 2
REMARK VINA RESULT:    -9.866      1.257      8.215
REMARK INTER + INTRA:         -23.096
REMARK INTER:                 -19.004
REMARK INTRA:                  -4.091
REMARK UNBOUND:                -3.425
REMARK  Name = 
REMARK  25 active torsions:
REMARK  status: ('A' for Active; 'I' for Inactive)
REMARK    1  A    between atoms: C_1  and  O_2
REMARK    2  A    between atoms: O_2  and  C_3
REMARK    3  A    between atoms: C_3  and  C_5
REMARK    4  A    between atoms: C_5  and  C_6
REMARK    5  A    between atoms: C_5  and  C_24
REMARK    6  A    between atoms: C_11  and  C_14
REMARK    7  A    between atoms: C_14  and  C_15
REMARK    8  A    between atoms: C_16  and  C_17
REMARK    9  A    between atoms: C_16  and  C_23
REMARK   10  A    between atoms: C_17  and  C_18
REMARK   11  A    between atoms: C_18  and  C_19
REMARK   12  A    between atoms: C_20  and  C_21
REMARK   13  A    between atoms: C_20  and  C_22
REMARK   14  A    between atoms: C_24  and  C_25
REMARK   15  A    between atoms: C_24  and  C_43
REMARK   16  A    between atoms: C_30  and  C_33
REMARK   17  A    between atoms: C_33  and  C_34
REMARK   18  A    between atoms: C_35  and  C_36
REMARK   19  A    between atoms: C_35  and  C_42
REMARK   20  A    between atoms: C_36  and  C_37
REMARK   21  A    between atoms: C_37  and  C_38
REMARK   22  A    between atoms: C_39  and  C_40
REMARK   23  A    between atoms: C_39  and  C_41
REMARK   24  A    between atoms: C_43  and  O_45
REMARK   25  A    between atoms: O_45  and  C_46
REMARK                            x       y       z     vdW  Elec       q    Type
REMARK                         _______ _______ _______ _____ _____    ______ ____
ROOT
ATOM      1  C   UNL     1      88.309  50.842  41.638  0.00  0.00    +0.102 C 
ENDROOT
BRANCH   1   2
ATOM      2  C   UNL     1      89.026  49.603  42.196  0.00  0.00    +0.018 C 
ATOM      3  C   UNL     1      90.132  49.669  42.962  0.00  0.00    -0.007 C 
ATOM      4  C   UNL     1      90.841  48.450  43.377  0.00  0.00    +0.180 C 
ATOM      5  O   UNL     1      91.868  48.534  44.100  0.00  0.00    -0.288 OA
ATOM      6  C   UNL     1      90.367  47.134  42.925  0.00  0.00    -0.008 C 
ATOM      7  C   UNL     1      89.231  47.023  42.216  0.00  0.00    +0.007 C 
ATOM      8  C   UNL     1      88.496  48.257  41.829  0.00  0.00    +0.187 C 
ATOM      9  O   UNL     1      87.423  48.164  41.173  0.00  0.00    -0.287 OA
BRANCH   7  10
ATOM     10  C   UNL     1      88.765  45.674  41.704  0.00  0.00    -0.005 C 
BRANCH  10  11
ATOM     11  C   UNL     1      87.481  45.205  42.351  0.00  0.00    -0.081 C 
ATOM     12  C   UNL     1      87.386  44.120  43.160  0.00  0.00    -0.076 C 
ATOM     13  C   UNL     1      88.618  43.326  43.528  0.00  0.00    -0.044 C 
BRANCH  12  14
ATOM     14  C   UNL     1      86.063  43.633  43.743  0.00  0.00    -0.029 C 
BRANCH  14  15
ATOM     15  C   UNL     1      85.357  44.565  44.746  0.00  0.00    -0.031 C 
BRANCH  15  16
ATOM     16  C   UNL     1      84.074  45.139  44.185  0.00  0.00    -0.085 C 
ATOM     17  C   UNL     1      83.969  46.405  43.728  0.00  0.00    -0.080 C 
ATOM     18  C   UNL     1      85.131  47.365  43.784  0.00  0.00    -0.044 C 
ATOM     19  C   UNL     1      82.649  46.867  43.165  0.00  0.00    -0.044 C 
ENDBRANCH  15  16
ENDBRANCH  14  15
ENDBRANCH  12  14
ENDBRANCH  10  11
ENDBRANCH   7  10
ENDBRANCH   1   2
BRANCH   1  20
ATOM     20  C   UNL     1      89.078  51.481  40.503  0.00  0.00    +0.316 C 
ATOM     21  O   UNL     1      88.774  51.242  39.301  0.00  0.00    -0.250 OA
BRANCH  20  23
ATOM     22  C   UNL     1      90.512  53.424  39.970  0.00  0.00    +0.082 C 
ATOM     23  O   UNL     1      90.149  52.329  40.801  0.00  0.00    -0.467 OA
ENDBRANCH  20  23
ENDBRANCH   1  20
BRANCH   1  24
ATOM     24  C   UNL     1      87.792  51.929  42.641  0.00  0.00    +0.102 C 
BRANCH  24  25
ATOM     25  C   UNL     1      86.631  51.557  43.577  0.00  0.00    +0.018 C 
ATOM     26  C   UNL     1      85.478  51.009  43.144  0.00  0.00    -0.007 C 
ATOM     27  C   UNL     1      84.383  50.702  44.079  0.00  0.00    +0.180 C 
ATOM     28  O   UNL     1      83.314  50.191  43.651  0.00  0.00    -0.288 OA
ATOM     29  C   UNL     1      84.534  50.995  45.510  0.00  0.00    -0.008 C 
ATOM     30  C   UNL     1      85.667  51.537  45.978  0.00  0.00    +0.007 C 
ATOM     31  C   UNL     1      86.777  51.838  45.036  0.00  0.00    +0.187 C 
ATOM     32  O   UNL     1      87.851  52.333  45.476  0.00  0.00    -0.287 OA
BRANCH  30  33
ATOM     33  C   UNL     1      85.834  51.785  47.456  0.00  0.00    -0.005 C 
BRANCH  33  34
ATOM     34  C   UNL     1      85.621  53.248  47.758  0.00  0.00    -0.081 C 
ATOM     35  C   UNL     1      84.496  53.771  48.294  0.00  0.00    -0.076 C 
ATOM     36  C   UNL     1      83.289  52.920  48.615  0.00  0.00    -0.044 C 
BRANCH  35  37
ATOM     37  C   UNL     1      84.451  55.247  48.620  0.00  0.00    -0.029 C 
BRANCH  37  38
ATOM     38  C   UNL     1      83.992  56.052  47.397  0.00  0.00    -0.031 C 
BRANCH  38  39
ATOM     39  C   UNL     1      85.172  56.526  46.586  0.00  0.00    -0.085 C 
ATOM     40  C   UNL     1      85.519  56.025  45.379  0.00  0.00    -0.080 C 
ATOM     41  C   UNL     1      86.737  56.587  44.694  0.00  0.00    -0.044 C 
ATOM     42  C   UNL     1      84.712  54.946  44.693  0.00  0.00    -0.044 C 
ENDBRANCH  38  39
ENDBRANCH  37  38
ENDBRANCH  35  37
ENDBRANCH  33  34
ENDBRANCH  30  33
ENDBRANCH  24  25
BRANCH  24  43
ATOM     43  C   UNL     1      87.571  53.264  41.968  0.00  0.00    +0.316 C 
ATOM     44  O   UNL     1      88.089  54.300  42.466  0.00  0.00    -0.250 OA
BRANCH  43  45
ATOM     45  O   UNL     1      86.787  53.355  40.813  0.00  0.00    -0.467 OA
ATOM     46  C   UNL     1      85.399  53.658  40.850  0.00  0.00    +0.082 C 
ENDBRANCH  43  45
ENDBRANCH  24  43
ENDBRANCH   1  24
TORSDOF 17
ENDMDL
MODEL 3
REMARK VINA RESULT:    -9.700      2.026      6.880
REMARK INTER + INTRA:         -22.764
REMARK INTER:                 -18.766
REMARK INTRA:                  -3.998
REMARK UNBOUND:                -3.425
REMARK  Name = 
REMARK  25 active torsions:
REMARK  status: ('A' for Active; 'I' for Inactive)
REMARK    1  A    between atoms: C_1  and  O_2
REMARK    2  A    between atoms: O_2  and  C_3
REMARK    3  A    between atoms: C_3  and  C_5
REMARK    4  A    between atoms: C_5  and  C_6
REMARK    5  A    between atoms: C_5  and  C_24
REMARK    6  A    between atoms: C_11  and  C_14
REMARK    7  A    between atoms: C_14  and  C_15
REMARK    8  A    between atoms: C_16  and  C_17
REMARK    9  A    between atoms: C_16  and  C_23
REMARK   10  A    between atoms: C_17  and  C_18
REMARK   11  A    between atoms: C_18  and  C_19
REMARK   12  A    between atoms: C_20  and  C_21
REMARK   13  A    between atoms: C_20  and  C_22
REMARK   14  A    between atoms: C_24  and  C_25
REMARK   15  A    between atoms: C_24  and  C_43
REMARK   16  A    between atoms: C_30  and  C_33
REMARK   17  A    between atoms: C_33  and  C_34
REMARK   18  A    between atoms: C_35  and  C_36
REMARK   19  A    between atoms: C_35  and  C_42
REMARK   20  A    between atoms: C_36  and  C_37
REMARK   21  A    between atoms: C_37  and  C_38
REMARK   22  A    between atoms: C_39  and  C_40
REMARK   23  A    between atoms: C_39  and  C_41
REMARK   24  A    between atoms: C_43  and  O_45
REMARK   25  A    between atoms: O_45  and  C_46
REMARK                            x       y       z     vdW  Elec       q    Type
REMARK                         _______ _______ _______ _____ _____    ______ ____
ROOT
ATOM      1  C   UNL     1      85.188  54.189  44.722  0.00  0.00    +0.102 C 
ENDROOT
BRANCH   1   2
ATOM      2  C   UNL     1      84.739  53.663  43.350  0.00  0.00    +0.018 C 
ATOM      3  C   UNL     1      85.286  54.067  42.187  0.00  0.00    -0.007 C 
ATOM      4  C   UNL     1      84.745  53.614  40.897  0.00  0.00    +0.180 C 
ATOM      5  O   UNL     1      85.277  53.996  39.822  0.00  0.00    -0.288 OA
ATOM      6  C   UNL     1      83.565  52.738  40.861  0.00  0.00    -0.008 C 
ATOM      7  C   UNL     1      83.032  52.262  42.000  0.00  0.00    +0.007 C 
ATOM      8  C   UNL     1      83.606  52.693  43.302  0.00  0.00    +0.187 C 
ATOM      9  O   UNL     1      83.122  52.243  44.377  0.00  0.00    -0.287 OA
BRANCH   7  10
ATOM     10  C   UNL     1      81.786  51.400  41.971  0.00  0.00    -0.005 C 
BRANCH  10  11
ATOM     11  C   UNL     1      81.999  50.029  42.572  0.00  0.00    -0.081 C 
ATOM     12  C   UNL     1      81.066  49.359  43.294  0.00  0.00    -0.076 C 
ATOM     13  C   UNL     1      79.685  49.938  43.490  0.00  0.00    -0.044 C 
BRANCH  12  14
ATOM     14  C   UNL     1      81.335  48.006  43.945  0.00  0.00    -0.029 C 
BRANCH  14  15
ATOM     15  C   UNL     1      82.166  46.993  43.134  0.00  0.00    -0.031 C 
BRANCH  15  16
ATOM     16  C   UNL     1      82.929  46.036  44.024  0.00  0.00    -0.085 C 
ATOM     17  C   UNL     1      84.257  45.821  43.910  0.00  0.00    -0.080 C 
ATOM     18  C   UNL     1      85.079  46.499  42.843  0.00  0.00    -0.044 C 
ATOM     19  C   UNL     1      84.922  44.866  44.868  0.00  0.00    -0.044 C 
ENDBRANCH  15  16
ENDBRANCH  14  15
ENDBRANCH  12  14
ENDBRANCH  10  11
ENDBRANCH   7  10
ENDBRANCH   1   2
BRANCH   1  20
ATOM     20  C   UNL     1      85.764  55.585  44.635  0.00  0.00    +0.316 C 
ATOM     21  O   UNL     1      87.011  55.774  44.681  0.00  0.00    -0.250 OA
BRANCH  20  23
ATOM     22  C   UNL     1      85.352  58.015  44.427  0.00  0.00    +0.082 C 
ATOM     23  O   UNL     1      84.893  56.673  44.521  0.00  0.00    -0.467 OA
ENDBRANCH  20  23
ENDBRANCH   1  20
BRANCH   1  24
ATOM     24  C   UNL     1      86.081  53.273  45.625  0.00  0.00    +0.102 C 
BRANCH  24  25
ATOM     25  C   UNL     1      86.444  51.874  45.103  0.00  0.00    +0.018 C 
ATOM     26  C   UNL     1      85.878  50.742  45.568  0.00  0.00    -0.007 C 
ATOM     27  C   UNL     1      86.285  49.422  45.057  0.00  0.00    +0.180 C 
ATOM     28  O   UNL     1      85.742  48.378  45.506  0.00  0.00    -0.288 OA
ATOM     29  C   UNL     1      87.327  49.322  44.027  0.00  0.00    -0.008 C 
ATOM     30  C   UNL     1      87.911  50.425  43.540  0.00  0.00    +0.007 C 
ATOM     31  C   UNL     1      87.493  51.758  44.047  0.00  0.00    +0.187 C 
ATOM     32  O   UNL     1      88.029  52.800  43.578  0.00  0.00    -0.287 OA
BRANCH  30  33
ATOM     33  C   UNL     1      88.941  50.316  42.444  0.00  0.00    -0.005 C 
BRANCH  33  34
ATOM     34  C   UNL     1      89.153  48.866  42.082  0.00  0.00    -0.081 C 
ATOM     35  C   UNL     1      90.150  48.088  42.560  0.00  0.00    -0.076 C 
ATOM     36  C   UNL     1      91.205  48.621  43.501  0.00  0.00    -0.044 C 
BRANCH  35  37
ATOM     37  C   UNL     1      90.194  46.626  42.173  0.00  0.00    -0.029 C 
BRANCH  37  38
ATOM     38  C   UNL     1      88.813  45.983  42.350  0.00  0.00    -0.031 C 
BRANCH  38  39
ATOM     39  C   UNL     1      88.864  44.853  43.346  0.00  0.00    -0.085 C 
ATOM     40  C   UNL     1      88.050  43.773  43.317  0.00  0.00    -0.080 C 
ATOM     41  C   UNL     1      88.206  42.731  44.393  0.00  0.00    -0.044 C 
ATOM     42  C   UNL     1      87.016  43.573  42.232  0.00  0.00    -0.044 C 
ENDBRANCH  38  39
ENDBRANCH  37  38
ENDBRANCH  35  37
ENDBRANCH  33  34
ENDBRANCH  30  33
ENDBRANCH  24  25
BRANCH  24  43
ATOM     43  C   UNL     1      85.593  53.235  47.055  0.00  0.00    +0.316 C 
ATOM     44  O   UNL     1      86.434  53.234  47.994  0.00  0.00    -0.250 OA
BRANCH  43  45
ATOM     45  O   UNL     1      84.224  53.186  47.336  0.00  0.00    -0.467 OA
ATOM     46  C   UNL     1      83.567  54.169  48.125  0.00  0.00    +0.082 C 
ENDBRANCH  43  45
ENDBRANCH  24  43
ENDBRANCH   1  24
TORSDOF 17
ENDMDL
MODEL 4
REMARK VINA RESULT:    -9.570      1.731      4.121
REMARK INTER + INTRA:         -22.506
REMARK INTER:                 -18.127
REMARK INTRA:                  -4.379
REMARK UNBOUND:                -3.425
REMARK  Name = 
REMARK  25 active torsions:
REMARK  status: ('A' for Active; 'I' for Inactive)
REMARK    1  A    between atoms: C_1  and  O_2
REMARK    2  A    between atoms: O_2  and  C_3
REMARK    3  A    between atoms: C_3  and  C_5
REMARK    4  A    between atoms: C_5  and  C_6
REMARK    5  A    between atoms: C_5  and  C_24
REMARK    6  A    between atoms: C_11  and  C_14
REMARK    7  A    between atoms: C_14  and  C_15
REMARK    8  A    between atoms: C_16  and  C_17
REMARK    9  A    between atoms: C_16  and  C_23
REMARK   10  A    between atoms: C_17  and  C_18
REMARK   11  A    between atoms: C_18  and  C_19
REMARK   12  A    between atoms: C_20  and  C_21
REMARK   13  A    between atoms: C_20  and  C_22
REMARK   14  A    between atoms: C_24  and  C_25
REMARK   15  A    between atoms: C_24  and  C_43
REMARK   16  A    between atoms: C_30  and  C_33
REMARK   17  A    between atoms: C_33  and  C_34
REMARK   18  A    between atoms: C_35  and  C_36
REMARK   19  A    between atoms: C_35  and  C_42
REMARK   20  A    between atoms: C_36  and  C_37
REMARK   21  A    between atoms: C_37  and  C_38
REMARK   22  A    between atoms: C_39  and  C_40
REMARK   23  A    between atoms: C_39  and  C_41
REMARK   24  A    between atoms: C_43  and  O_45
REMARK   25  A    between atoms: O_45  and  C_46
REMARK                            x       y       z     vdW  Elec       q    Type
REMARK                         _______ _______ _______ _____ _____    ______ ____
ROOT
ATOM      1  C   UNL     1      87.857  52.593  41.822  0.00  0.00    +0.102 C 
ENDROOT
BRANCH   1   2
ATOM      2  C   UNL     1      86.484  53.239  42.069  0.00  0.00    +0.018 C 
ATOM      3  C   UNL     1      85.339  52.773  41.534  0.00  0.00    -0.007 C 
ATOM      4  C   UNL     1      84.071  53.494  41.714  0.00  0.00    +0.180 C 
ATOM      5  O   UNL     1      83.011  53.036  41.212  0.00  0.00    -0.288 OA
ATOM      6  C   UNL     1      84.044  54.763  42.454  0.00  0.00    -0.008 C 
ATOM      7  C   UNL     1      85.152  55.225  43.059  0.00  0.00    +0.007 C 
ATOM      8  C   UNL     1      86.427  54.474  42.906  0.00  0.00    +0.187 C 
ATOM      9  O   UNL     1      87.470  54.892  43.477  0.00  0.00    -0.287 OA
BRANCH   7  10
ATOM     10  C   UNL     1      85.143  56.558  43.780  0.00  0.00    -0.005 C 
BRANCH  10  11
ATOM     11  C   UNL     1      84.255  56.565  45.003  0.00  0.00    -0.081 C 
ATOM     12  C   UNL     1      84.708  56.454  46.277  0.00  0.00    -0.076 C 
ATOM     13  C   UNL     1      86.190  56.381  46.561  0.00  0.00    -0.044 C 
BRANCH  12  14
ATOM     14  C   UNL     1      83.780  56.395  47.487  0.00  0.00    -0.029 C 
BRANCH  14  15
ATOM     15  C   UNL     1      83.136  55.032  47.806  0.00  0.00    -0.031 C 
BRANCH  15  16
ATOM     16  C   UNL     1      84.065  54.132  48.591  0.00  0.00    -0.085 C 
ATOM     17  C   UNL     1      84.789  53.143  48.024  0.00  0.00    -0.080 C 
ATOM     18  C   UNL     1      84.688  52.834  46.551  0.00  0.00    -0.044 C 
ATOM     19  C   UNL     1      85.705  52.322  48.895  0.00  0.00    -0.044 C 
ENDBRANCH  15  16
ENDBRANCH  14  15
ENDBRANCH  12  14
ENDBRANCH  10  11
ENDBRANCH   7  10
ENDBRANCH   1   2
BRANCH   1  20
ATOM     20  C   UNL     1      88.550  53.177  40.611  0.00  0.00    +0.316 C 
ATOM     21  O   UNL     1      88.032  53.088  39.464  0.00  0.00    -0.250 OA
BRANCH  20  23
ATOM     22  C   UNL     1      90.784  53.809  39.760  0.00  0.00    +0.082 C 
ATOM     23  O   UNL     1      89.789  53.803  40.775  0.00  0.00    -0.467 OA
ENDBRANCH  20  23
ENDBRANCH   1  20
BRANCH   1  24
ATOM     24  C   UNL     1      87.965  51.031  41.827  0.00  0.00    +0.102 C 
BRANCH  24  25
ATOM     25  C   UNL     1      87.482  50.274  43.074  0.00  0.00    +0.018 C 
ATOM     26  C   UNL     1      87.575  50.772  44.324  0.00  0.00    -0.007 C 
ATOM     27  C   UNL     1      87.127  49.992  45.490  0.00  0.00    +0.180 C 
ATOM     28  O   UNL     1      87.224  50.478  46.647  0.00  0.00    -0.288 OA
ATOM     29  C   UNL     1      86.568  48.646  45.303  0.00  0.00    -0.008 C 
ATOM     30  C   UNL     1      86.458  48.119  44.076  0.00  0.00    +0.007 C 
ATOM     31  C   UNL     1      86.901  48.910  42.898  0.00  0.00    +0.187 C 
ATOM     32  O   UNL     1      86.783  48.423  41.739  0.00  0.00    -0.287 OA
BRANCH  30  33
ATOM     33  C   UNL     1      85.835  46.759  43.889  0.00  0.00    -0.005 C 
BRANCH  33  34
ATOM     34  C   UNL     1      84.337  46.894  43.761  0.00  0.00    -0.081 C 
ATOM     35  C   UNL     1      83.463  45.863  43.785  0.00  0.00    -0.076 C 
ATOM     36  C   UNL     1      83.918  44.427  43.907  0.00  0.00    -0.044 C 
BRANCH  35  37
ATOM     37  C   UNL     1      81.980  46.152  43.727  0.00  0.00    -0.029 C 
BRANCH  37  38
ATOM     38  C   UNL     1      81.647  47.411  44.538  0.00  0.00    -0.031 C 
BRANCH  38  39
ATOM     39  C   UNL     1      81.161  48.521  43.642  0.00  0.00    -0.085 C 
ATOM     40  C   UNL     1      81.736  49.742  43.559  0.00  0.00    -0.080 C 
ATOM     41  C   UNL     1      81.126  50.760  42.631  0.00  0.00    -0.044 C 
ATOM     42  C   UNL     1      82.976  50.103  44.346  0.00  0.00    -0.044 C 
ENDBRANCH  38  39
ENDBRANCH  37  38
ENDBRANCH  35  37
ENDBRANCH  33  34
ENDBRANCH  30  33
ENDBRANCH  24  25
BRANCH  24  43
ATOM     43  C   UNL     1      89.324  50.554  41.368  0.00  0.00    +0.316 C 
ATOM     44  O   UNL     1      89.537  50.388  40.136  0.00  0.00    -0.250 OA
BRANCH  43  45
ATOM     45  O   UNL     1      90.333  50.285  42.298  0.00  0.00    -0.467 OA
ATOM     46  C   UNL     1      90.848  48.977  42.514  0.00  0.00    +0.082 C 
ENDBRANCH  43  45
ENDBRANCH  24  43
ENDBRANCH   1  24
TORSDOF 17
ENDMDL
MODEL 5
REMARK VINA RESULT:    -9.500      2.019      7.651
REMARK INTER + INTRA:         -22.367
REMARK INTER:                 -18.519
REMARK INTRA:                  -3.849
REMARK UNBOUND:                -3.425
REMARK  Name = 
REMARK  25 active torsions:
REMARK  status: ('A' for Active; 'I' for Inactive)
REMARK    1  A    between atoms: C_1  and  O_2
REMARK    2  A    between atoms: O_2  and  C_3
REMARK    3  A    between atoms: C_3  and  C_5
REMARK    4  A    between atoms: C_5  and  C_6
REMARK    5  A    between atoms: C_5  and  C_24
REMARK    6  A    between atoms: C_11  and  C_14
REMARK    7  A    between atoms: C_14  and  C_15
REMARK    8  A    between atoms: C_16  and  C_17
REMARK    9  A    between atoms: C_16  and  C_23
REMARK   10  A    between atoms: C_17  and  C_18
REMARK   11  A    between atoms: C_18  and  C_19
REMARK   12  A    between atoms: C_20  and  C_21
REMARK   13  A    between atoms: C_20  and  C_22
REMARK   14  A    between atoms: C_24  and  C_25
REMARK   15  A    between atoms: C_24  and  C_43
REMARK   16  A    between atoms: C_30  and  C_33
REMARK   17  A    between atoms: C_33  and  C_34
REMARK   18  A    between atoms: C_35  and  C_36
REMARK   19  A    between atoms: C_35  and  C_42
REMARK   20  A    between atoms: C_36  and  C_37
REMARK   21  A    between atoms: C_37  and  C_38
REMARK   22  A    between atoms: C_39  and  C_40
REMARK   23  A    between atoms: C_39  and  C_41
REMARK   24  A    between atoms: C_43  and  O_45
REMARK   25  A    between atoms: O_45  and  C_46
REMARK                            x       y       z     vdW  Elec       q    Type
REMARK                         _______ _______ _______ _____ _____    ______ ____
ROOT
ATOM      1  C   UNL     1      86.100  53.614  45.387  0.00  0.00    +0.102 C 
ENDROOT
BRANCH   1   2
ATOM      2  C   UNL     1      86.338  52.172  44.911  0.00  0.00    +0.018 C 
ATOM      3  C   UNL     1      85.680  51.109  45.412  0.00  0.00    -0.007 C 
ATOM      4  C   UNL     1      86.024  49.741  44.999  0.00  0.00    +0.180 C 
ATOM      5  O   UNL     1      85.391  48.762  45.473  0.00  0.00    -0.288 OA
ATOM      6  C   UNL     1      87.127  49.514  44.054  0.00  0.00    -0.008 C 
ATOM      7  C   UNL     1      87.762  50.551  43.482  0.00  0.00    +0.007 C 
ATOM      8  C   UNL     1      87.385  51.935  43.875  0.00  0.00    +0.187 C 
ATOM      9  O   UNL     1      87.967  52.917  43.337  0.00  0.00    -0.287 OA
BRANCH   7  10
ATOM     10  C   UNL     1      88.933  50.323  42.547  0.00  0.00    -0.005 C 
BRANCH  10  11
ATOM     11  C   UNL     1      89.076  48.881  42.116  0.00  0.00    -0.081 C 
ATOM     12  C   UNL     1      90.042  48.042  42.569  0.00  0.00    -0.076 C 
ATOM     13  C   UNL     1      91.027  48.499  43.618  0.00  0.00    -0.044 C 
BRANCH  12  14
ATOM     14  C   UNL     1      90.201  46.611  42.063  0.00  0.00    -0.029 C 
BRANCH  14  15
ATOM     15  C   UNL     1      88.950  45.712  42.106  0.00  0.00    -0.031 C 
BRANCH  15  16
ATOM     16  C   UNL     1      88.956  44.782  43.299  0.00  0.00    -0.085 C 
ATOM     17  C   UNL     1      88.157  43.697  43.393  0.00  0.00    -0.080 C 
ATOM     18  C   UNL     1      87.157  43.356  42.317  0.00  0.00    -0.044 C 
ATOM     19  C   UNL     1      88.264  42.821  44.616  0.00  0.00    -0.044 C 
ENDBRANCH  15  16
ENDBRANCH  14  15
ENDBRANCH  12  14
ENDBRANCH  10  11
ENDBRANCH   7  10
ENDBRANCH   1   2
BRANCH   1  20
ATOM     20  C   UNL     1      85.653  53.670  46.831  0.00  0.00    +0.316 C 
ATOM     21  O   UNL     1      86.411  53.270  47.758  0.00  0.00    -0.250 OA
BRANCH  20  23
ATOM     22  C   UNL     1      84.163  55.330  47.898  0.00  0.00    +0.082 C 
ATOM     23  O   UNL     1      84.376  54.154  47.128  0.00  0.00    -0.467 OA
ENDBRANCH  20  23
ENDBRANCH   1  20
BRANCH   1  24
ATOM     24  C   UNL     1      85.231  54.567  44.498  0.00  0.00    +0.102 C 
BRANCH  24  25
ATOM     25  C   UNL     1      84.723  54.037  43.148  0.00  0.00    +0.018 C 
ATOM     26  C   UNL     1      85.243  54.413  41.963  0.00  0.00    -0.007 C 
ATOM     27  C   UNL     1      84.697  53.901  40.694  0.00  0.00    +0.180 C 
ATOM     28  O   UNL     1      85.199  54.266  39.599  0.00  0.00    -0.288 OA
ATOM     29  C   UNL     1      83.565  52.964  40.707  0.00  0.00    -0.008 C 
ATOM     30  C   UNL     1      83.024  52.567  41.865  0.00  0.00    +0.007 C 
ATOM     31  C   UNL     1      83.581  53.076  43.146  0.00  0.00    +0.187 C 
ATOM     32  O   UNL     1      83.083  52.689  44.240  0.00  0.00    -0.287 OA
BRANCH  30  33
ATOM     33  C   UNL     1      81.897  51.564  41.870  0.00  0.00    -0.005 C 
BRANCH  33  34
ATOM     34  C   UNL     1      82.251  50.399  42.762  0.00  0.00    -0.081 C 
ATOM     35  C   UNL     1      81.355  49.608  43.393  0.00  0.00    -0.076 C 
ATOM     36  C   UNL     1      79.866  49.847  43.298  0.00  0.00    -0.044 C 
BRANCH  35  37
ATOM     37  C   UNL     1      81.850  48.423  44.192  0.00  0.00    -0.029 C 
BRANCH  37  38
ATOM     38  C   UNL     1      82.391  47.335  43.257  0.00  0.00    -0.031 C 
BRANCH  38  39
ATOM     39  C   UNL     1      83.039  46.220  44.038  0.00  0.00    -0.085 C 
ATOM     40  C   UNL     1      84.316  45.810  43.865  0.00  0.00    -0.080 C 
ATOM     41  C   UNL     1      84.821  44.669  44.708  0.00  0.00    -0.044 C 
ATOM     42  C   UNL     1      85.249  46.475  42.878  0.00  0.00    -0.044 C 
ENDBRANCH  38  39
ENDBRANCH  37  38
ENDBRANCH  35  37
ENDBRANCH  33  34
ENDBRANCH  30  33
ENDBRANCH  24  25
BRANCH  24  43
ATOM     43  C   UNL     1      85.847  55.942  44.370  0.00  0.00    +0.316 C 
ATOM     44  O   UNL     1      87.100  56.053  44.293  0.00  0.00    -0.250 OA
BRANCH  43  45
ATOM     45  O   UNL     1      85.037  57.083  44.354  0.00  0.00    -0.467 OA
ATOM     46  C   UNL     1      85.212  58.160  45.265  0.00  0.00    +0.082 C 
ENDBRANCH  43  45
ENDBRANCH  24  43
ENDBRANCH   1  24
TORSDOF 17
ENDMDL
MODEL 6
REMARK VINA RESULT:    -9.353      1.557      8.570
REMARK INTER + INTRA:         -22.073
REMARK INTER:                 -19.649
REMARK INTRA:                  -2.424
REMARK UNBOUND:                -3.425
REMARK  Name = 
REMARK  25 active torsions:
REMARK  status: ('A' for Active; 'I' for Inactive)
REMARK    1  A    between atoms: C_1  and  O_2
REMARK    2  A    between atoms: O_2  and  C_3
REMARK    3  A    between atoms: C_3  and  C_5
REMARK    4  A    between atoms: C_5  and  C_6
REMARK    5  A    between atoms: C_5  and  C_24
REMARK    6  A    between atoms: C_11  and  C_14
REMARK    7  A    between atoms: C_14  and  C_15
REMARK    8  A    between atoms: C_16  and  C_17
REMARK    9  A    between atoms: C_16  and  C_23
REMARK   10  A    between atoms: C_17  and  C_18
REMARK   11  A    between atoms: C_18  and  C_19
REMARK   12  A    between atoms: C_20  and  C_21
REMARK   13  A    between atoms: C_20  and  C_22
REMARK   14  A    between atoms: C_24  and  C_25
REMARK   15  A    between atoms: C_24  and  C_43
REMARK   16  A    between atoms: C_30  and  C_33
REMARK   17  A    between atoms: C_33  and  C_34
REMARK   18  A    between atoms: C_35  and  C_36
REMARK   19  A    between atoms: C_35  and  C_42
REMARK   20  A    between atoms: C_36  and  C_37
REMARK   21  A    between atoms: C_37  and  C_38
REMARK   22  A    between atoms: C_39  and  C_40
REMARK   23  A    between atoms: C_39  and  C_41
REMARK   24  A    between atoms: C_43  and  O_45
REMARK   25  A    between atoms: O_45  and  C_46
REMARK                            x       y       z     vdW  Elec       q    Type
REMARK                         _______ _______ _______ _____ _____    ______ ____
ROOT
ATOM      1  C   UNL     1      86.778  50.755  44.106  0.00  0.00    +0.102 C 
ENDROOT
BRANCH   1   2
ATOM      2  C   UNL     1      85.578  49.800  44.009  0.00  0.00    +0.018 C 
ATOM      3  C   UNL     1      84.321  50.155  44.339  0.00  0.00    -0.007 C 
ATOM      4  C   UNL     1      83.229  49.171  44.333  0.00  0.00    +0.180 C 
ATOM      5  O   UNL     1      82.060  49.526  44.637  0.00  0.00    -0.288 OA
ATOM      6  C   UNL     1      83.506  47.767  44.002  0.00  0.00    -0.008 C 
ATOM      7  C   UNL     1      84.733  47.388  43.603  0.00  0.00    +0.007 C 
ATOM      8  C   UNL     1      85.827  48.395  43.575  0.00  0.00    +0.187 C 
ATOM      9  O   UNL     1      86.980  48.053  43.192  0.00  0.00    -0.287 OA
BRANCH   7  10
ATOM     10  C   UNL     1      85.037  45.932  43.309  0.00  0.00    -0.005 C 
BRANCH  10  11
ATOM     11  C   UNL     1      86.455  45.708  42.832  0.00  0.00    -0.081 C 
ATOM     12  C   UNL     1      87.279  44.745  43.315  0.00  0.00    -0.076 C 
ATOM     13  C   UNL     1      86.787  43.762  44.351  0.00  0.00    -0.044 C 
BRANCH  12  14
ATOM     14  C   UNL     1      88.727  44.588  42.862  0.00  0.00    -0.029 C 
BRANCH  14  15
ATOM     15  C   UNL     1      89.366  45.788  42.138  0.00  0.00    -0.031 C 
BRANCH  15  16
ATOM     16  C   UNL     1      90.251  46.604  43.055  0.00  0.00    -0.085 C 
ATOM     17  C   UNL     1      90.572  47.894  42.817  0.00  0.00    -0.080 C 
ATOM     18  C   UNL     1      90.097  48.610  41.577  0.00  0.00    -0.044 C 
ATOM     19  C   UNL     1      91.439  48.622  43.812  0.00  0.00    -0.044 C 
ENDBRANCH  15  16
ENDBRANCH  14  15
ENDBRANCH  12  14
ENDBRANCH  10  11
ENDBRANCH   7  10
ENDBRANCH   1   2
BRANCH   1  20
ATOM     20  C   UNL     1      86.989  51.262  45.515  0.00  0.00    +0.316 C 
ATOM     21  O   UNL     1      87.418  52.431  45.724  0.00  0.00    -0.250 OA
BRANCH  20  23
ATOM     22  C   UNL     1      87.677  50.136  47.606  0.00  0.00    +0.082 C 
ATOM     23  O   UNL     1      86.721  50.410  46.590  0.00  0.00    -0.467 OA
ENDBRANCH  20  23
ENDBRANCH   1  20
BRANCH   1  24
ATOM     24  C   UNL     1      86.897  51.923  43.069  0.00  0.00    +0.102 C 
BRANCH  24  25
ATOM     25  C   UNL     1      85.619  52.687  42.688  0.00  0.00    +0.018 C 
ATOM     26  C   UNL     1      84.527  52.090  42.170  0.00  0.00    -0.007 C 
ATOM     27  C   UNL     1      83.339  52.873  41.790  0.00  0.00    +0.180 C 
ATOM     28  O   UNL     1      82.330  52.293  41.308  0.00  0.00    -0.288 OA
ATOM     29  C   UNL     1      83.330  54.330  41.972  0.00  0.00    -0.008 C 
ATOM     30  C   UNL     1      84.396  54.958  42.486  0.00  0.00    +0.007 C 
ATOM     31  C   UNL     1      85.592  54.167  42.879  0.00  0.00    +0.187 C 
ATOM     32  O   UNL     1      86.591  54.754  43.379  0.00  0.00    -0.287 OA
BRANCH  30  33
ATOM     33  C   UNL     1      84.358  56.448  42.719  0.00  0.00    -0.005 C 
BRANCH  33  34
ATOM     34  C   UNL     1      84.167  56.733  44.189  0.00  0.00    -0.081 C 
ATOM     35  C   UNL     1      84.930  57.576  44.918  0.00  0.00    -0.076 C 
ATOM     36  C   UNL     1      86.111  58.309  44.324  0.00  0.00    -0.044 C 
BRANCH  35  37
ATOM     37  C   UNL     1      84.574  57.829  46.366  0.00  0.00    -0.029 C 
BRANCH  37  38
ATOM     38  C   UNL     1      83.749  56.663  46.926  0.00  0.00    -0.031 C 
BRANCH  38  39
ATOM     39  C   UNL     1      84.593  55.773  47.803  0.00  0.00    -0.085 C 
ATOM     40  C   UNL     1      84.842  54.468  47.551  0.00  0.00    -0.080 C 
ATOM     41  C   UNL     1      85.690  53.699  48.530  0.00  0.00    -0.044 C 
ATOM     42  C   UNL     1      84.320  53.773  46.314  0.00  0.00    -0.044 C 
ENDBRANCH  38  39
ENDBRANCH  37  38
ENDBRANCH  35  37
ENDBRANCH  33  34
ENDBRANCH  30  33
ENDBRANCH  24  25
BRANCH  24  43
ATOM     43  C   UNL     1      87.701  51.524  41.854  0.00  0.00    +0.316 C 
ATOM     44  O   UNL     1      87.272  50.606  41.103  0.00  0.00    -0.250 OA
BRANCH  43  45
ATOM     45  O   UNL     1      88.918  52.154  41.570  0.00  0.00    -0.467 OA
ATOM     46  C   UNL     1      89.492  52.162  40.270  0.00  0.00    +0.082 C 
ENDBRANCH  43  45
ENDBRANCH  24  43
ENDBRANCH   1  24
TORSDOF 17
ENDMDL
MODEL 7
REMARK VINA RESULT:    -9.253      1.475      4.507
REMARK INTER + INTRA:         -21.874
REMARK INTER:                 -17.544
REMARK INTRA:                  -4.329
REMARK UNBOUND:                -3.425
REMARK  Name = 
REMARK  25 active torsions:
REMARK  status: ('A' for Active; 'I' for Inactive)
REMARK    1  A    between atoms: C_1  and  O_2
REMARK    2  A    between atoms: O_2  and  C_3
REMARK    3  A    between atoms: C_3  and  C_5
REMARK    4  A    between atoms: C_5  and  C_6
REMARK    5  A    between atoms: C_5  and  C_24
REMARK    6  A    between atoms: C_11  and  C_14
REMARK    7  A    between atoms: C_14  and  C_15
REMARK    8  A    between atoms: C_16  and  C_17
REMARK    9  A    between atoms: C_16  and  C_23
REMARK   10  A    between atoms: C_17  and  C_18
REMARK   11  A    between atoms: C_18  and  C_19
REMARK   12  A    between atoms: C_20  and  C_21
REMARK   13  A    between atoms: C_20  and  C_22
REMARK   14  A    between atoms: C_24  and  C_25
REMARK   15  A    between atoms: C_24  and  C_43
REMARK   16  A    between atoms: C_30  and  C_33
REMARK   17  A    between atoms: C_33  and  C_34
REMARK   18  A    between atoms: C_35  and  C_36
REMARK   19  A    between atoms: C_35  and  C_42
REMARK   20  A    between atoms: C_36  and  C_37
REMARK   21  A    between atoms: C_37  and  C_38
REMARK   22  A    between atoms: C_39  and  C_40
REMARK   23  A    between atoms: C_39  and  C_41
REMARK   24  A    between atoms: C_43  and  O_45
REMARK   25  A    between atoms: O_45  and  C_46
REMARK                            x       y       z     vdW  Elec       q    Type
REMARK                         _______ _______ _______ _____ _____    ______ ____
ROOT
ATOM      1  C   UNL     1      88.173  52.398  41.841  0.00  0.00    +0.102 C 
ENDROOT
BRANCH   1   2
ATOM      2  C   UNL     1      86.831  53.111  42.067  0.00  0.00    +0.018 C 
ATOM      3  C   UNL     1      85.700  52.786  41.411  0.00  0.00    -0.007 C 
ATOM      4  C   UNL     1      84.470  53.573  41.586  0.00  0.00    +0.180 C 
ATOM      5  O   UNL     1      83.422  53.247  40.970  0.00  0.00    -0.288 OA
ATOM      6  C   UNL     1      84.472  54.756  42.457  0.00  0.00    -0.008 C 
ATOM      7  C   UNL     1      85.561  55.073  43.178  0.00  0.00    +0.007 C 
ATOM      8  C   UNL     1      86.792  54.253  43.027  0.00  0.00    +0.187 C 
ATOM      9  O   UNL     1      87.817  54.534  43.708  0.00  0.00    -0.287 OA
BRANCH   7  10
ATOM     10  C   UNL     1      85.585  56.321  44.039  0.00  0.00    -0.005 C 
BRANCH  10  11
ATOM     11  C   UNL     1      84.620  56.258  45.201  0.00  0.00    -0.081 C 
ATOM     12  C   UNL     1      84.995  56.124  46.498  0.00  0.00    -0.076 C 
ATOM     13  C   UNL     1      86.457  56.094  46.876  0.00  0.00    -0.044 C 
BRANCH  12  14
ATOM     14  C   UNL     1      83.994  55.996  47.642  0.00  0.00    -0.029 C 
BRANCH  14  15
ATOM     15  C   UNL     1      83.406  54.595  47.902  0.00  0.00    -0.031 C 
BRANCH  15  16
ATOM     16  C   UNL     1      84.372  53.700  48.647  0.00  0.00    -0.085 C 
ATOM     17  C   UNL     1      85.140  52.772  48.037  0.00  0.00    -0.080 C 
ATOM     18  C   UNL     1      85.057  52.531  46.550  0.00  0.00    -0.044 C 
ATOM     19  C   UNL     1      86.090  51.952  48.872  0.00  0.00    -0.044 C 
ENDBRANCH  15  16
ENDBRANCH  14  15
ENDBRANCH  12  14
ENDBRANCH  10  11
ENDBRANCH   7  10
ENDBRANCH   1   2
BRANCH   1  20
ATOM     20  C   UNL     1      88.782  52.745  40.500  0.00  0.00    +0.316 C 
ATOM     21  O   UNL     1      88.450  52.116  39.457  0.00  0.00    -0.250 OA
BRANCH  20  23
ATOM     22  C   UNL     1      90.745  53.801  39.430  0.00  0.00    +0.082 C 
ATOM     23  O   UNL     1      89.738  53.763  40.432  0.00  0.00    -0.467 OA
ENDBRANCH  20  23
ENDBRANCH   1  20
BRANCH   1  24
ATOM     24  C   UNL     1      88.264  50.858  42.112  0.00  0.00    +0.102 C 
BRANCH  24  25
ATOM     25  C   UNL     1      87.616  50.308  43.392  0.00  0.00    +0.018 C 
ATOM     26  C   UNL     1      88.147  50.474  44.620  0.00  0.00    -0.007 C 
ATOM     27  C   UNL     1      87.503  49.898  45.813  0.00  0.00    +0.180 C 
ATOM     28  O   UNL     1      88.018  50.066  46.950  0.00  0.00    -0.288 OA
ATOM     29  C   UNL     1      86.261  49.125  45.677  0.00  0.00    -0.008 C 
ATOM     30  C   UNL     1      85.703  48.941  44.473  0.00  0.00    +0.007 C 
ATOM     31  C   UNL     1      86.347  49.531  43.270  0.00  0.00    +0.187 C 
ATOM     32  O   UNL     1      85.814  49.373  42.136  0.00  0.00    -0.287 OA
BRANCH  30  33
ATOM     33  C   UNL     1      84.400  48.192  44.349  0.00  0.00    -0.005 C 
BRANCH  33  34
ATOM     34  C   UNL     1      84.672  46.734  44.067  0.00  0.00    -0.081 C 
ATOM     35  C   UNL     1      83.724  45.775  43.975  0.00  0.00    -0.076 C 
ATOM     36  C   UNL     1      82.257  46.071  44.190  0.00  0.00    -0.044 C 
BRANCH  35  37
ATOM     37  C   UNL     1      84.133  44.366  43.607  0.00  0.00    -0.029 C 
BRANCH  37  38
ATOM     38  C   UNL     1      85.530  44.362  42.974  0.00  0.00    -0.031 C 
BRANCH  38  39
ATOM     39  C   UNL     1      86.512  43.605  43.832  0.00  0.00    -0.085 C 
ATOM     40  C   UNL     1      87.855  43.748  43.762  0.00  0.00    -0.080 C 
ATOM     41  C   UNL     1      88.713  42.908  44.671  0.00  0.00    -0.044 C 
ATOM     42  C   UNL     1      88.512  44.736  42.825  0.00  0.00    -0.044 C 
ENDBRANCH  38  39
ENDBRANCH  37  38
ENDBRANCH  35  37
ENDBRANCH  33  34
ENDBRANCH  30  33
ENDBRANCH  24  25
BRANCH  24  43
ATOM     43  C   UNL     1      89.665  50.328  41.914  0.00  0.00    +0.316 C 
ATOM     44  O   UNL     1      90.648  51.025  42.287  0.00  0.00    -0.250 OA
BRANCH  43  45
ATOM     45  O   UNL     1      89.874  49.083  41.310  0.00  0.00    -0.467 OA
ATOM     46  C   UNL     1      90.205  47.917  42.052  0.00  0.00    +0.082 C 
ENDBRANCH  43  45
ENDBRANCH  24  43
ENDBRANCH   1  24
TORSDOF 17
ENDMDL
MODEL 8
REMARK VINA RESULT:    -9.057      1.720      5.409
REMARK INTER + INTRA:         -21.483
REMARK INTER:                 -19.366
REMARK INTRA:                  -2.116
REMARK UNBOUND:                -3.425
REMARK  Name = 
REMARK  25 active torsions:
REMARK  status: ('A' for Active; 'I' for Inactive)
REMARK    1  A    between atoms: C_1  and  O_2
REMARK    2  A    between atoms: O_2  and  C_3
REMARK    3  A    between atoms: C_3  and  C_5
REMARK    4  A    between atoms: C_5  and  C_6
REMARK    5  A    between atoms: C_5  and  C_24
REMARK    6  A    between atoms: C_11  and  C_14
REMARK    7  A    between atoms: C_14  and  C_15
REMARK    8  A    between atoms: C_16  and  C_17
REMARK    9  A    between atoms: C_16  and  C_23
REMARK   10  A    between atoms: C_17  and  C_18
REMARK   11  A    between atoms: C_18  and  C_19
REMARK   12  A    between atoms: C_20  and  C_21
REMARK   13  A    between atoms: C_20  and  C_22
REMARK   14  A    between atoms: C_24  and  C_25
REMARK   15  A    between atoms: C_24  and  C_43
REMARK   16  A    between atoms: C_30  and  C_33
REMARK   17  A    between atoms: C_33  and  C_34
REMARK   18  A    between atoms: C_35  and  C_36
REMARK   19  A    between atoms: C_35  and  C_42
REMARK   20  A    between atoms: C_36  and  C_37
REMARK   21  A    between atoms: C_37  and  C_38
REMARK   22  A    between atoms: C_39  and  C_40
REMARK   23  A    between atoms: C_39  and  C_41
REMARK   24  A    between atoms: C_43  and  O_45
REMARK   25  A    between atoms: O_45  and  C_46
REMARK                            x       y       z     vdW  Elec       q    Type
REMARK                         _______ _______ _______ _____ _____    ______ ____
ROOT
ATOM      1  C   UNL     1      87.533  52.496  43.339  0.00  0.00    +0.102 C 
ENDROOT
BRANCH   1   2
ATOM      2  C   UNL     1      86.368  53.306  42.749  0.00  0.00    +0.018 C 
ATOM      3  C   UNL     1      85.704  52.943  41.634  0.00  0.00    -0.007 C 
ATOM      4  C   UNL     1      84.671  53.812  41.051  0.00  0.00    +0.180 C 
ATOM      5  O   UNL     1      84.057  53.450  40.014  0.00  0.00    -0.288 OA
ATOM      6  C   UNL     1      84.375  55.115  41.663  0.00  0.00    -0.008 C 
ATOM      7  C   UNL     1      84.968  55.482  42.812  0.00  0.00    +0.007 C 
ATOM      8  C   UNL     1      85.987  54.583  43.419  0.00  0.00    +0.187 C 
ATOM      9  O   UNL     1      86.542  54.912  44.503  0.00  0.00    -0.287 OA
BRANCH   7  10
ATOM     10  C   UNL     1      84.705  56.845  43.420  0.00  0.00    -0.005 C 
BRANCH  10  11
ATOM     11  C   UNL     1      84.006  56.773  44.758  0.00  0.00    -0.081 C 
ATOM     12  C   UNL     1      84.409  57.441  45.868  0.00  0.00    -0.076 C 
ATOM     13  C   UNL     1      85.588  58.384  45.810  0.00  0.00    -0.044 C 
BRANCH  12  14
ATOM     14  C   UNL     1      83.722  57.293  47.221  0.00  0.00    -0.029 C 
BRANCH  14  15
ATOM     15  C   UNL     1      83.083  55.927  47.535  0.00  0.00    -0.031 C 
BRANCH  15  16
ATOM     16  C   UNL     1      83.963  55.075  48.423  0.00  0.00    -0.085 C 
ATOM     17  C   UNL     1      84.549  53.933  48.005  0.00  0.00    -0.080 C 
ATOM     18  C   UNL     1      84.329  53.395  46.613  0.00  0.00    -0.044 C 
ATOM     19  C   UNL     1      85.430  53.175  48.966  0.00  0.00    -0.044 C 
ENDBRANCH  15  16
ENDBRANCH  14  15
ENDBRANCH  12  14
ENDBRANCH  10  11
ENDBRANCH   7  10
ENDBRANCH   1   2
BRANCH   1  20
ATOM     20  C   UNL     1      88.587  52.176  42.302  0.00  0.00    +0.316 C 
ATOM     21  O   UNL     1      88.880  50.980  42.025  0.00  0.00    -0.250 OA
BRANCH  20  23
ATOM     22  C   UNL     1      90.065  53.033  40.514  0.00  0.00    +0.082 C 
ATOM     23  O   UNL     1      89.250  53.228  41.663  0.00  0.00    -0.467 OA
ENDBRANCH  20  23
ENDBRANCH   1  20
BRANCH   1  24
ATOM     24  C   UNL     1      87.209  51.235  44.210  0.00  0.00    +0.102 C 
BRANCH  24  25
ATOM     25  C   UNL     1      85.845  50.553  44.020  0.00  0.00    +0.018 C 
ATOM     26  C   UNL     1      84.691  51.234  43.871  0.00  0.00    -0.007 C 
ATOM     27  C   UNL     1      83.405  50.532  43.725  0.00  0.00    +0.180 C 
ATOM     28  O   UNL     1      82.341  51.190  43.588  0.00  0.00    -0.288 OA
ATOM     29  C   UNL     1      83.364  49.064  43.740  0.00  0.00    -0.008 C 
ATOM     30  C   UNL     1      84.490  48.353  43.883  0.00  0.00    +0.007 C 
ATOM     31  C   UNL     1      85.790  49.061  44.021  0.00  0.00    +0.187 C 
ATOM     32  O   UNL     1      86.855  48.393  44.139  0.00  0.00    -0.287 OA
BRANCH  30  33
ATOM     33  C   UNL     1      84.445  46.846  43.845  0.00  0.00    -0.005 C 
BRANCH  33  34
ATOM     34  C   UNL     1      85.604  46.318  43.034  0.00  0.00    -0.081 C 
ATOM     35  C   UNL     1      86.225  45.138  43.252  0.00  0.00    -0.076 C 
ATOM     36  C   UNL     1      85.834  44.221  44.388  0.00  0.00    -0.044 C 
BRANCH  35  37
ATOM     37  C   UNL     1      87.323  44.697  42.309  0.00  0.00    -0.029 C 
BRANCH  37  38
ATOM     38  C   UNL     1      88.685  45.203  42.799  0.00  0.00    -0.031 C 
BRANCH  38  39
ATOM     39  C   UNL     1      89.177  46.346  41.948  0.00  0.00    -0.085 C 
ATOM     40  C   UNL     1      90.176  47.186  42.303  0.00  0.00    -0.080 C 
ATOM     41  C   UNL     1      90.547  48.297  41.356  0.00  0.00    -0.044 C 
ATOM     42  C   UNL     1      90.940  47.028  43.598  0.00  0.00    -0.044 C 
ENDBRANCH  38  39
ENDBRANCH  37  38
ENDBRANCH  35  37
ENDBRANCH  33  34
ENDBRANCH  30  33
ENDBRANCH  24  25
BRANCH  24  43
ATOM     43  C   UNL     1      87.532  51.455  45.670  0.00  0.00    +0.316 C 
ATOM     44  O   UNL     1      87.510  52.626  46.138  0.00  0.00    -0.250 OA
BRANCH  43  45
ATOM     45  O   UNL     1      87.868  50.375  46.493  0.00  0.00    -0.467 OA
ATOM     46  C   UNL     1      87.400  50.256  47.830  0.00  0.00    +0.082 C 
ENDBRANCH  43  45
ENDBRANCH  24  43
ENDBRANCH   1  24
TORSDOF 17
ENDMDL
MODEL 9
REMARK VINA RESULT:    -8.999      1.900      7.901
REMARK INTER + INTRA:         -21.368
REMARK INTER:                 -17.943
REMARK INTRA:                  -3.425
REMARK UNBOUND:                -3.425
REMARK  Name = 
REMARK  25 active torsions:
REMARK  status: ('A' for Active; 'I' for Inactive)
REMARK    1  A    between atoms: C_1  and  O_2
REMARK    2  A    between atoms: O_2  and  C_3
REMARK    3  A    between atoms: C_3  and  C_5
REMARK    4  A    between atoms: C_5  and  C_6
REMARK    5  A    between atoms: C_5  and  C_24
REMARK    6  A    between atoms: C_11  and  C_14
REMARK    7  A    between atoms: C_14  and  C_15
REMARK    8  A    between atoms: C_16  and  C_17
REMARK    9  A    between atoms: C_16  and  C_23
REMARK   10  A    between atoms: C_17  and  C_18
REMARK   11  A    between atoms: C_18  and  C_19
REMARK   12  A    between atoms: C_20  and  C_21
REMARK   13  A    between atoms: C_20  and  C_22
REMARK   14  A    between atoms: C_24  and  C_25
REMARK   15  A    between atoms: C_24  and  C_43
REMARK   16  A    between atoms: C_30  and  C_33
REMARK   17  A    between atoms: C_33  and  C_34
REMARK   18  A    between atoms: C_35  and  C_36
REMARK   19  A    between atoms: C_35  and  C_42
REMARK   20  A    between atoms: C_36  and  C_37
REMARK   21  A    between atoms: C_37  and  C_38
REMARK   22  A    between atoms: C_39  and  C_40
REMARK   23  A    between atoms: C_39  and  C_41
REMARK   24  A    between atoms: C_43  and  O_45
REMARK   25  A    between atoms: O_45  and  C_46
REMARK                            x       y       z     vdW  Elec       q    Type
REMARK                         _______ _______ _______ _____ _____    ______ ____
ROOT
ATOM      1  C   UNL     1      85.906  53.580  45.956  0.00  0.00    +0.102 C 
ENDROOT
BRANCH   1   2
ATOM      2  C   UNL     1      86.139  52.129  45.506  0.00  0.00    +0.018 C 
ATOM      3  C   UNL     1      87.363  51.585  45.367  0.00  0.00    -0.007 C 
ATOM      4  C   UNL     1      87.533  50.228  44.829  0.00  0.00    +0.180 C 
ATOM      5  O   UNL     1      88.686  49.735  44.715  0.00  0.00    -0.288 OA
ATOM      6  C   UNL     1      86.359  49.456  44.396  0.00  0.00    -0.008 C 
ATOM      7  C   UNL     1      85.118  49.938  44.581  0.00  0.00    +0.007 C 
ATOM      8  C   UNL     1      84.949  51.298  45.160  0.00  0.00    +0.187 C 
ATOM      9  O   UNL     1      83.789  51.756  45.348  0.00  0.00    -0.287 OA
BRANCH   7  10
ATOM     10  C   UNL     1      83.907  49.170  44.091  0.00  0.00    -0.005 C 
BRANCH  10  11
ATOM     11  C   UNL     1      84.144  47.679  44.008  0.00  0.00    -0.081 C 
ATOM     12  C   UNL     1      83.156  46.749  43.991  0.00  0.00    -0.076 C 
ATOM     13  C   UNL     1      81.705  47.169  43.989  0.00  0.00    -0.044 C 
BRANCH  12  14
ATOM     14  C   UNL     1      83.430  45.248  43.976  0.00  0.00    -0.029 C 
BRANCH  14  15
ATOM     15  C   UNL     1      84.689  44.776  43.223  0.00  0.00    -0.031 C 
BRANCH  15  16
ATOM     16  C   UNL     1      85.777  44.311  44.167  0.00  0.00    -0.085 C 
ATOM     17  C   UNL     1      86.890  43.670  43.751  0.00  0.00    -0.080 C 
ATOM     18  C   UNL     1      87.111  43.329  42.298  0.00  0.00    -0.044 C 
ATOM     19  C   UNL     1      87.925  43.274  44.773  0.00  0.00    -0.044 C 
ENDBRANCH  15  16
ENDBRANCH  14  15
ENDBRANCH  12  14
ENDBRANCH  10  11
ENDBRANCH   7  10
ENDBRANCH   1   2
BRANCH   1  20
ATOM     20  C   UNL     1      85.269  53.656  47.325  0.00  0.00    +0.316 C 
ATOM     21  O   UNL     1      85.903  53.294  48.354  0.00  0.00    -0.250 OA
BRANCH  20  23
ATOM     22  C   UNL     1      83.562  55.087  48.400  0.00  0.00    +0.082 C 
ATOM     23  O   UNL     1      83.954  54.117  47.438  0.00  0.00    -0.467 OA
ENDBRANCH  20  23
ENDBRANCH   1  20
BRANCH   1  24
ATOM     24  C   UNL     1      85.213  54.574  44.963  0.00  0.00    +0.102 C 
BRANCH  24  25
ATOM     25  C   UNL     1      84.909  54.083  43.539  0.00  0.00    +0.018 C 
ATOM     26  C   UNL     1      83.660  53.863  43.083  0.00  0.00    -0.007 C 
ATOM     27  C   UNL     1      83.424  53.360  41.719  0.00  0.00    +0.180 C 
ATOM     28  O   UNL     1      82.248  53.162  41.315  0.00  0.00    -0.288 OA
ATOM     29  C   UNL     1      84.561  53.088  40.829  0.00  0.00    -0.008 C 
ATOM     30  C   UNL     1      85.817  53.297  41.247  0.00  0.00    +0.007 C 
ATOM     31  C   UNL     1      86.055  53.813  42.620  0.00  0.00    +0.187 C 
ATOM     32  O   UNL     1      87.236  54.027  43.010  0.00  0.00    -0.287 OA
BRANCH  30  33
ATOM     33  C   UNL     1      86.975  53.065  40.309  0.00  0.00    -0.005 C 
BRANCH  33  34
ATOM     34  C   UNL     1      87.793  51.889  40.785  0.00  0.00    -0.081 C 
ATOM     35  C   UNL     1      89.125  51.914  41.011  0.00  0.00    -0.076 C 
ATOM     36  C   UNL     1      89.959  53.151  40.762  0.00  0.00    -0.044 C 
BRANCH  35  37
ATOM     37  C   UNL     1      89.804  50.681  41.565  0.00  0.00    -0.029 C 
BRANCH  37  38
ATOM     38  C   UNL     1      88.977  49.428  41.250  0.00  0.00    -0.031 C 
BRANCH  38  39
ATOM     39  C   UNL     1      89.653  48.187  41.774  0.00  0.00    -0.085 C 
ATOM     40  C   UNL     1      88.997  47.103  42.248  0.00  0.00    -0.080 C 
ATOM     41  C   UNL     1      89.808  45.941  42.758  0.00  0.00    -0.044 C 
ATOM     42  C   UNL     1      87.487  47.016  42.256  0.00  0.00    -0.044 C 
ENDBRANCH  38  39
ENDBRANCH  37  38
ENDBRANCH  35  37
ENDBRANCH  33  34
ENDBRANCH  30  33
ENDBRANCH  24  25
BRANCH  24  43
ATOM     43  C   UNL     1      85.875  55.932  44.964  0.00  0.00    +0.316 C 
ATOM     44  O   UNL     1      87.016  56.063  45.485  0.00  0.00    -0.250 OA
BRANCH  43  45
ATOM     45  O   UNL     1      85.225  57.039  44.407  0.00  0.00    -0.467 OA
ATOM     46  C   UNL     1      84.968  58.227  45.144  0.00  0.00    +0.082 C 
ENDBRANCH  43  45
ENDBRANCH  24  43
ENDBRANCH   1  24
TORSDOF 17
ENDMDL
