MODEL 1
REMARK VINA RESULT:    -7.413      0.000      0.000
REMARK INTER + INTRA:         -11.166
REMARK INTER:                 -10.267
REMARK INTRA:                  -0.899
REMARK UNBOUND:                -1.152
REMARK  Name = 
REMARK  7 active torsions:
REMARK  status: ('A' for Active; 'I' for Inactive)
REMARK    1  A    between atoms: C_2  and  C_3
REMARK    2  A    between atoms: C_2  and  C_12
REMARK    3  A    between atoms: C_4  and  C_5
REMARK    4  A    between atoms: C_8  and  O_11
REMARK    5  A    between atoms: C_12  and  C_13
REMARK    6  A    between atoms: C_13  and  C_14
REMARK    7  A    between atoms: C_17  and  O_20
REMARK                            x       y       z     vdW  Elec       q    Type
REMARK                         _______ _______ _______ _____ _____    ______ ____
ROOT
ATOM      1  O   UNL     1      86.064  51.735  48.856  0.00  0.00    -0.293 OA
ATOM      2  C   UNL     1      85.997  52.219  47.695  0.00  0.00    +0.156 C 
ENDROOT
BRANCH   2   3
ATOM      3  C   UNL     1      86.782  51.572  46.619  0.00  0.00    -0.019 C 
ATOM      4  C   UNL     1      86.860  52.045  45.366  0.00  0.00    -0.051 C 
BRANCH   4   5
ATOM      5  C   UNL     1      87.662  51.402  44.296  0.00  0.00    -0.025 A 
ATOM      6  C   UNL     1      88.225  50.138  44.544  0.00  0.00    -0.051 A 
ATOM      7  C   UNL     1      88.996  49.500  43.569  0.00  0.00    -0.020 A 
ATOM      8  C   UNL     1      89.227  50.118  42.337  0.00  0.00    +0.117 A 
ATOM      9  C   UNL     1      88.686  51.385  42.085  0.00  0.00    -0.020 A 
ATOM     10  C   UNL     1      87.912  52.027  43.057  0.00  0.00    -0.051 A 
BRANCH   8  11
ATOM     11  O   UNL     1      89.998  49.471  41.375  0.00  0.00    -0.507 OA
ATOM     12  H   UNL     1      89.684  48.683  40.977  0.00  0.00    +0.000 HD
ENDBRANCH   8  11
ENDBRANCH   4   5
ENDBRANCH   2   3
BRANCH   2  13
ATOM     13  C   UNL     1      85.148  53.443  47.475  0.00  0.00    +0.014 C 
BRANCH  13  14
ATOM     14  C   UNL     1      85.941  54.718  47.786  0.00  0.00    -0.021 C 
BRANCH  14  15
ATOM     15  C   UNL     1      85.899  55.663  46.615  0.00  0.00    -0.047 A 
ATOM     16  C   UNL     1      86.765  55.478  45.525  0.00  0.00    -0.055 A 
ATOM     17  C   UNL     1      86.704  56.336  44.423  0.00  0.00    -0.020 A 
ATOM     18  C   UNL     1      85.769  57.380  44.396  0.00  0.00    +0.117 A 
ATOM     19  C   UNL     1      84.895  57.559  45.472  0.00  0.00    -0.020 A 
ATOM     20  C   UNL     1      84.955  56.702  46.576  0.00  0.00    -0.055 A 
BRANCH  18  21
ATOM     21  O   UNL     1      85.698  58.241  43.302  0.00  0.00    -0.507 OA
ATOM     22  H   UNL     1      85.719  59.168  43.435  0.00  0.00    +0.000 HD
ENDBRANCH  18  21
ENDBRANCH  14  15
ENDBRANCH  13  14
ENDBRANCH   2  13
TORSDOF 7
ENDMDL
MODEL 2
REMARK VINA RESULT:    -7.280      3.136      4.309
REMARK INTER + INTRA:         -10.986
REMARK INTER:                  -9.740
REMARK INTRA:                  -1.246
REMARK UNBOUND:                -1.152
REMARK  Name = 
REMARK  7 active torsions:
REMARK  status: ('A' for Active; 'I' for Inactive)
REMARK    1  A    between atoms: C_2  and  C_3
REMARK    2  A    between atoms: C_2  and  C_12
REMARK    3  A    between atoms: C_4  and  C_5
REMARK    4  A    between atoms: C_8  and  O_11
REMARK    5  A    between atoms: C_12  and  C_13
REMARK    6  A    between atoms: C_13  and  C_14
REMARK    7  A    between atoms: C_17  and  O_20
REMARK                            x       y       z     vdW  Elec       q    Type
REMARK                         _______ _______ _______ _____ _____    ______ ____
ROOT
ATOM      1  O   UNL     1      86.244  51.608  46.642  0.00  0.00    -0.293 OA
ATOM      2  C   UNL     1      85.252  52.384  46.671  0.00  0.00    +0.156 C 
ENDROOT
BRANCH   2   3
ATOM      3  C   UNL     1      84.618  52.759  45.386  0.00  0.00    -0.019 C 
ATOM      4  C   UNL     1      85.260  53.405  44.401  0.00  0.00    -0.051 C 
BRANCH   4   5
ATOM      5  C   UNL     1      84.626  53.764  43.108  0.00  0.00    -0.025 A 
ATOM      6  C   UNL     1      84.885  55.033  42.561  0.00  0.00    -0.051 A 
ATOM      7  C   UNL     1      84.301  55.418  41.351  0.00  0.00    -0.020 A 
ATOM      8  C   UNL     1      83.441  54.548  40.676  0.00  0.00    +0.117 A 
ATOM      9  C   UNL     1      83.161  53.288  41.220  0.00  0.00    -0.020 A 
ATOM     10  C   UNL     1      83.744  52.898  42.430  0.00  0.00    -0.051 A 
BRANCH   8  11
ATOM     11  O   UNL     1      82.865  54.945  39.472  0.00  0.00    -0.507 OA
ATOM     12  H   UNL     1      82.734  55.856  39.293  0.00  0.00    +0.000 HD
ENDBRANCH   8  11
ENDBRANCH   4   5
ENDBRANCH   2   3
BRANCH   2  13
ATOM     13  C   UNL     1      84.787  52.905  48.005  0.00  0.00    +0.014 C 
BRANCH  13  14
ATOM     14  C   UNL     1      85.575  54.159  48.402  0.00  0.00    -0.021 C 
BRANCH  14  15
ATOM     15  C   UNL     1      85.245  55.302  47.481  0.00  0.00    -0.047 A 
ATOM     16  C   UNL     1      83.933  55.797  47.409  0.00  0.00    -0.055 A 
ATOM     17  C   UNL     1      83.633  56.880  46.578  0.00  0.00    -0.020 A 
ATOM     18  C   UNL     1      84.643  57.486  45.819  0.00  0.00    +0.117 A 
ATOM     19  C   UNL     1      85.954  57.005  45.898  0.00  0.00    -0.020 A 
ATOM     20  C   UNL     1      86.256  55.921  46.729  0.00  0.00    -0.055 A 
BRANCH  18  21
ATOM     21  O   UNL     1      84.357  58.567  44.987  0.00  0.00    -0.507 OA
ATOM     22  H   UNL     1      85.053  59.030  44.566  0.00  0.00    +0.000 HD
ENDBRANCH  18  21
ENDBRANCH  14  15
ENDBRANCH  13  14
ENDBRANCH   2  13
TORSDOF 7
ENDMDL
MODEL 3
REMARK VINA RESULT:    -7.226      3.652      5.174
REMARK INTER + INTRA:         -10.913
REMARK INTER:                  -9.654
REMARK INTRA:                  -1.259
REMARK UNBOUND:                -1.152
REMARK  Name = 
REMARK  7 active torsions:
REMARK  status: ('A' for Active; 'I' for Inactive)
REMARK    1  A    between atoms: C_2  and  C_3
REMARK    2  A    between atoms: C_2  and  C_12
REMARK    3  A    between atoms: C_4  and  C_5
REMARK    4  A    between atoms: C_8  and  O_11
REMARK    5  A    between atoms: C_12  and  C_13
REMARK    6  A    between atoms: C_13  and  C_14
REMARK    7  A    between atoms: C_17  and  O_20
REMARK                            x       y       z     vdW  Elec       q    Type
REMARK                         _______ _______ _______ _____ _____    ______ ____
ROOT
ATOM      1  O   UNL     1      85.964  48.336  45.093  0.00  0.00    -0.293 OA
ATOM      2  C   UNL     1      85.978  49.577  45.312  0.00  0.00    +0.156 C 
ENDROOT
BRANCH   2   3
ATOM      3  C   UNL     1      85.402  50.476  44.287  0.00  0.00    -0.019 C 
ATOM      4  C   UNL     1      84.154  50.965  44.342  0.00  0.00    -0.051 C 
BRANCH   4   5
ATOM      5  C   UNL     1      83.587  51.880  43.321  0.00  0.00    -0.025 A 
ATOM      6  C   UNL     1      82.430  51.481  42.628  0.00  0.00    -0.051 A 
ATOM      7  C   UNL     1      81.868  52.306  41.650  0.00  0.00    -0.020 A 
ATOM      8  C   UNL     1      82.457  53.535  41.341  0.00  0.00    +0.117 A 
ATOM      9  C   UNL     1      83.620  53.935  42.012  0.00  0.00    -0.020 A 
ATOM     10  C   UNL     1      84.186  53.114  42.992  0.00  0.00    -0.051 A 
BRANCH   8  11
ATOM     11  O   UNL     1      81.886  54.347  40.364  0.00  0.00    -0.507 OA
ATOM     12  H   UNL     1      81.881  54.069  39.469  0.00  0.00    +0.000 HD
ENDBRANCH   8  11
ENDBRANCH   4   5
ENDBRANCH   2   3
BRANCH   2  13
ATOM     13  C   UNL     1      86.605  50.073  46.588  0.00  0.00    +0.014 C 
BRANCH  13  14
ATOM     14  C   UNL     1      87.236  51.454  46.382  0.00  0.00    -0.021 C 
BRANCH  14  15
ATOM     15  C   UNL     1      86.343  52.530  46.939  0.00  0.00    -0.047 A 
ATOM     16  C   UNL     1      86.051  53.672  46.176  0.00  0.00    -0.055 A 
ATOM     17  C   UNL     1      85.196  54.656  46.679  0.00  0.00    -0.020 A 
ATOM     18  C   UNL     1      84.615  54.503  47.946  0.00  0.00    +0.117 A 
ATOM     19  C   UNL     1      84.891  53.360  48.702  0.00  0.00    -0.020 A 
ATOM     20  C   UNL     1      85.748  52.375  48.201  0.00  0.00    -0.055 A 
BRANCH  18  21
ATOM     21  O   UNL     1      83.760  55.477  48.458  0.00  0.00    -0.507 OA
ATOM     22  H   UNL     1      84.022  56.376  48.458  0.00  0.00    +0.000 HD
ENDBRANCH  18  21
ENDBRANCH  14  15
ENDBRANCH  13  14
ENDBRANCH   2  13
TORSDOF 7
ENDMDL
MODEL 4
REMARK VINA RESULT:    -7.184      6.741      9.101
REMARK INTER + INTRA:         -10.856
REMARK INTER:                 -10.172
REMARK INTRA:                  -0.684
REMARK UNBOUND:                -1.152
REMARK  Name = 
REMARK  7 active torsions:
REMARK  status: ('A' for Active; 'I' for Inactive)
REMARK    1  A    between atoms: C_2  and  C_3
REMARK    2  A    between atoms: C_2  and  C_12
REMARK    3  A    between atoms: C_4  and  C_5
REMARK    4  A    between atoms: C_8  and  O_11
REMARK    5  A    between atoms: C_12  and  C_13
REMARK    6  A    between atoms: C_13  and  C_14
REMARK    7  A    between atoms: C_17  and  O_20
REMARK                            x       y       z     vdW  Elec       q    Type
REMARK                         _______ _______ _______ _____ _____    ______ ____
ROOT
ATOM      1  O   UNL     1      86.732  44.215  44.348  0.00  0.00    -0.293 OA
ATOM      2  C   UNL     1      86.133  44.964  43.531  0.00  0.00    +0.156 C 
ENDROOT
BRANCH   2   3
ATOM      3  C   UNL     1      84.815  45.514  43.920  0.00  0.00    -0.019 C 
ATOM      4  C   UNL     1      84.130  46.399  43.181  0.00  0.00    -0.051 C 
BRANCH   4   5
ATOM      5  C   UNL     1      82.801  46.935  43.567  0.00  0.00    -0.025 A 
ATOM      6  C   UNL     1      81.932  46.113  44.306  0.00  0.00    -0.051 A 
ATOM      7  C   UNL     1      80.667  46.572  44.682  0.00  0.00    -0.020 A 
ATOM      8  C   UNL     1      80.245  47.853  44.316  0.00  0.00    +0.117 A 
ATOM      9  C   UNL     1      81.095  48.675  43.565  0.00  0.00    -0.020 A 
ATOM     10  C   UNL     1      82.362  48.220  43.187  0.00  0.00    -0.051 A 
BRANCH   8  11
ATOM     11  O   UNL     1      78.982  48.297  44.697  0.00  0.00    -0.507 OA
ATOM     12  H   UNL     1      78.282  48.309  44.074  0.00  0.00    +0.000 HD
ENDBRANCH   8  11
ENDBRANCH   4   5
ENDBRANCH   2   3
BRANCH   2  13
ATOM     13  C   UNL     1      86.778  45.231  42.197  0.00  0.00    +0.014 C 
BRANCH  13  14
ATOM     14  C   UNL     1      88.299  45.348  42.343  0.00  0.00    -0.021 C 
BRANCH  14  15
ATOM     15  C   UNL     1      88.751  46.751  42.039  0.00  0.00    -0.047 A 
ATOM     16  C   UNL     1      87.809  47.748  41.739  0.00  0.00    -0.055 A 
ATOM     17  C   UNL     1      88.225  49.059  41.489  0.00  0.00    -0.020 A 
ATOM     18  C   UNL     1      89.587  49.388  41.546  0.00  0.00    +0.117 A 
ATOM     19  C   UNL     1      90.527  48.401  41.858  0.00  0.00    -0.020 A 
ATOM     20  C   UNL     1      90.112  47.089  42.108  0.00  0.00    -0.055 A 
BRANCH  18  21
ATOM     21  O   UNL     1      90.014  50.691  41.299  0.00  0.00    -0.507 OA
ATOM     22  H   UNL     1      90.344  50.923  40.454  0.00  0.00    +0.000 HD
ENDBRANCH  18  21
ENDBRANCH  14  15
ENDBRANCH  13  14
ENDBRANCH   2  13
TORSDOF 7
ENDMDL
MODEL 5
REMARK VINA RESULT:    -7.142      2.083      6.661
REMARK INTER + INTRA:         -10.799
REMARK INTER:                 -10.167
REMARK INTRA:                  -0.632
REMARK UNBOUND:                -1.152
REMARK  Name = 
REMARK  7 active torsions:
REMARK  status: ('A' for Active; 'I' for Inactive)
REMARK    1  A    between atoms: C_2  and  C_3
REMARK    2  A    between atoms: C_2  and  C_12
REMARK    3  A    between atoms: C_4  and  C_5
REMARK    4  A    between atoms: C_8  and  O_11
REMARK    5  A    between atoms: C_12  and  C_13
REMARK    6  A    between atoms: C_13  and  C_14
REMARK    7  A    between atoms: C_17  and  O_20
REMARK                            x       y       z     vdW  Elec       q    Type
REMARK                         _______ _______ _______ _____ _____    ______ ____
ROOT
ATOM      1  O   UNL     1      88.207  50.297  46.372  0.00  0.00    -0.293 OA
ATOM      2  C   UNL     1      87.601  50.715  45.349  0.00  0.00    +0.156 C 
ENDROOT
BRANCH   2   3
ATOM      3  C   UNL     1      86.898  52.015  45.433  0.00  0.00    -0.019 C 
ATOM      4  C   UNL     1      86.438  52.539  46.579  0.00  0.00    -0.051 C 
BRANCH   4   5
ATOM      5  C   UNL     1      85.748  53.851  46.662  0.00  0.00    -0.025 A 
ATOM      6  C   UNL     1      84.456  53.899  47.212  0.00  0.00    -0.051 A 
ATOM      7  C   UNL     1      83.765  55.110  47.299  0.00  0.00    -0.020 A 
ATOM      8  C   UNL     1      84.348  56.289  46.828  0.00  0.00    +0.117 A 
ATOM      9  C   UNL     1      85.628  56.251  46.261  0.00  0.00    -0.020 A 
ATOM     10  C   UNL     1      86.324  55.041  46.173  0.00  0.00    -0.051 A 
BRANCH   8  11
ATOM     11  O   UNL     1      83.648  57.490  46.921  0.00  0.00    -0.507 OA
ATOM     12  H   UNL     1      83.601  57.941  47.740  0.00  0.00    +0.000 HD
ENDBRANCH   8  11
ENDBRANCH   4   5
ENDBRANCH   2   3
BRANCH   2  13
ATOM     13  C   UNL     1      87.602  49.854  44.113  0.00  0.00    +0.014 C 
BRANCH  13  14
ATOM     14  C   UNL     1      88.920  50.007  43.346  0.00  0.00    -0.021 C 
BRANCH  14  15
ATOM     15  C   UNL     1      88.722  50.861  42.123  0.00  0.00    -0.047 A 
ATOM     16  C   UNL     1      89.817  51.196  41.309  0.00  0.00    -0.055 A 
ATOM     17  C   UNL     1      89.629  51.962  40.155  0.00  0.00    -0.020 A 
ATOM     18  C   UNL     1      88.344  52.392  39.798  0.00  0.00    +0.117 A 
ATOM     19  C   UNL     1      87.250  52.050  40.598  0.00  0.00    -0.020 A 
ATOM     20  C   UNL     1      87.436  51.284  41.754  0.00  0.00    -0.055 A 
BRANCH  18  21
ATOM     21  O   UNL     1      88.144  53.156  38.650  0.00  0.00    -0.507 OA
ATOM     22  H   UNL     1      87.274  53.372  38.377  0.00  0.00    +0.000 HD
ENDBRANCH  18  21
ENDBRANCH  14  15
ENDBRANCH  13  14
ENDBRANCH   2  13
TORSDOF 7
ENDMDL
MODEL 6
REMARK VINA RESULT:    -7.108      1.388      6.520
REMARK INTER + INTRA:         -10.754
REMARK INTER:                  -9.772
REMARK INTRA:                  -0.981
REMARK UNBOUND:                -1.152
REMARK  Name = 
REMARK  7 active torsions:
REMARK  status: ('A' for Active; 'I' for Inactive)
REMARK    1  A    between atoms: C_2  and  C_3
REMARK    2  A    between atoms: C_2  and  C_12
REMARK    3  A    between atoms: C_4  and  C_5
REMARK    4  A    between atoms: C_8  and  O_11
REMARK    5  A    between atoms: C_12  and  C_13
REMARK    6  A    between atoms: C_13  and  C_14
REMARK    7  A    between atoms: C_17  and  O_20
REMARK                            x       y       z     vdW  Elec       q    Type
REMARK                         _______ _______ _______ _____ _____    ______ ____
ROOT
ATOM      1  O   UNL     1      86.378  50.936  47.650  0.00  0.00    -0.293 OA
ATOM      2  C   UNL     1      86.697  51.575  46.612  0.00  0.00    +0.156 C 
ENDROOT
BRANCH   2   3
ATOM      3  C   UNL     1      86.052  52.886  46.372  0.00  0.00    -0.019 C 
ATOM      4  C   UNL     1      86.732  54.013  46.107  0.00  0.00    -0.051 C 
BRANCH   4   5
ATOM      5  C   UNL     1      86.080  55.321  45.850  0.00  0.00    -0.025 A 
ATOM      6  C   UNL     1      86.518  56.087  44.755  0.00  0.00    -0.051 A 
ATOM      7  C   UNL     1      85.941  57.330  44.481  0.00  0.00    -0.020 A 
ATOM      8  C   UNL     1      84.928  57.832  45.302  0.00  0.00    +0.117 A 
ATOM      9  C   UNL     1      84.495  57.086  46.405  0.00  0.00    -0.020 A 
ATOM     10  C   UNL     1      85.069  55.841  46.683  0.00  0.00    -0.051 A 
BRANCH   8  11
ATOM     11  O   UNL     1      84.362  59.072  45.017  0.00  0.00    -0.507 OA
ATOM     12  H   UNL     1      83.608  59.363  45.492  0.00  0.00    +0.000 HD
ENDBRANCH   8  11
ENDBRANCH   4   5
ENDBRANCH   2   3
BRANCH   2  13
ATOM     13  C   UNL     1      87.690  50.957  45.665  0.00  0.00    +0.014 C 
BRANCH  13  14
ATOM     14  C   UNL     1      87.048  50.699  44.297  0.00  0.00    -0.021 C 
BRANCH  14  15
ATOM     15  C   UNL     1      87.909  51.258  43.197  0.00  0.00    -0.047 A 
ATOM     16  C   UNL     1      87.740  52.586  42.772  0.00  0.00    -0.055 A 
ATOM     17  C   UNL     1      88.561  53.116  41.773  0.00  0.00    -0.020 A 
ATOM     18  C   UNL     1      89.567  52.328  41.196  0.00  0.00    +0.117 A 
ATOM     19  C   UNL     1      89.748  51.010  41.627  0.00  0.00    -0.020 A 
ATOM     20  C   UNL     1      88.927  50.477  42.626  0.00  0.00    -0.055 A 
BRANCH  18  21
ATOM     21  O   UNL     1      90.392  52.846  40.200  0.00  0.00    -0.507 OA
ATOM     22  H   UNL     1      91.202  52.422  39.997  0.00  0.00    +0.000 HD
ENDBRANCH  18  21
ENDBRANCH  14  15
ENDBRANCH  13  14
ENDBRANCH   2  13
TORSDOF 7
ENDMDL
MODEL 7
REMARK VINA RESULT:    -7.068      7.104      9.795
REMARK INTER + INTRA:         -10.700
REMARK INTER:                 -10.172
REMARK INTRA:                  -0.528
REMARK UNBOUND:                -1.152
REMARK  Name = 
REMARK  7 active torsions:
REMARK  status: ('A' for Active; 'I' for Inactive)
REMARK    1  A    between atoms: C_2  and  C_3
REMARK    2  A    between atoms: C_2  and  C_12
REMARK    3  A    between atoms: C_4  and  C_5
REMARK    4  A    between atoms: C_8  and  O_11
REMARK    5  A    between atoms: C_12  and  C_13
REMARK    6  A    between atoms: C_13  and  C_14
REMARK    7  A    between atoms: C_17  and  O_20
REMARK                            x       y       z     vdW  Elec       q    Type
REMARK                         _______ _______ _______ _____ _____    ______ ____
ROOT
ATOM      1  O   UNL     1      84.942  44.105  41.947  0.00  0.00    -0.293 OA
ATOM      2  C   UNL     1      85.058  44.705  43.048  0.00  0.00    +0.156 C 
ENDROOT
BRANCH   2   3
ATOM      3  C   UNL     1      83.862  45.371  43.612  0.00  0.00    -0.019 C 
ATOM      4  C   UNL     1      83.280  46.447  43.060  0.00  0.00    -0.051 C 
BRANCH   4   5
ATOM      5  C   UNL     1      82.071  47.102  43.620  0.00  0.00    -0.025 A 
ATOM      6  C   UNL     1      81.780  48.421  43.233  0.00  0.00    -0.051 A 
ATOM      7  C   UNL     1      80.658  49.080  43.743  0.00  0.00    -0.020 A 
ATOM      8  C   UNL     1      79.817  48.437  44.655  0.00  0.00    +0.117 A 
ATOM      9  C   UNL     1      80.106  47.128  45.061  0.00  0.00    -0.020 A 
ATOM     10  C   UNL     1      81.227  46.464  44.553  0.00  0.00    -0.051 A 
BRANCH   8  11
ATOM     11  O   UNL     1      78.702  49.106  45.155  0.00  0.00    -0.507 OA
ATOM     12  H   UNL     1      78.715  50.039  45.237  0.00  0.00    +0.000 HD
ENDBRANCH   8  11
ENDBRANCH   4   5
ENDBRANCH   2   3
BRANCH   2  13
ATOM     13  C   UNL     1      86.410  44.736  43.711  0.00  0.00    +0.014 C 
BRANCH  13  14
ATOM     14  C   UNL     1      87.518  44.433  42.697  0.00  0.00    -0.021 C 
BRANCH  14  15
ATOM     15  C   UNL     1      88.250  45.693  42.324  0.00  0.00    -0.047 A 
ATOM     16  C   UNL     1      87.534  46.843  41.952  0.00  0.00    -0.055 A 
ATOM     17  C   UNL     1      88.212  48.024  41.637  0.00  0.00    -0.020 A 
ATOM     18  C   UNL     1      89.611  48.071  41.700  0.00  0.00    +0.117 A 
ATOM     19  C   UNL     1      90.327  46.933  42.085  0.00  0.00    -0.020 A 
ATOM     20  C   UNL     1      89.651  45.750  42.400  0.00  0.00    -0.055 A 
BRANCH  18  21
ATOM     21  O   UNL     1      90.298  49.243  41.389  0.00  0.00    -0.507 OA
ATOM     22  H   UNL     1      90.924  49.248  40.692  0.00  0.00    +0.000 HD
ENDBRANCH  18  21
ENDBRANCH  14  15
ENDBRANCH  13  14
ENDBRANCH   2  13
TORSDOF 7
ENDMDL
MODEL 8
REMARK VINA RESULT:    -7.021      1.594      7.241
REMARK INTER + INTRA:         -10.637
REMARK INTER:                 -10.022
REMARK INTRA:                  -0.614
REMARK UNBOUND:                -1.152
REMARK  Name = 
REMARK  7 active torsions:
REMARK  status: ('A' for Active; 'I' for Inactive)
REMARK    1  A    between atoms: C_2  and  C_3
REMARK    2  A    between atoms: C_2  and  C_12
REMARK    3  A    between atoms: C_4  and  C_5
REMARK    4  A    between atoms: C_8  and  O_11
REMARK    5  A    between atoms: C_12  and  C_13
REMARK    6  A    between atoms: C_13  and  C_14
REMARK    7  A    between atoms: C_17  and  O_20
REMARK                            x       y       z     vdW  Elec       q    Type
REMARK                         _______ _______ _______ _____ _____    ______ ____
ROOT
ATOM      1  O   UNL     1      85.933  51.518  49.143  0.00  0.00    -0.293 OA
ATOM      2  C   UNL     1      86.291  51.623  47.940  0.00  0.00    +0.156 C 
ENDROOT
BRANCH   2   3
ATOM      3  C   UNL     1      85.953  52.869  47.214  0.00  0.00    -0.019 C 
ATOM      4  C   UNL     1      85.545  53.995  47.819  0.00  0.00    -0.051 C 
BRANCH   4   5
ATOM      5  C   UNL     1      85.224  55.246  47.089  0.00  0.00    -0.025 A 
ATOM      6  C   UNL     1      86.172  55.761  46.187  0.00  0.00    -0.051 A 
ATOM      7  C   UNL     1      85.916  56.943  45.486  0.00  0.00    -0.020 A 
ATOM      8  C   UNL     1      84.718  57.634  45.684  0.00  0.00    +0.117 A 
ATOM      9  C   UNL     1      83.774  57.140  46.593  0.00  0.00    -0.020 A 
ATOM     10  C   UNL     1      84.025  55.958  47.296  0.00  0.00    -0.051 A 
BRANCH   8  11
ATOM     11  O   UNL     1      84.477  58.811  44.978  0.00  0.00    -0.507 OA
ATOM     12  H   UNL     1      84.745  58.883  44.083  0.00  0.00    +0.000 HD
ENDBRANCH   8  11
ENDBRANCH   4   5
ENDBRANCH   2   3
BRANCH   2  13
ATOM     13  C   UNL     1      87.014  50.466  47.302  0.00  0.00    +0.014 C 
BRANCH  13  14
ATOM     14  C   UNL     1      87.767  50.920  46.048  0.00  0.00    -0.021 C 
BRANCH  14  15
ATOM     15  C   UNL     1      87.574  49.931  44.930  0.00  0.00    -0.047 A 
ATOM     16  C   UNL     1      86.413  49.142  44.876  0.00  0.00    -0.055 A 
ATOM     17  C   UNL     1      86.218  48.248  43.820  0.00  0.00    -0.020 A 
ATOM     18  C   UNL     1      87.176  48.140  42.802  0.00  0.00    +0.117 A 
ATOM     19  C   UNL     1      88.326  48.934  42.845  0.00  0.00    -0.020 A 
ATOM     20  C   UNL     1      88.523  49.830  43.901  0.00  0.00    -0.055 A 
BRANCH  18  21
ATOM     21  O   UNL     1      86.992  47.252  41.744  0.00  0.00    -0.507 OA
ATOM     22  H   UNL     1      86.764  46.359  41.917  0.00  0.00    +0.000 HD
ENDBRANCH  18  21
ENDBRANCH  14  15
ENDBRANCH  13  14
ENDBRANCH   2  13
TORSDOF 7
ENDMDL
MODEL 9
REMARK VINA RESULT:    -6.914      3.617      5.409
REMARK INTER + INTRA:         -10.491
REMARK INTER:                  -9.339
REMARK INTRA:                  -1.152
REMARK UNBOUND:                -1.152
REMARK  Name = 
REMARK  7 active torsions:
REMARK  status: ('A' for Active; 'I' for Inactive)
REMARK    1  A    between atoms: C_2  and  C_3
REMARK    2  A    between atoms: C_2  and  C_12
REMARK    3  A    between atoms: C_4  and  C_5
REMARK    4  A    between atoms: C_8  and  O_11
REMARK    5  A    between atoms: C_12  and  C_13
REMARK    6  A    between atoms: C_13  and  C_14
REMARK    7  A    between atoms: C_17  and  O_20
REMARK                            x       y       z     vdW  Elec       q    Type
REMARK                         _______ _______ _______ _____ _____    ______ ____
ROOT
ATOM      1  O   UNL     1      84.883  56.795  42.631  0.00  0.00    -0.293 OA
ATOM      2  C   UNL     1      85.201  55.702  43.171  0.00  0.00    +0.156 C 
ENDROOT
BRANCH   2   3
ATOM      3  C   UNL     1      84.265  54.561  43.049  0.00  0.00    -0.019 C 
ATOM      4  C   UNL     1      84.624  53.281  43.228  0.00  0.00    -0.051 C 
BRANCH   4   5
ATOM      5  C   UNL     1      83.678  52.142  43.121  0.00  0.00    -0.025 A 
ATOM      6  C   UNL     1      83.817  51.066  44.014  0.00  0.00    -0.051 A 
ATOM      7  C   UNL     1      82.956  49.967  43.943  0.00  0.00    -0.020 A 
ATOM      8  C   UNL     1      81.951  49.922  42.973  0.00  0.00    +0.117 A 
ATOM      9  C   UNL     1      81.814  50.981  42.066  0.00  0.00    -0.020 A 
ATOM     10  C   UNL     1      82.673  52.082  42.134  0.00  0.00    -0.051 A 
BRANCH   8  11
ATOM     11  O   UNL     1      81.100  48.821  42.913  0.00  0.00    -0.507 OA
ATOM     12  H   UNL     1      80.955  48.300  43.678  0.00  0.00    +0.000 HD
ENDBRANCH   8  11
ENDBRANCH   4   5
ENDBRANCH   2   3
BRANCH   2  13
ATOM     13  C   UNL     1      86.498  55.628  43.933  0.00  0.00    +0.014 C 
BRANCH  13  14
ATOM     14  C   UNL     1      86.377  56.347  45.281  0.00  0.00    -0.021 C 
BRANCH  14  15
ATOM     15  C   UNL     1      85.754  55.441  46.308  0.00  0.00    -0.047 A 
ATOM     16  C   UNL     1      86.234  54.132  46.480  0.00  0.00    -0.055 A 
ATOM     17  C   UNL     1      85.678  53.301  47.457  0.00  0.00    -0.020 A 
ATOM     18  C   UNL     1      84.644  53.772  48.278  0.00  0.00    +0.117 A 
ATOM     19  C   UNL     1      84.174  55.079  48.119  0.00  0.00    -0.020 A 
ATOM     20  C   UNL     1      84.728  55.913  47.142  0.00  0.00    -0.055 A 
BRANCH  18  21
ATOM     21  O   UNL     1      84.083  52.953  49.255  0.00  0.00    -0.507 OA
ATOM     22  H   UNL     1      83.187  53.069  49.505  0.00  0.00    +0.000 HD
ENDBRANCH  18  21
ENDBRANCH  14  15
ENDBRANCH  13  14
ENDBRANCH   2  13
TORSDOF 7
ENDMDL
