MODEL 1
REMARK VINA RESULT:    -7.675      0.000      0.000
REMARK INTER + INTRA:         -11.243
REMARK INTER:                 -10.382
REMARK INTRA:                  -0.860
REMARK UNBOUND:                -0.876
REMARK  Name = 
REMARK  7 active torsions:
REMARK  status: ('A' for Active; 'I' for Inactive)
REMARK    1  A    between atoms: C_2  and  C_3
REMARK    2  A    between atoms: C_2  and  C_12
REMARK    3  A    between atoms: C_4  and  C_5
REMARK    4  A    between atoms: C_8  and  O_11
REMARK    5  A    between atoms: C_12  and  C_13
REMARK    6  A    between atoms: C_13  and  C_14
REMARK    7  A    between atoms: C_17  and  O_20
REMARK                            x       y       z     vdW  Elec       q    Type
REMARK                         _______ _______ _______ _____ _____    ______ ____
ROOT
ATOM      1  O   UNL     1      86.100  51.923  48.882  0.00  0.00    -0.293 OA
ATOM      2  C   UNL     1      86.036  52.323  47.689  0.00  0.00    +0.156 C 
ENDROOT
BRANCH   2   3
ATOM      3  C   UNL     1      86.870  51.638  46.675  0.00  0.00    -0.019 C 
ATOM      4  C   UNL     1      86.776  51.866  45.357  0.00  0.00    -0.051 C 
BRANCH   4   5
ATOM      5  C   UNL     1      87.626  51.189  44.345  0.00  0.00    -0.025 A 
ATOM      6  C   UNL     1      87.927  51.872  43.154  0.00  0.00    -0.051 A 
ATOM      7  C   UNL     1      88.715  51.269  42.169  0.00  0.00    -0.020 A 
ATOM      8  C   UNL     1      89.203  49.973  42.353  0.00  0.00    +0.117 A 
ATOM      9  C   UNL     1      88.894  49.276  43.529  0.00  0.00    -0.020 A 
ATOM     10  C   UNL     1      88.107  49.875  44.517  0.00  0.00    -0.051 A 
BRANCH   8  11
ATOM     11  O   UNL     1      89.986  49.384  41.364  0.00  0.00    -0.507 OA
ATOM     12  H   UNL     1      90.372  48.544  41.511  0.00  0.00    +0.000 HD
ENDBRANCH   8  11
ENDBRANCH   4   5
ENDBRANCH   2   3
BRANCH   2  13
ATOM     13  C   UNL     1      85.140  53.490  47.370  0.00  0.00    +0.014 C 
BRANCH  13  14
ATOM     14  C   UNL     1      85.783  54.807  47.818  0.00  0.00    -0.021 C 
BRANCH  14  15
ATOM     15  C   UNL     1      85.788  55.802  46.689  0.00  0.00    -0.047 A 
ATOM     16  C   UNL     1      85.054  56.994  46.793  0.00  0.00    -0.055 A 
ATOM     17  C   UNL     1      85.085  57.934  45.759  0.00  0.00    -0.020 A 
ATOM     18  C   UNL     1      85.858  57.695  44.614  0.00  0.00    +0.117 A 
ATOM     19  C   UNL     1      86.602  56.516  44.513  0.00  0.00    -0.020 A 
ATOM     20  C   UNL     1      86.572  55.574  45.547  0.00  0.00    -0.055 A 
BRANCH  18  21
ATOM     21  O   UNL     1      85.898  58.624  43.577  0.00  0.00    -0.507 OA
ATOM     22  H   UNL     1      86.236  58.376  42.739  0.00  0.00    +0.000 HD
ENDBRANCH  18  21
ENDBRANCH  14  15
ENDBRANCH  13  14
ENDBRANCH   2  13
TORSDOF 7
ENDMDL
MODEL 2
REMARK VINA RESULT:    -7.505      2.921      4.900
REMARK INTER + INTRA:         -11.013
REMARK INTER:                  -9.894
REMARK INTRA:                  -1.119
REMARK UNBOUND:                -0.876
REMARK  Name = 
REMARK  7 active torsions:
REMARK  status: ('A' for Active; 'I' for Inactive)
REMARK    1  A    between atoms: C_2  and  C_3
REMARK    2  A    between atoms: C_2  and  C_12
REMARK    3  A    between atoms: C_4  and  C_5
REMARK    4  A    between atoms: C_8  and  O_11
REMARK    5  A    between atoms: C_12  and  C_13
REMARK    6  A    between atoms: C_13  and  C_14
REMARK    7  A    between atoms: C_17  and  O_20
REMARK                            x       y       z     vdW  Elec       q    Type
REMARK                         _______ _______ _______ _____ _____    ______ ____
ROOT
ATOM      1  O   UNL     1      83.600  57.016  46.996  0.00  0.00    -0.293 OA
ATOM      2  C   UNL     1      84.727  56.749  46.499  0.00  0.00    +0.156 C 
ENDROOT
BRANCH   2   3
ATOM      3  C   UNL     1      85.453  55.563  47.005  0.00  0.00    -0.019 C 
ATOM      4  C   UNL     1      85.057  54.299  46.788  0.00  0.00    -0.051 C 
BRANCH   4   5
ATOM      5  C   UNL     1      85.798  53.112  47.283  0.00  0.00    -0.025 A 
ATOM      6  C   UNL     1      86.630  52.417  46.388  0.00  0.00    -0.051 A 
ATOM      7  C   UNL     1      87.339  51.288  46.808  0.00  0.00    -0.020 A 
ATOM      8  C   UNL     1      87.217  50.828  48.121  0.00  0.00    +0.117 A 
ATOM      9  C   UNL     1      86.377  51.502  49.017  0.00  0.00    -0.020 A 
ATOM     10  C   UNL     1      85.667  52.633  48.602  0.00  0.00    -0.051 A 
BRANCH   8  11
ATOM     11  O   UNL     1      87.928  49.701  48.526  0.00  0.00    -0.507 OA
ATOM     12  H   UNL     1      88.377  49.701  49.348  0.00  0.00    +0.000 HD
ENDBRANCH   8  11
ENDBRANCH   4   5
ENDBRANCH   2   3
BRANCH   2  13
ATOM     13  C   UNL     1      85.280  57.668  45.442  0.00  0.00    +0.014 C 
BRANCH  13  14
ATOM     14  C   UNL     1      86.377  56.968  44.633  0.00  0.00    -0.021 C 
BRANCH  14  15
ATOM     15  C   UNL     1      85.770  56.038  43.617  0.00  0.00    -0.047 A 
ATOM     16  C   UNL     1      86.332  54.771  43.392  0.00  0.00    -0.055 A 
ATOM     17  C   UNL     1      85.749  53.895  42.472  0.00  0.00    -0.020 A 
ATOM     18  C   UNL     1      84.593  54.272  41.775  0.00  0.00    +0.117 A 
ATOM     19  C   UNL     1      84.022  55.527  42.007  0.00  0.00    -0.020 A 
ATOM     20  C   UNL     1      84.604  56.406  42.927  0.00  0.00    -0.055 A 
BRANCH  18  21
ATOM     21  O   UNL     1      84.003  53.407  40.856  0.00  0.00    -0.507 OA
ATOM     22  H   UNL     1      83.366  52.782  41.144  0.00  0.00    +0.000 HD
ENDBRANCH  18  21
ENDBRANCH  14  15
ENDBRANCH  13  14
ENDBRANCH   2  13
TORSDOF 7
ENDMDL
MODEL 3
REMARK VINA RESULT:    -7.365      1.508      4.357
REMARK INTER + INTRA:         -10.825
REMARK INTER:                  -9.555
REMARK INTRA:                  -1.270
REMARK UNBOUND:                -0.876
REMARK  Name = 
REMARK  7 active torsions:
REMARK  status: ('A' for Active; 'I' for Inactive)
REMARK    1  A    between atoms: C_2  and  C_3
REMARK    2  A    between atoms: C_2  and  C_12
REMARK    3  A    between atoms: C_4  and  C_5
REMARK    4  A    between atoms: C_8  and  O_11
REMARK    5  A    between atoms: C_12  and  C_13
REMARK    6  A    between atoms: C_13  and  C_14
REMARK    7  A    between atoms: C_17  and  O_20
REMARK                            x       y       z     vdW  Elec       q    Type
REMARK                         _______ _______ _______ _____ _____    ______ ____
ROOT
ATOM      1  O   UNL     1      85.355  58.150  43.172  0.00  0.00    -0.293 OA
ATOM      2  C   UNL     1      85.383  57.333  44.131  0.00  0.00    +0.156 C 
ENDROOT
BRANCH   2   3
ATOM      3  C   UNL     1      86.172  56.091  43.970  0.00  0.00    -0.019 C 
ATOM      4  C   UNL     1      85.628  54.865  43.911  0.00  0.00    -0.051 C 
BRANCH   4   5
ATOM      5  C   UNL     1      86.422  53.624  43.733  0.00  0.00    -0.025 A 
ATOM      6  C   UNL     1      86.873  53.293  42.444  0.00  0.00    -0.051 A 
ATOM      7  C   UNL     1      87.615  52.128  42.228  0.00  0.00    -0.020 A 
ATOM      8  C   UNL     1      87.907  51.272  43.292  0.00  0.00    +0.117 A 
ATOM      9  C   UNL     1      87.448  51.583  44.578  0.00  0.00    -0.020 A 
ATOM     10  C   UNL     1      86.707  52.747  44.800  0.00  0.00    -0.051 A 
BRANCH   8  11
ATOM     11  O   UNL     1      88.647  50.114  43.062  0.00  0.00    -0.507 OA
ATOM     12  H   UNL     1      88.352  49.294  43.407  0.00  0.00    +0.000 HD
ENDBRANCH   8  11
ENDBRANCH   4   5
ENDBRANCH   2   3
BRANCH   2  13
ATOM     13  C   UNL     1      84.589  57.653  45.370  0.00  0.00    +0.014 C 
BRANCH  13  14
ATOM     14  C   UNL     1      85.441  57.452  46.628  0.00  0.00    -0.021 C 
BRANCH  14  15
ATOM     15  C   UNL     1      85.005  56.216  47.367  0.00  0.00    -0.047 A 
ATOM     16  C   UNL     1      83.662  56.055  47.746  0.00  0.00    -0.055 A 
ATOM     17  C   UNL     1      83.250  54.893  48.404  0.00  0.00    -0.020 A 
ATOM     18  C   UNL     1      84.173  53.876  48.681  0.00  0.00    +0.117 A 
ATOM     19  C   UNL     1      85.508  54.025  48.293  0.00  0.00    -0.020 A 
ATOM     20  C   UNL     1      85.923  55.188  47.635  0.00  0.00    -0.055 A 
BRANCH  18  21
ATOM     21  O   UNL     1      83.774  52.712  49.335  0.00  0.00    -0.507 OA
ATOM     22  H   UNL     1      83.689  51.911  48.857  0.00  0.00    +0.000 HD
ENDBRANCH  18  21
ENDBRANCH  14  15
ENDBRANCH  13  14
ENDBRANCH   2  13
TORSDOF 7
ENDMDL
MODEL 4
REMARK VINA RESULT:    -7.246      1.855      6.497
REMARK INTER + INTRA:         -10.664
REMARK INTER:                  -9.711
REMARK INTRA:                  -0.953
REMARK UNBOUND:                -0.876
REMARK  Name = 
REMARK  7 active torsions:
REMARK  status: ('A' for Active; 'I' for Inactive)
REMARK    1  A    between atoms: C_2  and  C_3
REMARK    2  A    between atoms: C_2  and  C_12
REMARK    3  A    between atoms: C_4  and  C_5
REMARK    4  A    between atoms: C_8  and  O_11
REMARK    5  A    between atoms: C_12  and  C_13
REMARK    6  A    between atoms: C_13  and  C_14
REMARK    7  A    between atoms: C_17  and  O_20
REMARK                            x       y       z     vdW  Elec       q    Type
REMARK                         _______ _______ _______ _____ _____    ______ ____
ROOT
ATOM      1  O   UNL     1      87.184  50.358  48.437  0.00  0.00    -0.293 OA
ATOM      2  C   UNL     1      86.954  50.943  47.345  0.00  0.00    +0.156 C 
ENDROOT
BRANCH   2   3
ATOM      3  C   UNL     1      86.049  52.115  47.355  0.00  0.00    -0.019 C 
ATOM      4  C   UNL     1      86.468  53.380  47.201  0.00  0.00    -0.051 C 
BRANCH   4   5
ATOM      5  C   UNL     1      85.555  54.550  47.195  0.00  0.00    -0.025 A 
ATOM      6  C   UNL     1      85.962  55.718  46.527  0.00  0.00    -0.051 A 
ATOM      7  C   UNL     1      85.140  56.848  46.505  0.00  0.00    -0.020 A 
ATOM      8  C   UNL     1      83.905  56.833  47.159  0.00  0.00    +0.117 A 
ATOM      9  C   UNL     1      83.496  55.681  47.843  0.00  0.00    -0.020 A 
ATOM     10  C   UNL     1      84.315  54.548  47.867  0.00  0.00    -0.051 A 
BRANCH   8  11
ATOM     11  O   UNL     1      83.096  57.966  47.129  0.00  0.00    -0.507 OA
ATOM     12  H   UNL     1      82.239  57.939  47.507  0.00  0.00    +0.000 HD
ENDBRANCH   8  11
ENDBRANCH   4   5
ENDBRANCH   2   3
BRANCH   2  13
ATOM     13  C   UNL     1      87.588  50.400  46.092  0.00  0.00    +0.014 C 
BRANCH  13  14
ATOM     14  C   UNL     1      86.672  50.617  44.882  0.00  0.00    -0.021 C 
BRANCH  14  15
ATOM     15  C   UNL     1      87.395  51.376  43.803  0.00  0.00    -0.047 A 
ATOM     16  C   UNL     1      88.334  50.724  42.987  0.00  0.00    -0.055 A 
ATOM     17  C   UNL     1      88.982  51.420  41.963  0.00  0.00    -0.020 A 
ATOM     18  C   UNL     1      88.691  52.773  41.738  0.00  0.00    +0.117 A 
ATOM     19  C   UNL     1      87.746  53.422  42.539  0.00  0.00    -0.020 A 
ATOM     20  C   UNL     1      87.097  52.727  43.564  0.00  0.00    -0.055 A 
BRANCH  18  21
ATOM     21  O   UNL     1      89.330  53.477  40.720  0.00  0.00    -0.507 OA
ATOM     22  H   UNL     1      90.265  53.539  40.709  0.00  0.00    +0.000 HD
ENDBRANCH  18  21
ENDBRANCH  14  15
ENDBRANCH  13  14
ENDBRANCH   2  13
TORSDOF 7
ENDMDL
MODEL 5
REMARK VINA RESULT:    -7.102      1.815      6.663
REMARK INTER + INTRA:         -10.469
REMARK INTER:                  -9.529
REMARK INTRA:                  -0.941
REMARK UNBOUND:                -0.876
REMARK  Name = 
REMARK  7 active torsions:
REMARK  status: ('A' for Active; 'I' for Inactive)
REMARK    1  A    between atoms: C_2  and  C_3
REMARK    2  A    between atoms: C_2  and  C_12
REMARK    3  A    between atoms: C_4  and  C_5
REMARK    4  A    between atoms: C_8  and  O_11
REMARK    5  A    between atoms: C_12  and  C_13
REMARK    6  A    between atoms: C_13  and  C_14
REMARK    7  A    between atoms: C_17  and  O_20
REMARK                            x       y       z     vdW  Elec       q    Type
REMARK                         _______ _______ _______ _____ _____    ______ ____
ROOT
ATOM      1  O   UNL     1      87.927  50.290  46.892  0.00  0.00    -0.293 OA
ATOM      2  C   UNL     1      87.463  50.933  45.912  0.00  0.00    +0.156 C 
ENDROOT
BRANCH   2   3
ATOM      3  C   UNL     1      87.209  52.382  46.082  0.00  0.00    -0.019 C 
ATOM      4  C   UNL     1      86.394  53.092  45.287  0.00  0.00    -0.051 C 
BRANCH   4   5
ATOM      5  C   UNL     1      86.129  54.541  45.471  0.00  0.00    -0.025 A 
ATOM      6  C   UNL     1      85.480  54.963  46.645  0.00  0.00    -0.051 A 
ATOM      7  C   UNL     1      85.201  56.316  46.855  0.00  0.00    -0.020 A 
ATOM      8  C   UNL     1      85.554  57.266  45.893  0.00  0.00    +0.117 A 
ATOM      9  C   UNL     1      86.185  56.855  44.712  0.00  0.00    -0.020 A 
ATOM     10  C   UNL     1      86.467  55.503  44.498  0.00  0.00    -0.051 A 
BRANCH   8  11
ATOM     11  O   UNL     1      85.269  58.611  46.116  0.00  0.00    -0.507 OA
ATOM     12  H   UNL     1      84.701  58.859  46.819  0.00  0.00    +0.000 HD
ENDBRANCH   8  11
ENDBRANCH   4   5
ENDBRANCH   2   3
BRANCH   2  13
ATOM     13  C   UNL     1      87.166  50.185  44.639  0.00  0.00    +0.014 C 
BRANCH  13  14
ATOM     14  C   UNL     1      88.441  49.995  43.811  0.00  0.00    -0.021 C 
BRANCH  14  15
ATOM     15  C   UNL     1      88.384  50.826  42.558  0.00  0.00    -0.047 A 
ATOM     16  C   UNL     1      89.515  50.940  41.732  0.00  0.00    -0.055 A 
ATOM     17  C   UNL     1      89.453  51.685  40.551  0.00  0.00    -0.020 A 
ATOM     18  C   UNL     1      88.258  52.314  40.178  0.00  0.00    +0.117 A 
ATOM     19  C   UNL     1      87.126  52.191  40.989  0.00  0.00    -0.020 A 
ATOM     20  C   UNL     1      87.186  51.447  42.172  0.00  0.00    -0.055 A 
BRANCH  18  21
ATOM     21  O   UNL     1      88.183  53.058  39.002  0.00  0.00    -0.507 OA
ATOM     22  H   UNL     1      87.452  53.625  38.852  0.00  0.00    +0.000 HD
ENDBRANCH  18  21
ENDBRANCH  14  15
ENDBRANCH  13  14
ENDBRANCH   2  13
TORSDOF 7
ENDMDL
MODEL 6
REMARK VINA RESULT:    -6.971      4.077      5.521
REMARK INTER + INTRA:         -10.292
REMARK INTER:                  -9.522
REMARK INTRA:                  -0.770
REMARK UNBOUND:                -0.876
REMARK  Name = 
REMARK  7 active torsions:
REMARK  status: ('A' for Active; 'I' for Inactive)
REMARK    1  A    between atoms: C_2  and  C_3
REMARK    2  A    between atoms: C_2  and  C_12
REMARK    3  A    between atoms: C_4  and  C_5
REMARK    4  A    between atoms: C_8  and  O_11
REMARK    5  A    between atoms: C_12  and  C_13
REMARK    6  A    between atoms: C_13  and  C_14
REMARK    7  A    between atoms: C_17  and  O_20
REMARK                            x       y       z     vdW  Elec       q    Type
REMARK                         _______ _______ _______ _____ _____    ______ ____
ROOT
ATOM      1  O   UNL     1      84.497  55.702  42.349  0.00  0.00    -0.293 OA
ATOM      2  C   UNL     1      85.017  54.808  43.068  0.00  0.00    +0.156 C 
ENDROOT
BRANCH   2   3
ATOM      3  C   UNL     1      84.183  53.647  43.455  0.00  0.00    -0.019 C 
ATOM      4  C   UNL     1      83.690  52.760  42.578  0.00  0.00    -0.051 C 
BRANCH   4   5
ATOM      5  C   UNL     1      82.869  51.588  42.972  0.00  0.00    -0.025 A 
ATOM      6  C   UNL     1      81.568  51.471  42.451  0.00  0.00    -0.051 A 
ATOM      7  C   UNL     1      80.756  50.391  42.804  0.00  0.00    -0.020 A 
ATOM      8  C   UNL     1      81.224  49.417  43.690  0.00  0.00    +0.117 A 
ATOM      9  C   UNL     1      82.511  49.532  44.230  0.00  0.00    -0.020 A 
ATOM     10  C   UNL     1      83.329  50.611  43.879  0.00  0.00    -0.051 A 
BRANCH   8  11
ATOM     11  O   UNL     1      80.403  48.345  44.033  0.00  0.00    -0.507 OA
ATOM     12  H   UNL     1      79.934  47.884  43.366  0.00  0.00    +0.000 HD
ENDBRANCH   8  11
ENDBRANCH   4   5
ENDBRANCH   2   3
BRANCH   2  13
ATOM     13  C   UNL     1      86.444  54.986  43.515  0.00  0.00    +0.014 C 
BRANCH  13  14
ATOM     14  C   UNL     1      86.582  56.222  44.411  0.00  0.00    -0.021 C 
BRANCH  14  15
ATOM     15  C   UNL     1      85.775  56.053  45.670  0.00  0.00    -0.047 A 
ATOM     16  C   UNL     1      84.677  56.892  45.924  0.00  0.00    -0.055 A 
ATOM     17  C   UNL     1      83.908  56.714  47.077  0.00  0.00    -0.020 A 
ATOM     18  C   UNL     1      84.220  55.690  47.982  0.00  0.00    +0.117 A 
ATOM     19  C   UNL     1      85.303  54.844  47.725  0.00  0.00    -0.020 A 
ATOM     20  C   UNL     1      86.076  55.020  46.572  0.00  0.00    -0.055 A 
BRANCH  18  21
ATOM     21  O   UNL     1      83.460  55.503  49.134  0.00  0.00    -0.507 OA
ATOM     22  H   UNL     1      83.882  55.303  49.947  0.00  0.00    +0.000 HD
ENDBRANCH  18  21
ENDBRANCH  14  15
ENDBRANCH  13  14
ENDBRANCH   2  13
TORSDOF 7
ENDMDL
MODEL 7
REMARK VINA RESULT:    -6.889      2.638      6.344
REMARK INTER + INTRA:         -10.181
REMARK INTER:                  -9.004
REMARK INTRA:                  -1.177
REMARK UNBOUND:                -0.876
REMARK  Name = 
REMARK  7 active torsions:
REMARK  status: ('A' for Active; 'I' for Inactive)
REMARK    1  A    between atoms: C_2  and  C_3
REMARK    2  A    between atoms: C_2  and  C_12
REMARK    3  A    between atoms: C_4  and  C_5
REMARK    4  A    between atoms: C_8  and  O_11
REMARK    5  A    between atoms: C_12  and  C_13
REMARK    6  A    between atoms: C_13  and  C_14
REMARK    7  A    between atoms: C_17  and  O_20
REMARK                            x       y       z     vdW  Elec       q    Type
REMARK                         _______ _______ _______ _____ _____    ______ ____
ROOT
ATOM      1  O   UNL     1      87.971  50.426  48.150  0.00  0.00    -0.293 OA
ATOM      2  C   UNL     1      87.292  50.814  47.163  0.00  0.00    +0.156 C 
ENDROOT
BRANCH   2   3
ATOM      3  C   UNL     1      86.382  51.967  47.348  0.00  0.00    -0.019 C 
ATOM      4  C   UNL     1      86.526  53.139  46.710  0.00  0.00    -0.051 C 
BRANCH   4   5
ATOM      5  C   UNL     1      85.601  54.286  46.886  0.00  0.00    -0.025 A 
ATOM      6  C   UNL     1      85.921  55.509  46.271  0.00  0.00    -0.051 A 
ATOM      7  C   UNL     1      85.085  56.619  46.419  0.00  0.00    -0.020 A 
ATOM      8  C   UNL     1      83.924  56.529  47.191  0.00  0.00    +0.117 A 
ATOM      9  C   UNL     1      83.604  55.320  47.822  0.00  0.00    -0.020 A 
ATOM     10  C   UNL     1      84.436  54.206  47.677  0.00  0.00    -0.051 A 
BRANCH   8  11
ATOM     11  O   UNL     1      83.100  57.643  47.330  0.00  0.00    -0.507 OA
ATOM     12  H   UNL     1      83.192  58.368  46.744  0.00  0.00    +0.000 HD
ENDBRANCH   8  11
ENDBRANCH   4   5
ENDBRANCH   2   3
BRANCH   2  13
ATOM     13  C   UNL     1      87.423  50.065  45.863  0.00  0.00    +0.014 C 
BRANCH  13  14
ATOM     14  C   UNL     1      86.065  49.516  45.413  0.00  0.00    -0.021 C 
BRANCH  14  15
ATOM     15  C   UNL     1      85.460  50.404  44.360  0.00  0.00    -0.047 A 
ATOM     16  C   UNL     1      84.173  50.938  44.540  0.00  0.00    -0.055 A 
ATOM     17  C   UNL     1      83.623  51.790  43.578  0.00  0.00    -0.020 A 
ATOM     18  C   UNL     1      84.357  52.124  42.431  0.00  0.00    +0.117 A 
ATOM     19  C   UNL     1      85.644  51.606  42.256  0.00  0.00    -0.020 A 
ATOM     20  C   UNL     1      86.196  50.753  43.217  0.00  0.00    -0.055 A 
BRANCH  18  21
ATOM     21  O   UNL     1      83.820  52.973  41.466  0.00  0.00    -0.507 OA
ATOM     22  H   UNL     1      83.012  52.752  41.046  0.00  0.00    +0.000 HD
ENDBRANCH  18  21
ENDBRANCH  14  15
ENDBRANCH  13  14
ENDBRANCH   2  13
TORSDOF 7
ENDMDL
MODEL 8
REMARK VINA RESULT:    -6.885      3.476      4.738
REMARK INTER + INTRA:         -10.175
REMARK INTER:                  -9.172
REMARK INTRA:                  -1.003
REMARK UNBOUND:                -0.876
REMARK  Name = 
REMARK  7 active torsions:
REMARK  status: ('A' for Active; 'I' for Inactive)
REMARK    1  A    between atoms: C_2  and  C_3
REMARK    2  A    between atoms: C_2  and  C_12
REMARK    3  A    between atoms: C_4  and  C_5
REMARK    4  A    between atoms: C_8  and  O_11
REMARK    5  A    between atoms: C_12  and  C_13
REMARK    6  A    between atoms: C_13  and  C_14
REMARK    7  A    between atoms: C_17  and  O_20
REMARK                            x       y       z     vdW  Elec       q    Type
REMARK                         _______ _______ _______ _____ _____    ______ ____
ROOT
ATOM      1  O   UNL     1      86.229  50.625  45.363  0.00  0.00    -0.293 OA
ATOM      2  C   UNL     1      86.380  51.864  45.186  0.00  0.00    +0.156 C 
ENDROOT
BRANCH   2   3
ATOM      3  C   UNL     1      85.968  52.441  43.887  0.00  0.00    -0.019 C 
ATOM      4  C   UNL     1      84.766  52.996  43.666  0.00  0.00    -0.051 C 
BRANCH   4   5
ATOM      5  C   UNL     1      84.364  53.589  42.366  0.00  0.00    -0.025 A 
ATOM      6  C   UNL     1      85.252  53.496  41.281  0.00  0.00    -0.051 A 
ATOM      7  C   UNL     1      84.920  54.050  40.041  0.00  0.00    -0.020 A 
ATOM      8  C   UNL     1      83.703  54.715  39.870  0.00  0.00    +0.117 A 
ATOM      9  C   UNL     1      82.817  54.829  40.950  0.00  0.00    -0.020 A 
ATOM     10  C   UNL     1      83.145  54.275  42.192  0.00  0.00    -0.051 A 
BRANCH   8  11
ATOM     11  O   UNL     1      83.384  55.262  38.630  0.00  0.00    -0.507 OA
ATOM     12  H   UNL     1      83.708  56.109  38.396  0.00  0.00    +0.000 HD
ENDBRANCH   8  11
ENDBRANCH   4   5
ENDBRANCH   2   3
BRANCH   2  13
ATOM     13  C   UNL     1      86.996  52.677  46.294  0.00  0.00    +0.014 C 
BRANCH  13  14
ATOM     14  C   UNL     1      86.035  52.794  47.481  0.00  0.00    -0.021 C 
BRANCH  14  15
ATOM     15  C   UNL     1      85.253  54.077  47.402  0.00  0.00    -0.047 A 
ATOM     16  C   UNL     1      84.060  54.225  48.129  0.00  0.00    -0.055 A 
ATOM     17  C   UNL     1      83.351  55.429  48.082  0.00  0.00    -0.020 A 
ATOM     18  C   UNL     1      83.833  56.500  47.316  0.00  0.00    +0.117 A 
ATOM     19  C   UNL     1      85.027  56.362  46.603  0.00  0.00    -0.020 A 
ATOM     20  C   UNL     1      85.738  55.158  46.648  0.00  0.00    -0.055 A 
BRANCH  18  21
ATOM     21  O   UNL     1      83.135  57.705  47.262  0.00  0.00    -0.507 OA
ATOM     22  H   UNL     1      83.602  58.517  47.281  0.00  0.00    +0.000 HD
ENDBRANCH  18  21
ENDBRANCH  14  15
ENDBRANCH  13  14
ENDBRANCH   2  13
TORSDOF 7
ENDMDL
MODEL 9
REMARK VINA RESULT:    -6.803      4.150      6.550
REMARK INTER + INTRA:         -10.065
REMARK INTER:                  -9.190
REMARK INTRA:                  -0.876
REMARK UNBOUND:                -0.876
REMARK  Name = 
REMARK  7 active torsions:
REMARK  status: ('A' for Active; 'I' for Inactive)
REMARK    1  A    between atoms: C_2  and  C_3
REMARK    2  A    between atoms: C_2  and  C_12
REMARK    3  A    between atoms: C_4  and  C_5
REMARK    4  A    between atoms: C_8  and  O_11
REMARK    5  A    between atoms: C_12  and  C_13
REMARK    6  A    between atoms: C_13  and  C_14
REMARK    7  A    between atoms: C_17  and  O_20
REMARK                            x       y       z     vdW  Elec       q    Type
REMARK                         _______ _______ _______ _____ _____    ______ ____
ROOT
ATOM      1  O   UNL     1      86.967  50.391  46.944  0.00  0.00    -0.293 OA
ATOM      2  C   UNL     1      86.665  50.675  45.754  0.00  0.00    +0.156 C 
ENDROOT
BRANCH   2   3
ATOM      3  C   UNL     1      85.287  50.389  45.294  0.00  0.00    -0.019 C 
ATOM      4  C   UNL     1      84.622  51.156  44.416  0.00  0.00    -0.051 C 
BRANCH   4   5
ATOM      5  C   UNL     1      83.247  50.856  43.944  0.00  0.00    -0.025 A 
ATOM      6  C   UNL     1      82.638  49.660  44.363  0.00  0.00    -0.051 A 
ATOM      7  C   UNL     1      81.349  49.332  43.934  0.00  0.00    -0.020 A 
ATOM      8  C   UNL     1      80.654  50.185  43.073  0.00  0.00    +0.117 A 
ATOM      9  C   UNL     1      81.258  51.371  42.636  0.00  0.00    -0.020 A 
ATOM     10  C   UNL     1      82.547  51.704  43.062  0.00  0.00    -0.051 A 
BRANCH   8  11
ATOM     11  O   UNL     1      79.370  49.845  42.654  0.00  0.00    -0.507 OA
ATOM     12  H   UNL     1      79.206  49.664  41.750  0.00  0.00    +0.000 HD
ENDBRANCH   8  11
ENDBRANCH   4   5
ENDBRANCH   2   3
BRANCH   2  13
ATOM     13  C   UNL     1      87.730  51.259  44.864  0.00  0.00    +0.014 C 
BRANCH  13  14
ATOM     14  C   UNL     1      88.098  50.281  43.743  0.00  0.00    -0.021 C 
BRANCH  14  15
ATOM     15  C   UNL     1      88.166  50.996  42.421  0.00  0.00    -0.047 A 
ATOM     16  C   UNL     1      87.220  51.985  42.102  0.00  0.00    -0.055 A 
ATOM     17  C   UNL     1      87.303  52.672  40.887  0.00  0.00    -0.020 A 
ATOM     18  C   UNL     1      88.336  52.386  39.985  0.00  0.00    +0.117 A 
ATOM     19  C   UNL     1      89.288  51.412  40.305  0.00  0.00    -0.020 A 
ATOM     20  C   UNL     1      89.207  50.723  41.519  0.00  0.00    -0.055 A 
BRANCH  18  21
ATOM     21  O   UNL     1      88.429  53.065  38.772  0.00  0.00    -0.507 OA
ATOM     22  H   UNL     1      88.805  52.642  38.026  0.00  0.00    +0.000 HD
ENDBRANCH  18  21
ENDBRANCH  14  15
ENDBRANCH  13  14
ENDBRANCH   2  13
TORSDOF 7
ENDMDL
