MODEL 1
REMARK VINA RESULT:    -9.123      0.000      0.000
REMARK INTER + INTRA:         -18.216
REMARK INTER:                 -14.644
REMARK INTRA:                  -3.573
REMARK UNBOUND:                -3.227
REMARK  Name = 
REMARK  14 active torsions:
REMARK  status: ('A' for Active; 'I' for Inactive)
REMARK    1  A    between atoms: C_1  and  O_2
REMARK    2  A    between atoms: O_2  and  C_3
REMARK    3  A    between atoms: C_4  and  C_5
REMARK    4  A    between atoms: C_5  and  C_7
REMARK    5  A    between atoms: C_7  and  C_8
REMARK    6  A    between atoms: C_8  and  C_9
REMARK    7  A    between atoms: C_15  and  O_16
REMARK    8  A    between atoms: C_17  and  C_29
REMARK    9  A    between atoms: C_18  and  O_28
REMARK   10  A    between atoms: C_19  and  C_20
REMARK   11  A    between atoms: C_20  and  C_21
REMARK   12  A    between atoms: C_26  and  O_27
REMARK   13  A    between atoms: C_29  and  C_30
REMARK   14  A    between atoms: C_35  and  O_36
REMARK                            x       y       z     vdW  Elec       q    Type
REMARK                         _______ _______ _______ _____ _____    ______ ____
ROOT
ATOM      1  C   UNL     1      86.631  51.506  43.282  0.00  0.00    +0.141 A 
ATOM      2  C   UNL     1      87.066  51.186  44.590  0.00  0.00    +0.101 A 
ATOM      3  C   UNL     1      87.191  52.201  45.562  0.00  0.00    +0.138 A 
ATOM      4  C   UNL     1      86.839  53.533  45.254  0.00  0.00    +0.041 A 
ATOM      5  C   UNL     1      86.463  53.855  43.929  0.00  0.00    +0.131 A 
ATOM      6  C   UNL     1      86.314  52.843  42.961  0.00  0.00    +0.041 A 
ENDROOT
BRANCH   1   8
ATOM      7  C   UNL     1      87.564  49.994  41.502  0.00  0.00    +0.079 C 
ATOM      8  O   UNL     1      86.495  50.537  42.271  0.00  0.00    -0.494 OA
ENDBRANCH   1   8
BRANCH   2   9
ATOM      9  C   UNL     1      87.280  49.786  44.994  0.00  0.00    +0.171 C 
ATOM     10  O   UNL     1      88.457  49.334  45.053  0.00  0.00    -0.292 OA
BRANCH   9  11
ATOM     11  C   UNL     1      86.104  48.953  45.427  0.00  0.00    +0.015 C 
BRANCH  11  12
ATOM     12  C   UNL     1      85.620  47.990  44.335  0.00  0.00    -0.021 C 
BRANCH  12  13
ATOM     13  C   UNL     1      84.165  48.226  44.031  0.00  0.00    -0.047 A 
ATOM     14  C   UNL     1      83.352  47.169  43.588  0.00  0.00    -0.059 A 
ATOM     15  C   UNL     1      81.993  47.382  43.340  0.00  0.00    -0.062 A 
ATOM     16  C   UNL     1      81.434  48.647  43.543  0.00  0.00    -0.062 A 
ATOM     17  C   UNL     1      82.232  49.700  43.997  0.00  0.00    -0.062 A 
ATOM     18  C   UNL     1      83.593  49.491  44.246  0.00  0.00    -0.059 A 
ENDBRANCH  12  13
ENDBRANCH  11  12
ENDBRANCH   9  11
ENDBRANCH   2   9
BRANCH   3  19
ATOM     19  O   UNL     1      87.648  51.903  46.852  0.00  0.00    -0.506 OA
ATOM     20  H   UNL     1      87.803  51.013  47.100  0.00  0.00    +0.000 HD
ENDBRANCH   3  19
BRANCH   5  21
ATOM     21  O   UNL     1      86.250  55.179  43.536  0.00  0.00    -0.506 OA
ATOM     22  H   UNL     1      85.814  55.363  42.726  0.00  0.00    +0.000 HD
ENDBRANCH   5  21
BRANCH   6  23
ATOM     23  C   UNL     1      85.876  53.213  41.555  0.00  0.00    +0.008 C 
BRANCH  23  24
ATOM     24  C   UNL     1      84.385  53.480  41.497  0.00  0.00    -0.001 A 
ATOM     25  C   UNL     1      83.515  52.400  41.752  0.00  0.00    -0.055 A 
ATOM     26  C   UNL     1      82.131  52.566  41.695  0.00  0.00    -0.061 A 
ATOM     27  C   UNL     1      81.588  53.810  41.387  0.00  0.00    -0.058 A 
ATOM     28  C   UNL     1      82.430  54.896  41.139  0.00  0.00    -0.020 A 
ATOM     29  C   UNL     1      83.822  54.752  41.193  0.00  0.00    +0.120 A 
BRANCH  29  30
ATOM     30  O   UNL     1      84.588  55.893  40.941  0.00  0.00    -0.506 OA
ATOM     31  H   UNL     1      84.467  56.373  40.146  0.00  0.00    +0.000 HD
ENDBRANCH  29  30
ENDBRANCH  23  24
ENDBRANCH   6  23
BRANCH   4  32
ATOM     32  C   UNL     1      86.868  54.598  46.346  0.00  0.00    +0.008 C 
BRANCH  32  33
ATOM     33  C   UNL     1      85.525  54.782  47.032  0.00  0.00    -0.001 A 
ATOM     34  C   UNL     1      85.109  53.826  47.981  0.00  0.00    -0.055 A 
ATOM     35  C   UNL     1      83.904  53.978  48.668  0.00  0.00    -0.061 A 
ATOM     36  C   UNL     1      83.085  55.076  48.409  0.00  0.00    -0.058 A 
ATOM     37  C   UNL     1      83.457  56.010  47.444  0.00  0.00    -0.020 A 
ATOM     38  C   UNL     1      84.655  55.863  46.733  0.00  0.00    +0.120 A 
BRANCH  38  39
ATOM     39  O   UNL     1      84.932  56.793  45.730  0.00  0.00    -0.506 OA
ATOM     40  H   UNL     1      85.159  56.500  44.870  0.00  0.00    +0.000 HD
ENDBRANCH  38  39
ENDBRANCH  32  33
ENDBRANCH   4  32
TORSDOF 13
ENDMDL
MODEL 2
REMARK VINA RESULT:    -8.807      2.619      6.934
REMARK INTER + INTRA:         -17.698
REMARK INTER:                 -14.059
REMARK INTRA:                  -3.638
REMARK UNBOUND:                -3.227
REMARK  Name = 
REMARK  14 active torsions:
REMARK  status: ('A' for Active; 'I' for Inactive)
REMARK    1  A    between atoms: C_1  and  O_2
REMARK    2  A    between atoms: O_2  and  C_3
REMARK    3  A    between atoms: C_4  and  C_5
REMARK    4  A    between atoms: C_5  and  C_7
REMARK    5  A    between atoms: C_7  and  C_8
REMARK    6  A    between atoms: C_8  and  C_9
REMARK    7  A    between atoms: C_15  and  O_16
REMARK    8  A    between atoms: C_17  and  C_29
REMARK    9  A    between atoms: C_18  and  O_28
REMARK   10  A    between atoms: C_19  and  C_20
REMARK   11  A    between atoms: C_20  and  C_21
REMARK   12  A    between atoms: C_26  and  O_27
REMARK   13  A    between atoms: C_29  and  C_30
REMARK   14  A    between atoms: C_35  and  O_36
REMARK                            x       y       z     vdW  Elec       q    Type
REMARK                         _______ _______ _______ _____ _____    ______ ____
ROOT
ATOM      1  C   UNL     1      83.120  51.347  43.586  0.00  0.00    +0.141 A 
ATOM      2  C   UNL     1      84.268  51.858  44.239  0.00  0.00    +0.101 A 
ATOM      3  C   UNL     1      85.228  50.974  44.775  0.00  0.00    +0.138 A 
ATOM      4  C   UNL     1      85.078  49.578  44.626  0.00  0.00    +0.041 A 
ATOM      5  C   UNL     1      83.900  49.074  44.027  0.00  0.00    +0.131 A 
ATOM      6  C   UNL     1      82.950  49.951  43.468  0.00  0.00    +0.041 A 
ENDROOT
BRANCH   1   8
ATOM      7  C   UNL     1      82.070  52.610  41.682  0.00  0.00    +0.079 C 
ATOM      8  O   UNL     1      82.127  52.180  43.038  0.00  0.00    -0.494 OA
ENDBRANCH   1   8
BRANCH   2   9
ATOM      9  C   UNL     1      84.540  53.305  44.265  0.00  0.00    +0.171 C 
ATOM     10  O   UNL     1      84.300  53.959  45.317  0.00  0.00    -0.292 OA
BRANCH   9  11
ATOM     11  C   UNL     1      85.195  53.955  43.076  0.00  0.00    +0.015 C 
BRANCH  11  12
ATOM     12  C   UNL     1      86.713  54.105  43.238  0.00  0.00    -0.021 C 
BRANCH  12  13
ATOM     13  C   UNL     1      87.436  53.118  42.361  0.00  0.00    -0.047 A 
ATOM     14  C   UNL     1      86.740  52.051  41.770  0.00  0.00    -0.059 A 
ATOM     15  C   UNL     1      87.406  51.157  40.927  0.00  0.00    -0.062 A 
ATOM     16  C   UNL     1      88.767  51.327  40.660  0.00  0.00    -0.062 A 
ATOM     17  C   UNL     1      89.464  52.394  41.232  0.00  0.00    -0.062 A 
ATOM     18  C   UNL     1      88.801  53.292  42.077  0.00  0.00    -0.059 A 
ENDBRANCH  12  13
ENDBRANCH  11  12
ENDBRANCH   9  11
ENDBRANCH   2   9
BRANCH   3  19
ATOM     19  O   UNL     1      86.353  51.466  45.449  0.00  0.00    -0.506 OA
ATOM     20  H   UNL     1      86.593  52.368  45.364  0.00  0.00    +0.000 HD
ENDBRANCH   3  19
BRANCH   5  21
ATOM     21  O   UNL     1      83.633  47.703  43.990  0.00  0.00    -0.506 OA
ATOM     22  H   UNL     1      84.251  47.117  43.598  0.00  0.00    +0.000 HD
ENDBRANCH   5  21
BRANCH   6  23
ATOM     23  C   UNL     1      81.710  49.381  42.801  0.00  0.00    +0.008 C 
BRANCH  23  24
ATOM     24  C   UNL     1      80.514  49.433  43.730  0.00  0.00    -0.001 A 
ATOM     25  C   UNL     1      79.558  50.446  43.513  0.00  0.00    -0.055 A 
ATOM     26  C   UNL     1      78.442  50.569  44.341  0.00  0.00    -0.061 A 
ATOM     27  C   UNL     1      78.256  49.682  45.398  0.00  0.00    -0.058 A 
ATOM     28  C   UNL     1      79.185  48.666  45.628  0.00  0.00    -0.020 A 
ATOM     29  C   UNL     1      80.311  48.524  44.806  0.00  0.00    +0.120 A 
BRANCH  29  30
ATOM     30  O   UNL     1      81.183  47.473  45.102  0.00  0.00    -0.506 OA
ATOM     31  H   UNL     1      82.110  47.603  45.045  0.00  0.00    +0.000 HD
ENDBRANCH  29  30
ENDBRANCH  23  24
ENDBRANCH   6  23
BRANCH   4  32
ATOM     32  C   UNL     1      86.180  48.641  45.109  0.00  0.00    +0.008 C 
BRANCH  32  33
ATOM     33  C   UNL     1      87.280  48.438  44.082  0.00  0.00    -0.001 A 
ATOM     34  C   UNL     1      88.424  49.260  44.138  0.00  0.00    -0.055 A 
ATOM     35  C   UNL     1      89.479  49.080  43.242  0.00  0.00    -0.061 A 
ATOM     36  C   UNL     1      89.404  48.089  42.264  0.00  0.00    -0.058 A 
ATOM     37  C   UNL     1      88.263  47.294  42.164  0.00  0.00    -0.020 A 
ATOM     38  C   UNL     1      87.189  47.474  43.044  0.00  0.00    +0.120 A 
BRANCH  38  39
ATOM     39  O   UNL     1      86.049  46.695  42.841  0.00  0.00    -0.506 OA
ATOM     40  H   UNL     1      85.618  46.703  42.010  0.00  0.00    +0.000 HD
ENDBRANCH  38  39
ENDBRANCH  32  33
ENDBRANCH   4  32
TORSDOF 13
ENDMDL
MODEL 3
REMARK VINA RESULT:    -8.762      1.314      4.452
REMARK INTER + INTRA:         -17.624
REMARK INTER:                 -14.230
REMARK INTRA:                  -3.394
REMARK UNBOUND:                -3.227
REMARK  Name = 
REMARK  14 active torsions:
REMARK  status: ('A' for Active; 'I' for Inactive)
REMARK    1  A    between atoms: C_1  and  O_2
REMARK    2  A    between atoms: O_2  and  C_3
REMARK    3  A    between atoms: C_4  and  C_5
REMARK    4  A    between atoms: C_5  and  C_7
REMARK    5  A    between atoms: C_7  and  C_8
REMARK    6  A    between atoms: C_8  and  C_9
REMARK    7  A    between atoms: C_15  and  O_16
REMARK    8  A    between atoms: C_17  and  C_29
REMARK    9  A    between atoms: C_18  and  O_28
REMARK   10  A    between atoms: C_19  and  C_20
REMARK   11  A    between atoms: C_20  and  C_21
REMARK   12  A    between atoms: C_26  and  O_27
REMARK   13  A    between atoms: C_29  and  C_30
REMARK   14  A    between atoms: C_35  and  O_36
REMARK                            x       y       z     vdW  Elec       q    Type
REMARK                         _______ _______ _______ _____ _____    ______ ____
ROOT
ATOM      1  C   UNL     1      86.350  52.696  42.502  0.00  0.00    +0.141 A 
ATOM      2  C   UNL     1      85.490  53.809  42.662  0.00  0.00    +0.101 A 
ATOM      3  C   UNL     1      85.468  54.515  43.884  0.00  0.00    +0.138 A 
ATOM      4  C   UNL     1      86.333  54.149  44.937  0.00  0.00    +0.041 A 
ATOM      5  C   UNL     1      87.146  53.000  44.791  0.00  0.00    +0.131 A 
ATOM      6  C   UNL     1      87.190  52.306  43.566  0.00  0.00    +0.041 A 
ENDROOT
BRANCH   1   8
ATOM      7  C   UNL     1      87.259  52.234  40.203  0.00  0.00    +0.079 C 
ATOM      8  O   UNL     1      86.409  51.951  41.309  0.00  0.00    -0.494 OA
ENDBRANCH   1   8
BRANCH   2   9
ATOM      9  C   UNL     1      84.698  54.320  41.531  0.00  0.00    +0.171 C 
ATOM     10  O   UNL     1      85.057  55.386  40.958  0.00  0.00    -0.292 OA
BRANCH   9  11
ATOM     11  C   UNL     1      83.538  53.511  41.015  0.00  0.00    +0.015 C 
BRANCH  11  12
ATOM     12  C   UNL     1      82.385  53.411  42.021  0.00  0.00    -0.021 C 
BRANCH  12  13
ATOM     13  C   UNL     1      82.314  52.025  42.604  0.00  0.00    -0.047 A 
ATOM     14  C   UNL     1      83.199  51.640  43.626  0.00  0.00    -0.059 A 
ATOM     15  C   UNL     1      83.108  50.365  44.192  0.00  0.00    -0.062 A 
ATOM     16  C   UNL     1      82.128  49.471  43.751  0.00  0.00    -0.062 A 
ATOM     17  C   UNL     1      81.234  49.852  42.746  0.00  0.00    -0.062 A 
ATOM     18  C   UNL     1      81.322  51.127  42.177  0.00  0.00    -0.059 A 
ENDBRANCH  12  13
ENDBRANCH  11  12
ENDBRANCH   9  11
ENDBRANCH   2   9
BRANCH   3  19
ATOM     19  O   UNL     1      84.601  55.600  44.065  0.00  0.00    -0.506 OA
ATOM     20  H   UNL     1      84.605  56.311  43.456  0.00  0.00    +0.000 HD
ENDBRANCH   3  19
BRANCH   5  21
ATOM     21  O   UNL     1      87.907  52.509  45.854  0.00  0.00    -0.506 OA
ATOM     22  H   UNL     1      88.492  53.080  46.314  0.00  0.00    +0.000 HD
ENDBRANCH   5  21
BRANCH   6  23
ATOM     23  C   UNL     1      88.097  51.096  43.427  0.00  0.00    +0.008 C 
BRANCH  23  24
ATOM     24  C   UNL     1      87.319  49.805  43.593  0.00  0.00    -0.001 A 
ATOM     25  C   UNL     1      86.714  49.560  44.843  0.00  0.00    -0.055 A 
ATOM     26  C   UNL     1      86.001  48.384  45.076  0.00  0.00    -0.061 A 
ATOM     27  C   UNL     1      85.873  47.433  44.068  0.00  0.00    -0.058 A 
ATOM     28  C   UNL     1      86.456  47.657  42.819  0.00  0.00    -0.020 A 
ATOM     29  C   UNL     1      87.175  48.833  42.564  0.00  0.00    +0.120 A 
BRANCH  29  30
ATOM     30  O   UNL     1      87.716  48.980  41.284  0.00  0.00    -0.506 OA
ATOM     31  H   UNL     1      87.926  49.833  40.959  0.00  0.00    +0.000 HD
ENDBRANCH  29  30
ENDBRANCH  23  24
ENDBRANCH   6  23
BRANCH   4  32
ATOM     32  C   UNL     1      86.381  54.991  46.207  0.00  0.00    +0.008 C 
BRANCH  32  33
ATOM     33  C   UNL     1      85.317  54.601  47.219  0.00  0.00    -0.001 A 
ATOM     34  C   UNL     1      85.448  53.377  47.907  0.00  0.00    -0.055 A 
ATOM     35  C   UNL     1      84.519  52.999  48.877  0.00  0.00    -0.061 A 
ATOM     36  C   UNL     1      83.434  53.825  49.165  0.00  0.00    -0.058 A 
ATOM     37  C   UNL     1      83.261  55.018  48.466  0.00  0.00    -0.020 A 
ATOM     38  C   UNL     1      84.175  55.405  47.478  0.00  0.00    +0.120 A 
BRANCH  38  39
ATOM     39  O   UNL     1      83.904  56.573  46.765  0.00  0.00    -0.506 OA
ATOM     40  H   UNL     1      83.277  57.186  47.093  0.00  0.00    +0.000 HD
ENDBRANCH  38  39
ENDBRANCH  32  33
ENDBRANCH   4  32
TORSDOF 13
ENDMDL
MODEL 4
REMARK VINA RESULT:    -8.695      1.664      6.287
REMARK INTER + INTRA:         -17.514
REMARK INTER:                 -15.064
REMARK INTRA:                  -2.449
REMARK UNBOUND:                -3.227
REMARK  Name = 
REMARK  14 active torsions:
REMARK  status: ('A' for Active; 'I' for Inactive)
REMARK    1  A    between atoms: C_1  and  O_2
REMARK    2  A    between atoms: O_2  and  C_3
REMARK    3  A    between atoms: C_4  and  C_5
REMARK    4  A    between atoms: C_5  and  C_7
REMARK    5  A    between atoms: C_7  and  C_8
REMARK    6  A    between atoms: C_8  and  C_9
REMARK    7  A    between atoms: C_15  and  O_16
REMARK    8  A    between atoms: C_17  and  C_29
REMARK    9  A    between atoms: C_18  and  O_28
REMARK   10  A    between atoms: C_19  and  C_20
REMARK   11  A    between atoms: C_20  and  C_21
REMARK   12  A    between atoms: C_26  and  O_27
REMARK   13  A    between atoms: C_29  and  C_30
REMARK   14  A    between atoms: C_35  and  O_36
REMARK                            x       y       z     vdW  Elec       q    Type
REMARK                         _______ _______ _______ _____ _____    ______ ____
ROOT
ATOM      1  C   UNL     1      86.184  53.424  44.261  0.00  0.00    +0.141 A 
ATOM      2  C   UNL     1      86.025  52.618  43.108  0.00  0.00    +0.101 A 
ATOM      3  C   UNL     1      86.402  51.259  43.138  0.00  0.00    +0.138 A 
ATOM      4  C   UNL     1      86.896  50.680  44.328  0.00  0.00    +0.041 A 
ATOM      5  C   UNL     1      87.108  51.506  45.457  0.00  0.00    +0.131 A 
ATOM      6  C   UNL     1      86.711  52.857  45.440  0.00  0.00    +0.041 A 
ENDROOT
BRANCH   1   8
ATOM      7  C   UNL     1      86.692  55.866  43.935  0.00  0.00    +0.079 C 
ATOM      8  O   UNL     1      85.831  54.787  44.286  0.00  0.00    -0.494 OA
ENDBRANCH   1   8
BRANCH   2   9
ATOM      9  C   UNL     1      85.359  53.144  41.905  0.00  0.00    +0.171 C 
ATOM     10  O   UNL     1      86.019  53.847  41.091  0.00  0.00    -0.292 OA
BRANCH   9  11
ATOM     11  C   UNL     1      83.936  52.748  41.615  0.00  0.00    +0.015 C 
BRANCH  11  12
ATOM     12  C   UNL     1      83.009  52.922  42.825  0.00  0.00    -0.021 C 
BRANCH  12  13
ATOM     13  C   UNL     1      82.404  51.602  43.219  0.00  0.00    -0.047 A 
ATOM     14  C   UNL     1      81.139  51.228  42.735  0.00  0.00    -0.059 A 
ATOM     15  C   UNL     1      80.594  49.986  43.073  0.00  0.00    -0.062 A 
ATOM     16  C   UNL     1      81.311  49.104  43.887  0.00  0.00    -0.062 A 
ATOM     17  C   UNL     1      82.577  49.462  44.360  0.00  0.00    -0.062 A 
ATOM     18  C   UNL     1      83.125  50.704  44.024  0.00  0.00    -0.059 A 
ENDBRANCH  12  13
ENDBRANCH  11  12
ENDBRANCH   9  11
ENDBRANCH   2   9
BRANCH   3  19
ATOM     19  O   UNL     1      86.277  50.457  41.997  0.00  0.00    -0.506 OA
ATOM     20  H   UNL     1      87.025  50.007  41.656  0.00  0.00    +0.000 HD
ENDBRANCH   3  19
BRANCH   5  21
ATOM     21  O   UNL     1      87.733  51.017  46.607  0.00  0.00    -0.506 OA
ATOM     22  H   UNL     1      87.548  51.404  47.441  0.00  0.00    +0.000 HD
ENDBRANCH   5  21
BRANCH   6  23
ATOM     23  C   UNL     1      86.920  53.711  46.678  0.00  0.00    +0.008 C 
BRANCH  23  24
ATOM     24  C   UNL     1      85.597  54.071  47.326  0.00  0.00    -0.001 A 
ATOM     25  C   UNL     1      84.785  53.016  47.787  0.00  0.00    -0.055 A 
ATOM     26  C   UNL     1      83.545  53.269  48.374  0.00  0.00    -0.061 A 
ATOM     27  C   UNL     1      83.094  54.579  48.515  0.00  0.00    -0.058 A 
ATOM     28  C   UNL     1      83.885  55.641  48.074  0.00  0.00    -0.020 A 
ATOM     29  C   UNL     1      85.134  55.408  47.483  0.00  0.00    +0.120 A 
BRANCH  29  30
ATOM     30  O   UNL     1      85.864  56.529  47.079  0.00  0.00    -0.506 OA
ATOM     31  H   UNL     1      86.262  57.085  47.721  0.00  0.00    +0.000 HD
ENDBRANCH  29  30
ENDBRANCH  23  24
ENDBRANCH   6  23
BRANCH   4  32
ATOM     32  C   UNL     1      87.191  49.185  44.378  0.00  0.00    +0.008 C 
BRANCH  32  33
ATOM     33  C   UNL     1      88.323  48.770  43.453  0.00  0.00    -0.001 A 
ATOM     34  C   UNL     1      89.597  49.344  43.638  0.00  0.00    -0.055 A 
ATOM     35  C   UNL     1      90.677  48.960  42.841  0.00  0.00    -0.061 A 
ATOM     36  C   UNL     1      90.500  48.012  41.835  0.00  0.00    -0.058 A 
ATOM     37  C   UNL     1      89.239  47.465  41.607  0.00  0.00    -0.020 A 
ATOM     38  C   UNL     1      88.141  47.852  42.387  0.00  0.00    +0.120 A 
BRANCH  38  39
ATOM     39  O   UNL     1      86.894  47.322  42.057  0.00  0.00    -0.506 OA
ATOM     40  H   UNL     1      86.800  46.401  41.912  0.00  0.00    +0.000 HD
ENDBRANCH  38  39
ENDBRANCH  32  33
ENDBRANCH   4  32
TORSDOF 13
ENDMDL
MODEL 5
REMARK VINA RESULT:    -8.688      1.272      2.158
REMARK INTER + INTRA:         -17.502
REMARK INTER:                 -14.683
REMARK INTRA:                  -2.819
REMARK UNBOUND:                -3.227
REMARK  Name = 
REMARK  14 active torsions:
REMARK  status: ('A' for Active; 'I' for Inactive)
REMARK    1  A    between atoms: C_1  and  O_2
REMARK    2  A    between atoms: O_2  and  C_3
REMARK    3  A    between atoms: C_4  and  C_5
REMARK    4  A    between atoms: C_5  and  C_7
REMARK    5  A    between atoms: C_7  and  C_8
REMARK    6  A    between atoms: C_8  and  C_9
REMARK    7  A    between atoms: C_15  and  O_16
REMARK    8  A    between atoms: C_17  and  C_29
REMARK    9  A    between atoms: C_18  and  O_28
REMARK   10  A    between atoms: C_19  and  C_20
REMARK   11  A    between atoms: C_20  and  C_21
REMARK   12  A    between atoms: C_26  and  O_27
REMARK   13  A    between atoms: C_29  and  C_30
REMARK   14  A    between atoms: C_35  and  O_36
REMARK                            x       y       z     vdW  Elec       q    Type
REMARK                         _______ _______ _______ _____ _____    ______ ____
ROOT
ATOM      1  C   UNL     1      86.643  51.547  43.246  0.00  0.00    +0.141 A 
ATOM      2  C   UNL     1      87.109  51.132  44.516  0.00  0.00    +0.101 A 
ATOM      3  C   UNL     1      87.231  52.068  45.565  0.00  0.00    +0.138 A 
ATOM      4  C   UNL     1      86.847  53.413  45.371  0.00  0.00    +0.041 A 
ATOM      5  C   UNL     1      86.441  53.832  44.083  0.00  0.00    +0.131 A 
ATOM      6  C   UNL     1      86.294  52.898  43.039  0.00  0.00    +0.041 A 
ENDROOT
BRANCH   1   8
ATOM      7  C   UNL     1      87.573  50.206  41.332  0.00  0.00    +0.079 C 
ATOM      8  O   UNL     1      86.508  50.659  42.161  0.00  0.00    -0.494 OA
ENDBRANCH   1   8
BRANCH   2   9
ATOM      9  C   UNL     1      87.357  49.709  44.802  0.00  0.00    +0.171 C 
ATOM     10  O   UNL     1      88.536  49.261  44.729  0.00  0.00    -0.292 OA
BRANCH   9  11
ATOM     11  C   UNL     1      86.222  48.840  45.274  0.00  0.00    +0.015 C 
BRANCH  11  12
ATOM     12  C   UNL     1      85.446  48.193  44.120  0.00  0.00    -0.021 C 
BRANCH  12  13
ATOM     13  C   UNL     1      85.980  46.815  43.833  0.00  0.00    -0.047 A 
ATOM     14  C   UNL     1      86.960  46.626  42.844  0.00  0.00    -0.059 A 
ATOM     15  C   UNL     1      87.481  45.351  42.604  0.00  0.00    -0.062 A 
ATOM     16  C   UNL     1      87.037  44.259  43.355  0.00  0.00    -0.062 A 
ATOM     17  C   UNL     1      86.073  44.442  44.351  0.00  0.00    -0.062 A 
ATOM     18  C   UNL     1      85.549  45.716  44.594  0.00  0.00    -0.059 A 
ENDBRANCH  12  13
ENDBRANCH  11  12
ENDBRANCH   9  11
ENDBRANCH   2   9
BRANCH   3  19
ATOM     19  O   UNL     1      87.717  51.676  46.818  0.00  0.00    -0.506 OA
ATOM     20  H   UNL     1      88.608  51.851  47.051  0.00  0.00    +0.000 HD
ENDBRANCH   3  19
BRANCH   5  21
ATOM     21  O   UNL     1      86.195  55.179  43.801  0.00  0.00    -0.506 OA
ATOM     22  H   UNL     1      85.938  55.762  44.489  0.00  0.00    +0.000 HD
ENDBRANCH   5  21
BRANCH   6  23
ATOM     23  C   UNL     1      85.824  53.371  41.675  0.00  0.00    +0.008 C 
BRANCH  23  24
ATOM     24  C   UNL     1      84.316  53.529  41.639  0.00  0.00    -0.001 A 
ATOM     25  C   UNL     1      83.533  52.361  41.732  0.00  0.00    -0.055 A 
ATOM     26  C   UNL     1      82.140  52.426  41.684  0.00  0.00    -0.061 A 
ATOM     27  C   UNL     1      81.503  53.656  41.546  0.00  0.00    -0.058 A 
ATOM     28  C   UNL     1      82.258  54.827  41.460  0.00  0.00    -0.020 A 
ATOM     29  C   UNL     1      83.657  54.784  41.508  0.00  0.00    +0.120 A 
BRANCH  29  30
ATOM     30  O   UNL     1      84.333  56.004  41.425  0.00  0.00    -0.506 OA
ATOM     31  H   UNL     1      83.883  56.769  41.123  0.00  0.00    +0.000 HD
ENDBRANCH  29  30
ENDBRANCH  23  24
ENDBRANCH   6  23
BRANCH   4  32
ATOM     32  C   UNL     1      86.876  54.386  46.545  0.00  0.00    +0.008 C 
BRANCH  32  33
ATOM     33  C   UNL     1      85.507  54.612  47.164  0.00  0.00    -0.001 A 
ATOM     34  C   UNL     1      84.914  53.568  47.903  0.00  0.00    -0.055 A 
ATOM     35  C   UNL     1      83.678  53.745  48.526  0.00  0.00    -0.061 A 
ATOM     36  C   UNL     1      83.004  54.959  48.408  0.00  0.00    -0.058 A 
ATOM     37  C   UNL     1      83.551  55.989  47.645  0.00  0.00    -0.020 A 
ATOM     38  C   UNL     1      84.783  55.822  47.000  0.00  0.00    +0.120 A 
BRANCH  38  39
ATOM     39  O   UNL     1      85.238  56.864  46.193  0.00  0.00    -0.506 OA
ATOM     40  H   UNL     1      86.142  56.911  45.954  0.00  0.00    +0.000 HD
ENDBRANCH  38  39
ENDBRANCH  32  33
ENDBRANCH   4  32
TORSDOF 13
ENDMDL
MODEL 6
REMARK VINA RESULT:    -8.575      0.582      4.568
REMARK INTER + INTRA:         -17.316
REMARK INTER:                 -14.729
REMARK INTRA:                  -2.587
REMARK UNBOUND:                -3.227
REMARK  Name = 
REMARK  14 active torsions:
REMARK  status: ('A' for Active; 'I' for Inactive)
REMARK    1  A    between atoms: C_1  and  O_2
REMARK    2  A    between atoms: O_2  and  C_3
REMARK    3  A    between atoms: C_4  and  C_5
REMARK    4  A    between atoms: C_5  and  C_7
REMARK    5  A    between atoms: C_7  and  C_8
REMARK    6  A    between atoms: C_8  and  C_9
REMARK    7  A    between atoms: C_15  and  O_16
REMARK    8  A    between atoms: C_17  and  C_29
REMARK    9  A    between atoms: C_18  and  O_28
REMARK   10  A    between atoms: C_19  and  C_20
REMARK   11  A    between atoms: C_20  and  C_21
REMARK   12  A    between atoms: C_26  and  O_27
REMARK   13  A    between atoms: C_29  and  C_30
REMARK   14  A    between atoms: C_35  and  O_36
REMARK                            x       y       z     vdW  Elec       q    Type
REMARK                         _______ _______ _______ _____ _____    ______ ____
ROOT
ATOM      1  C   UNL     1      87.124  51.962  45.592  0.00  0.00    +0.141 A 
ATOM      2  C   UNL     1      86.967  51.054  44.518  0.00  0.00    +0.101 A 
ATOM      3  C   UNL     1      86.510  51.514  43.265  0.00  0.00    +0.138 A 
ATOM      4  C   UNL     1      86.251  52.887  43.058  0.00  0.00    +0.041 A 
ATOM      5  C   UNL     1      86.353  53.777  44.153  0.00  0.00    +0.131 A 
ATOM      6  C   UNL     1      86.831  53.328  45.399  0.00  0.00    +0.041 A 
ENDROOT
BRANCH   1   8
ATOM      7  C   UNL     1      86.794  50.838  47.818  0.00  0.00    +0.079 C 
ATOM      8  O   UNL     1      87.570  51.559  46.866  0.00  0.00    -0.494 OA
ENDBRANCH   1   8
BRANCH   2   9
ATOM      9  C   UNL     1      87.386  49.649  44.649  0.00  0.00    +0.171 C 
ATOM     10  O   UNL     1      88.594  49.343  44.444  0.00  0.00    -0.292 OA
BRANCH   9  11
ATOM     11  C   UNL     1      86.394  48.622  45.124  0.00  0.00    +0.015 C 
BRANCH  11  12
ATOM     12  C   UNL     1      85.746  47.840  43.974  0.00  0.00    -0.021 C 
BRANCH  12  13
ATOM     13  C   UNL     1      84.263  48.097  43.933  0.00  0.00    -0.047 A 
ATOM     14  C   UNL     1      83.373  47.059  43.607  0.00  0.00    -0.059 A 
ATOM     15  C   UNL     1      81.994  47.290  43.604  0.00  0.00    -0.062 A 
ATOM     16  C   UNL     1      81.494  48.552  43.936  0.00  0.00    -0.062 A 
ATOM     17  C   UNL     1      82.372  49.585  44.275  0.00  0.00    -0.062 A 
ATOM     18  C   UNL     1      83.753  49.358  44.279  0.00  0.00    -0.059 A 
ENDBRANCH  12  13
ENDBRANCH  11  12
ENDBRANCH   9  11
ENDBRANCH   2   9
BRANCH   3  19
ATOM     19  O   UNL     1      86.322  50.622  42.202  0.00  0.00    -0.506 OA
ATOM     20  H   UNL     1      85.892  50.908  41.420  0.00  0.00    +0.000 HD
ENDBRANCH   3  19
BRANCH   5  21
ATOM     21  O   UNL     1      85.964  55.114  44.039  0.00  0.00    -0.506 OA
ATOM     22  H   UNL     1      86.421  55.687  43.454  0.00  0.00    +0.000 HD
ENDBRANCH   5  21
BRANCH   6  23
ATOM     23  C   UNL     1      86.962  54.313  46.547  0.00  0.00    +0.008 C 
BRANCH  23  24
ATOM     24  C   UNL     1      85.610  54.630  47.155  0.00  0.00    -0.001 A 
ATOM     25  C   UNL     1      84.945  53.598  47.849  0.00  0.00    -0.055 A 
ATOM     26  C   UNL     1      83.689  53.809  48.417  0.00  0.00    -0.061 A 
ATOM     27  C   UNL     1      83.073  55.053  48.307  0.00  0.00    -0.058 A 
ATOM     28  C   UNL     1      83.715  56.092  47.632  0.00  0.00    -0.020 A 
ATOM     29  C   UNL     1      84.978  55.902  47.056  0.00  0.00    +0.120 A 
BRANCH  29  30
ATOM     30  O   UNL     1      85.553  56.999  46.409  0.00  0.00    -0.506 OA
ATOM     31  H   UNL     1      85.207  57.858  46.547  0.00  0.00    +0.000 HD
ENDBRANCH  29  30
ENDBRANCH  23  24
ENDBRANCH   6  23
BRANCH   4  32
ATOM     32  C   UNL     1      85.869  53.385  41.669  0.00  0.00    +0.008 C 
BRANCH  32  33
ATOM     33  C   UNL     1      84.374  53.595  41.503  0.00  0.00    -0.001 A 
ATOM     34  C   UNL     1      83.489  52.629  42.025  0.00  0.00    -0.055 A 
ATOM     35  C   UNL     1      82.107  52.803  41.935  0.00  0.00    -0.061 A 
ATOM     36  C   UNL     1      81.584  53.932  41.307  0.00  0.00    -0.058 A 
ATOM     37  C   UNL     1      82.440  54.877  40.746  0.00  0.00    -0.020 A 
ATOM     38  C   UNL     1      83.829  54.710  40.813  0.00  0.00    +0.120 A 
BRANCH  38  39
ATOM     39  O   UNL     1      84.627  55.654  40.166  0.00  0.00    -0.506 OA
ATOM     40  H   UNL     1      84.244  56.440  39.831  0.00  0.00    +0.000 HD
ENDBRANCH  38  39
ENDBRANCH  32  33
ENDBRANCH   4  32
TORSDOF 13
ENDMDL
MODEL 7
REMARK VINA RESULT:    -8.493      2.569      6.443
REMARK INTER + INTRA:         -17.181
REMARK INTER:                 -15.325
REMARK INTRA:                  -1.856
REMARK UNBOUND:                -3.227
REMARK  Name = 
REMARK  14 active torsions:
REMARK  status: ('A' for Active; 'I' for Inactive)
REMARK    1  A    between atoms: C_1  and  O_2
REMARK    2  A    between atoms: O_2  and  C_3
REMARK    3  A    between atoms: C_4  and  C_5
REMARK    4  A    between atoms: C_5  and  C_7
REMARK    5  A    between atoms: C_7  and  C_8
REMARK    6  A    between atoms: C_8  and  C_9
REMARK    7  A    between atoms: C_15  and  O_16
REMARK    8  A    between atoms: C_17  and  C_29
REMARK    9  A    between atoms: C_18  and  O_28
REMARK   10  A    between atoms: C_19  and  C_20
REMARK   11  A    between atoms: C_20  and  C_21
REMARK   12  A    between atoms: C_26  and  O_27
REMARK   13  A    between atoms: C_29  and  C_30
REMARK   14  A    between atoms: C_35  and  O_36
REMARK                            x       y       z     vdW  Elec       q    Type
REMARK                         _______ _______ _______ _____ _____    ______ ____
ROOT
ATOM      1  C   UNL     1      85.981  52.148  44.377  0.00  0.00    +0.141 A 
ATOM      2  C   UNL     1      86.791  51.164  44.994  0.00  0.00    +0.101 A 
ATOM      3  C   UNL     1      87.888  50.614  44.299  0.00  0.00    +0.138 A 
ATOM      4  C   UNL     1      88.217  51.070  43.003  0.00  0.00    +0.041 A 
ATOM      5  C   UNL     1      87.368  52.009  42.371  0.00  0.00    +0.131 A 
ATOM      6  C   UNL     1      86.286  52.579  43.068  0.00  0.00    +0.041 A 
ENDROOT
BRANCH   1   8
ATOM      7  C   UNL     1      83.601  52.104  45.187  0.00  0.00    +0.079 C 
ATOM      8  O   UNL     1      84.870  52.726  45.019  0.00  0.00    -0.494 OA
ENDBRANCH   1   8
BRANCH   2   9
ATOM      9  C   UNL     1      86.579  50.787  46.401  0.00  0.00    +0.171 C 
ATOM     10  O   UNL     1      86.072  49.662  46.670  0.00  0.00    -0.292 OA
BRANCH   9  11
ATOM     11  C   UNL     1      87.067  51.701  47.493  0.00  0.00    +0.015 C 
BRANCH  11  12
ATOM     12  C   UNL     1      86.005  51.967  48.568  0.00  0.00    -0.021 C 
BRANCH  12  13
ATOM     13  C   UNL     1      85.328  53.289  48.325  0.00  0.00    -0.047 A 
ATOM     14  C   UNL     1      86.022  54.336  47.694  0.00  0.00    -0.059 A 
ATOM     15  C   UNL     1      85.382  55.551  47.436  0.00  0.00    -0.062 A 
ATOM     16  C   UNL     1      84.043  55.727  47.796  0.00  0.00    -0.062 A 
ATOM     17  C   UNL     1      83.341  54.686  48.411  0.00  0.00    -0.062 A 
ATOM     18  C   UNL     1      83.979  53.468  48.670  0.00  0.00    -0.059 A 
ENDBRANCH  12  13
ENDBRANCH  11  12
ENDBRANCH   9  11
ENDBRANCH   2   9
BRANCH   3  19
ATOM     19  O   UNL     1      88.680  49.619  44.887  0.00  0.00    -0.506 OA
ATOM     20  H   UNL     1      89.610  49.721  44.923  0.00  0.00    +0.000 HD
ENDBRANCH   3  19
BRANCH   5  21
ATOM     21  O   UNL     1      87.562  52.381  41.038  0.00  0.00    -0.506 OA
ATOM     22  H   UNL     1      86.826  52.600  40.501  0.00  0.00    +0.000 HD
ENDBRANCH   5  21
BRANCH   6  23
ATOM     23  C   UNL     1      85.411  53.610  42.375  0.00  0.00    +0.008 C 
BRANCH  23  24
ATOM     24  C   UNL     1      85.523  54.965  43.047  0.00  0.00    -0.001 A 
ATOM     25  C   UNL     1      86.736  55.277  43.694  0.00  0.00    -0.055 A 
ATOM     26  C   UNL     1      86.904  56.497  44.351  0.00  0.00    -0.061 A 
ATOM     27  C   UNL     1      85.869  57.427  44.372  0.00  0.00    -0.058 A 
ATOM     28  C   UNL     1      84.662  57.143  43.731  0.00  0.00    -0.020 A 
ATOM     29  C   UNL     1      84.473  55.926  43.064  0.00  0.00    +0.120 A 
BRANCH  29  30
ATOM     30  O   UNL     1      83.239  55.729  42.440  0.00  0.00    -0.506 OA
ATOM     31  H   UNL     1      83.121  55.979  41.544  0.00  0.00    +0.000 HD
ENDBRANCH  29  30
ENDBRANCH  23  24
ENDBRANCH   6  23
BRANCH   4  32
ATOM     32  C   UNL     1      89.472  50.550  42.311  0.00  0.00    +0.008 C 
BRANCH  32  33
ATOM     33  C   UNL     1      89.572  49.034  42.322  0.00  0.00    -0.001 A 
ATOM     34  C   UNL     1      90.681  48.430  42.948  0.00  0.00    -0.055 A 
ATOM     35  C   UNL     1      90.791  47.040  43.021  0.00  0.00    -0.061 A 
ATOM     36  C   UNL     1      89.808  46.231  42.456  0.00  0.00    -0.058 A 
ATOM     37  C   UNL     1      88.725  46.808  41.794  0.00  0.00    -0.020 A 
ATOM     38  C   UNL     1      88.608  48.200  41.698  0.00  0.00    +0.120 A 
BRANCH  38  39
ATOM     39  O   UNL     1      87.540  48.710  40.959  0.00  0.00    -0.506 OA
ATOM     40  H   UNL     1      87.702  49.173  40.161  0.00  0.00    +0.000 HD
ENDBRANCH  38  39
ENDBRANCH  32  33
ENDBRANCH   4  32
TORSDOF 13
ENDMDL
MODEL 8
REMARK VINA RESULT:    -8.249      3.081      7.626
REMARK INTER + INTRA:         -16.782
REMARK INTER:                 -13.554
REMARK INTRA:                  -3.227
REMARK UNBOUND:                -3.227
REMARK  Name = 
REMARK  14 active torsions:
REMARK  status: ('A' for Active; 'I' for Inactive)
REMARK    1  A    between atoms: C_1  and  O_2
REMARK    2  A    between atoms: O_2  and  C_3
REMARK    3  A    between atoms: C_4  and  C_5
REMARK    4  A    between atoms: C_5  and  C_7
REMARK    5  A    between atoms: C_7  and  C_8
REMARK    6  A    between atoms: C_8  and  C_9
REMARK    7  A    between atoms: C_15  and  O_16
REMARK    8  A    between atoms: C_17  and  C_29
REMARK    9  A    between atoms: C_18  and  O_28
REMARK   10  A    between atoms: C_19  and  C_20
REMARK   11  A    between atoms: C_20  and  C_21
REMARK   12  A    between atoms: C_26  and  O_27
REMARK   13  A    between atoms: C_29  and  C_30
REMARK   14  A    between atoms: C_35  and  O_36
REMARK                            x       y       z     vdW  Elec       q    Type
REMARK                         _______ _______ _______ _____ _____    ______ ____
ROOT
ATOM      1  C   UNL     1      86.778  49.665  43.785  0.00  0.00    +0.141 A 
ATOM      2  C   UNL     1      87.789  49.087  42.981  0.00  0.00    +0.101 A 
ATOM      3  C   UNL     1      87.662  47.754  42.535  0.00  0.00    +0.138 A 
ATOM      4  C   UNL     1      86.508  47.002  42.847  0.00  0.00    +0.041 A 
ATOM      5  C   UNL     1      85.531  47.566  43.702  0.00  0.00    +0.131 A 
ATOM      6  C   UNL     1      85.641  48.903  44.129  0.00  0.00    +0.041 A 
ENDROOT
BRANCH   1   8
ATOM      7  C   UNL     1      87.534  51.395  45.446  0.00  0.00    +0.079 C 
ATOM      8  O   UNL     1      86.854  50.986  44.264  0.00  0.00    -0.494 OA
ENDBRANCH   1   8
BRANCH   2   9
ATOM      9  C   UNL     1      88.922  49.893  42.497  0.00  0.00    +0.171 C 
ATOM     10  O   UNL     1      90.077  49.673  42.958  0.00  0.00    -0.292 OA
BRANCH   9  11
ATOM     11  C   UNL     1      88.702  50.889  41.390  0.00  0.00    +0.015 C 
BRANCH  11  12
ATOM     12  C   UNL     1      88.848  52.342  41.857  0.00  0.00    -0.021 C 
BRANCH  12  13
ATOM     13  C   UNL     1      87.503  53.014  41.919  0.00  0.00    -0.047 A 
ATOM     14  C   UNL     1      87.240  53.988  42.897  0.00  0.00    -0.059 A 
ATOM     15  C   UNL     1      86.002  54.637  42.929  0.00  0.00    -0.062 A 
ATOM     16  C   UNL     1      85.023  54.326  41.982  0.00  0.00    -0.062 A 
ATOM     17  C   UNL     1      85.282  53.369  40.996  0.00  0.00    -0.062 A 
ATOM     18  C   UNL     1      86.520  52.718  40.960  0.00  0.00    -0.059 A 
ENDBRANCH  12  13
ENDBRANCH  11  12
ENDBRANCH   9  11
ENDBRANCH   2   9
BRANCH   3  19
ATOM     19  O   UNL     1      88.668  47.161  41.762  0.00  0.00    -0.506 OA
ATOM     20  H   UNL     1      88.460  46.787  40.929  0.00  0.00    +0.000 HD
ENDBRANCH   3  19
BRANCH   5  21
ATOM     21  O   UNL     1      84.448  46.814  44.161  0.00  0.00    -0.506 OA
ATOM     22  H   UNL     1      84.369  46.616  45.075  0.00  0.00    +0.000 HD
ENDBRANCH   5  21
BRANCH   6  23
ATOM     23  C   UNL     1      84.560  49.493  45.018  0.00  0.00    +0.008 C 
BRANCH  23  24
ATOM     24  C   UNL     1      83.391  50.001  44.197  0.00  0.00    -0.001 A 
ATOM     25  C   UNL     1      83.519  51.264  43.585  0.00  0.00    -0.055 A 
ATOM     26  C   UNL     1      82.476  51.805  42.832  0.00  0.00    -0.061 A 
ATOM     27  C   UNL     1      81.288  51.095  42.673  0.00  0.00    -0.058 A 
ATOM     28  C   UNL     1      81.142  49.839  43.264  0.00  0.00    -0.020 A 
ATOM     29  C   UNL     1      82.178  49.277  44.022  0.00  0.00    +0.120 A 
BRANCH  29  30
ATOM     30  O   UNL     1      81.950  48.011  44.567  0.00  0.00    -0.506 OA
ATOM     31  H   UNL     1      81.276  47.891  45.207  0.00  0.00    +0.000 HD
ENDBRANCH  29  30
ENDBRANCH  23  24
ENDBRANCH   6  23
BRANCH   4  32
ATOM     32  C   UNL     1      86.333  45.604  42.264  0.00  0.00    +0.008 C 
BRANCH  32  33
ATOM     33  C   UNL     1      86.977  44.521  43.112  0.00  0.00    -0.001 A 
ATOM     34  C   UNL     1      88.336  44.211  42.902  0.00  0.00    -0.055 A 
ATOM     35  C   UNL     1      88.980  43.254  43.688  0.00  0.00    -0.061 A 
ATOM     36  C   UNL     1      88.277  42.578  44.683  0.00  0.00    -0.058 A 
ATOM     37  C   UNL     1      86.921  42.838  44.878  0.00  0.00    -0.020 A 
ATOM     38  C   UNL     1      86.255  43.783  44.086  0.00  0.00    +0.120 A 
BRANCH  38  39
ATOM     39  O   UNL     1      84.884  43.941  44.283  0.00  0.00    -0.506 OA
ATOM     40  H   UNL     1      84.546  44.066  45.148  0.00  0.00    +0.000 HD
ENDBRANCH  38  39
ENDBRANCH  32  33
ENDBRANCH   4  32
TORSDOF 13
ENDMDL
MODEL 9
REMARK VINA RESULT:    -8.197      1.111      4.538
REMARK INTER + INTRA:         -16.696
REMARK INTER:                 -13.848
REMARK INTRA:                  -2.848
REMARK UNBOUND:                -3.227
REMARK  Name = 
REMARK  14 active torsions:
REMARK  status: ('A' for Active; 'I' for Inactive)
REMARK    1  A    between atoms: C_1  and  O_2
REMARK    2  A    between atoms: O_2  and  C_3
REMARK    3  A    between atoms: C_4  and  C_5
REMARK    4  A    between atoms: C_5  and  C_7
REMARK    5  A    between atoms: C_7  and  C_8
REMARK    6  A    between atoms: C_8  and  C_9
REMARK    7  A    between atoms: C_15  and  O_16
REMARK    8  A    between atoms: C_17  and  C_29
REMARK    9  A    between atoms: C_18  and  O_28
REMARK   10  A    between atoms: C_19  and  C_20
REMARK   11  A    between atoms: C_20  and  C_21
REMARK   12  A    between atoms: C_26  and  O_27
REMARK   13  A    between atoms: C_29  and  C_30
REMARK   14  A    between atoms: C_35  and  O_36
REMARK                            x       y       z     vdW  Elec       q    Type
REMARK                         _______ _______ _______ _____ _____    ______ ____
ROOT
ATOM      1  C   UNL     1      86.627  51.218  43.332  0.00  0.00    +0.141 A 
ATOM      2  C   UNL     1      86.780  52.596  43.046  0.00  0.00    +0.101 A 
ATOM      3  C   UNL     1      86.809  53.537  44.098  0.00  0.00    +0.138 A 
ATOM      4  C   UNL     1      86.733  53.110  45.442  0.00  0.00    +0.041 A 
ATOM      5  C   UNL     1      86.519  51.738  45.715  0.00  0.00    +0.131 A 
ATOM      6  C   UNL     1      86.513  50.793  44.672  0.00  0.00    +0.041 A 
ENDROOT
BRANCH   1   8
ATOM      7  C   UNL     1      87.720  49.615  41.732  0.00  0.00    +0.079 C 
ATOM      8  O   UNL     1      86.584  50.236  42.324  0.00  0.00    -0.494 OA
ENDBRANCH   1   8
BRANCH   2   9
ATOM      9  C   UNL     1      87.030  53.059  41.671  0.00  0.00    +0.171 C 
ATOM     10  O   UNL     1      88.198  53.405  41.339  0.00  0.00    -0.292 OA
BRANCH   9  11
ATOM     11  C   UNL     1      85.915  53.015  40.661  0.00  0.00    +0.015 C 
BRANCH  11  12
ATOM     12  C   UNL     1      84.944  54.194  40.792  0.00  0.00    -0.021 C 
BRANCH  12  13
ATOM     13  C   UNL     1      83.579  53.710  41.202  0.00  0.00    -0.047 A 
ATOM     14  C   UNL     1      83.401  52.394  41.661  0.00  0.00    -0.059 A 
ATOM     15  C   UNL     1      82.140  51.957  42.076  0.00  0.00    -0.062 A 
ATOM     16  C   UNL     1      81.050  52.832  42.045  0.00  0.00    -0.062 A 
ATOM     17  C   UNL     1      81.221  54.147  41.604  0.00  0.00    -0.062 A 
ATOM     18  C   UNL     1      82.482  54.588  41.188  0.00  0.00    -0.059 A 
ENDBRANCH  12  13
ENDBRANCH  11  12
ENDBRANCH   9  11
ENDBRANCH   2   9
BRANCH   3  19
ATOM     19  O   UNL     1      86.932  54.905  43.828  0.00  0.00    -0.506 OA
ATOM     20  H   UNL     1      87.143  55.195  42.963  0.00  0.00    +0.000 HD
ENDBRANCH   3  19
BRANCH   5  21
ATOM     21  O   UNL     1      86.287  51.285  47.017  0.00  0.00    -0.506 OA
ATOM     22  H   UNL     1      86.541  50.417  47.262  0.00  0.00    +0.000 HD
ENDBRANCH   5  21
BRANCH   6  23
ATOM     23  C   UNL     1      86.315  49.322  44.998  0.00  0.00    +0.008 C 
BRANCH  23  24
ATOM     24  C   UNL     1      84.973  48.825  44.498  0.00  0.00    -0.001 A 
ATOM     25  C   UNL     1      83.863  49.683  44.636  0.00  0.00    -0.055 A 
ATOM     26  C   UNL     1      82.593  49.285  44.219  0.00  0.00    -0.061 A 
ATOM     27  C   UNL     1      82.407  48.027  43.652  0.00  0.00    -0.058 A 
ATOM     28  C   UNL     1      83.493  47.164  43.498  0.00  0.00    -0.020 A 
ATOM     29  C   UNL     1      84.777  47.545  43.909  0.00  0.00    +0.120 A 
BRANCH  29  30
ATOM     30  O   UNL     1      85.807  46.623  43.707  0.00  0.00    -0.506 OA
ATOM     31  H   UNL     1      86.009  46.328  42.840  0.00  0.00    +0.000 HD
ENDBRANCH  29  30
ENDBRANCH  23  24
ENDBRANCH   6  23
BRANCH   4  32
ATOM     32  C   UNL     1      86.881  54.125  46.570  0.00  0.00    +0.008 C 
BRANCH  32  33
ATOM     33  C   UNL     1      85.550  54.557  47.160  0.00  0.00    -0.001 A 
ATOM     34  C   UNL     1      85.011  53.822  48.235  0.00  0.00    -0.055 A 
ATOM     35  C   UNL     1      83.813  54.209  48.838  0.00  0.00    -0.061 A 
ATOM     36  C   UNL     1      83.122  55.323  48.366  0.00  0.00    -0.058 A 
ATOM     37  C   UNL     1      83.615  56.039  47.276  0.00  0.00    -0.020 A 
ATOM     38  C   UNL     1      84.807  55.654  46.649  0.00  0.00    +0.120 A 
BRANCH  38  39
ATOM     39  O   UNL     1      85.204  56.367  45.519  0.00  0.00    -0.506 OA
ATOM     40  H   UNL     1      84.915  56.098  44.670  0.00  0.00    +0.000 HD
ENDBRANCH  38  39
ENDBRANCH  32  33
ENDBRANCH   4  32
TORSDOF 13
ENDMDL
