MODEL 1
REMARK VINA RESULT:    -9.587      0.000      0.000
REMARK INTER + INTRA:         -17.713
REMARK INTER:                 -14.367
REMARK INTRA:                  -3.346
REMARK UNBOUND:                -1.960
REMARK  Name = 
REMARK  14 active torsions:
REMARK  status: ('A' for Active; 'I' for Inactive)
REMARK    1  A    between atoms: C_1  and  O_2
REMARK    2  A    between atoms: O_2  and  C_3
REMARK    3  A    between atoms: C_4  and  C_5
REMARK    4  A    between atoms: C_5  and  C_7
REMARK    5  A    between atoms: C_7  and  C_8
REMARK    6  A    between atoms: C_8  and  C_9
REMARK    7  A    between atoms: C_15  and  O_16
REMARK    8  A    between atoms: C_17  and  C_29
REMARK    9  A    between atoms: C_18  and  O_28
REMARK   10  A    between atoms: C_19  and  C_20
REMARK   11  A    between atoms: C_20  and  C_21
REMARK   12  A    between atoms: C_26  and  O_27
REMARK   13  A    between atoms: C_29  and  C_30
REMARK   14  A    between atoms: C_35  and  O_36
REMARK                            x       y       z     vdW  Elec       q    Type
REMARK                         _______ _______ _______ _____ _____    ______ ____
ROOT
ATOM      1  C   UNL     1      86.784  51.528  42.881  0.00  0.00    +0.141 A 
ATOM      2  C   UNL     1      87.261  51.274  44.189  0.00  0.00    +0.101 A 
ATOM      3  C   UNL     1      87.362  52.328  45.122  0.00  0.00    +0.138 A 
ATOM      4  C   UNL     1      86.946  53.633  44.775  0.00  0.00    +0.041 A 
ATOM      5  C   UNL     1      86.529  53.890  43.448  0.00  0.00    +0.131 A 
ATOM      6  C   UNL     1      86.403  52.837  42.520  0.00  0.00    +0.041 A 
ENDROOT
BRANCH   1   8
ATOM      7  C   UNL     1      87.758  49.908  41.222  0.00  0.00    +0.079 C 
ATOM      8  O   UNL     1      86.669  50.517  41.908  0.00  0.00    -0.494 OA
ENDBRANCH   1   8
BRANCH   2   9
ATOM      9  C   UNL     1      87.543  49.900  44.637  0.00  0.00    +0.171 C 
ATOM     10  O   UNL     1      88.740  49.502  44.692  0.00  0.00    -0.292 OA
BRANCH   9  11
ATOM     11  C   UNL     1      86.412  49.032  45.119  0.00  0.00    +0.015 C 
BRANCH  11  12
ATOM     12  C   UNL     1      85.896  48.071  44.041  0.00  0.00    -0.021 C 
BRANCH  12  13
ATOM     13  C   UNL     1      84.436  48.317  43.771  0.00  0.00    -0.047 A 
ATOM     14  C   UNL     1      83.609  47.269  43.332  0.00  0.00    -0.059 A 
ATOM     15  C   UNL     1      82.246  47.491  43.116  0.00  0.00    -0.062 A 
ATOM     16  C   UNL     1      81.696  48.755  43.347  0.00  0.00    -0.062 A 
ATOM     17  C   UNL     1      82.509  49.799  43.798  0.00  0.00    -0.062 A 
ATOM     18  C   UNL     1      83.874  49.581  44.015  0.00  0.00    -0.059 A 
ENDBRANCH  12  13
ENDBRANCH  11  12
ENDBRANCH   9  11
ENDBRANCH   2   9
BRANCH   3  19
ATOM     19  O   UNL     1      87.859  52.097  46.411  0.00  0.00    -0.506 OA
ATOM     20  H   UNL     1      88.775  52.185  46.583  0.00  0.00    +0.000 HD
ENDBRANCH   3  19
BRANCH   5  21
ATOM     21  O   UNL     1      86.251  55.188  43.013  0.00  0.00    -0.506 OA
ATOM     22  H   UNL     1      85.419  55.385  42.628  0.00  0.00    +0.000 HD
ENDBRANCH   5  21
BRANCH   6  23
ATOM     23  C   UNL     1      85.920  53.138  41.112  0.00  0.00    +0.008 C 
BRANCH  23  24
ATOM     24  C   UNL     1      84.434  53.437  41.094  0.00  0.00    -0.001 A 
ATOM     25  C   UNL     1      83.555  52.423  41.525  0.00  0.00    -0.055 A 
ATOM     26  C   UNL     1      82.174  52.619  41.516  0.00  0.00    -0.061 A 
ATOM     27  C   UNL     1      81.644  53.830  41.080  0.00  0.00    -0.058 A 
ATOM     28  C   UNL     1      82.495  54.852  40.657  0.00  0.00    -0.020 A 
ATOM     29  C   UNL     1      83.885  54.677  40.661  0.00  0.00    +0.120 A 
BRANCH  29  30
ATOM     30  O   UNL     1      84.662  55.756  40.231  0.00  0.00    -0.506 OA
ATOM     31  H   UNL     1      85.551  55.618  39.971  0.00  0.00    +0.000 HD
ENDBRANCH  29  30
ENDBRANCH  23  24
ENDBRANCH   6  23
BRANCH   4  32
ATOM     32  C   UNL     1      86.953  54.736  45.827  0.00  0.00    +0.008 C 
BRANCH  32  33
ATOM     33  C   UNL     1      85.703  54.741  46.691  0.00  0.00    -0.001 A 
ATOM     34  C   UNL     1      85.696  53.987  47.882  0.00  0.00    -0.055 A 
ATOM     35  C   UNL     1      84.587  53.998  48.729  0.00  0.00    -0.061 A 
ATOM     36  C   UNL     1      83.459  54.745  48.394  0.00  0.00    -0.058 A 
ATOM     37  C   UNL     1      83.429  55.463  47.199  0.00  0.00    -0.020 A 
ATOM     38  C   UNL     1      84.527  55.449  46.330  0.00  0.00    +0.120 A 
BRANCH  38  39
ATOM     39  O   UNL     1      84.402  56.128  45.118  0.00  0.00    -0.506 OA
ATOM     40  H   UNL     1      85.064  56.734  44.851  0.00  0.00    +0.000 HD
ENDBRANCH  38  39
ENDBRANCH  32  33
ENDBRANCH   4  32
TORSDOF 13
ENDMDL
MODEL 2
REMARK VINA RESULT:    -9.420      1.685      6.239
REMARK INTER + INTRA:         -17.437
REMARK INTER:                 -14.798
REMARK INTRA:                  -2.639
REMARK UNBOUND:                -1.960
REMARK  Name = 
REMARK  14 active torsions:
REMARK  status: ('A' for Active; 'I' for Inactive)
REMARK    1  A    between atoms: C_1  and  O_2
REMARK    2  A    between atoms: O_2  and  C_3
REMARK    3  A    between atoms: C_4  and  C_5
REMARK    4  A    between atoms: C_5  and  C_7
REMARK    5  A    between atoms: C_7  and  C_8
REMARK    6  A    between atoms: C_8  and  C_9
REMARK    7  A    between atoms: C_15  and  O_16
REMARK    8  A    between atoms: C_17  and  C_29
REMARK    9  A    between atoms: C_18  and  O_28
REMARK   10  A    between atoms: C_19  and  C_20
REMARK   11  A    between atoms: C_20  and  C_21
REMARK   12  A    between atoms: C_26  and  O_27
REMARK   13  A    between atoms: C_29  and  C_30
REMARK   14  A    between atoms: C_35  and  O_36
REMARK                            x       y       z     vdW  Elec       q    Type
REMARK                         _______ _______ _______ _____ _____    ______ ____
ROOT
ATOM      1  C   UNL     1      85.341  53.341  43.853  0.00  0.00    +0.141 A 
ATOM      2  C   UNL     1      84.979  52.294  42.972  0.00  0.00    +0.101 A 
ATOM      3  C   UNL     1      85.571  51.020  43.107  0.00  0.00    +0.138 A 
ATOM      4  C   UNL     1      86.492  50.766  44.147  0.00  0.00    +0.041 A 
ATOM      5  C   UNL     1      86.893  51.834  44.984  0.00  0.00    +0.131 A 
ATOM      6  C   UNL     1      86.288  53.100  44.869  0.00  0.00    +0.041 A 
ENDROOT
BRANCH   1   8
ATOM      7  C   UNL     1      85.192  55.637  42.836  0.00  0.00    +0.079 C 
ATOM      8  O   UNL     1      84.788  54.633  43.761  0.00  0.00    -0.494 OA
ENDBRANCH   1   8
BRANCH   2   9
ATOM      9  C   UNL     1      83.901  52.475  41.985  0.00  0.00    +0.171 C 
ATOM     10  O   UNL     1      84.196  52.790  40.799  0.00  0.00    -0.292 OA
BRANCH   9  11
ATOM     11  C   UNL     1      82.479  52.182  42.382  0.00  0.00    +0.015 C 
BRANCH  11  12
ATOM     12  C   UNL     1      81.885  50.982  41.633  0.00  0.00    -0.021 C 
BRANCH  12  13
ATOM     13  C   UNL     1      81.355  49.963  42.606  0.00  0.00    -0.047 A 
ATOM     14  C   UNL     1      80.044  50.068  43.099  0.00  0.00    -0.059 A 
ATOM     15  C   UNL     1      79.541  49.102  43.974  0.00  0.00    -0.062 A 
ATOM     16  C   UNL     1      80.338  48.018  44.355  0.00  0.00    -0.062 A 
ATOM     17  C   UNL     1      81.638  47.898  43.858  0.00  0.00    -0.062 A 
ATOM     18  C   UNL     1      82.145  48.864  42.981  0.00  0.00    -0.059 A 
ENDBRANCH  12  13
ENDBRANCH  11  12
ENDBRANCH   9  11
ENDBRANCH   2   9
BRANCH   3  19
ATOM     19  O   UNL     1      85.243  49.983  42.225  0.00  0.00    -0.506 OA
ATOM     20  H   UNL     1      84.928  49.166  42.558  0.00  0.00    +0.000 HD
ENDBRANCH   3  19
BRANCH   5  21
ATOM     21  O   UNL     1      87.910  51.672  45.929  0.00  0.00    -0.506 OA
ATOM     22  H   UNL     1      88.310  52.425  46.320  0.00  0.00    +0.000 HD
ENDBRANCH   5  21
BRANCH   6  23
ATOM     23  C   UNL     1      86.715  54.218  45.804  0.00  0.00    +0.008 C 
BRANCH  23  24
ATOM     24  C   UNL     1      85.750  54.362  46.965  0.00  0.00    -0.001 A 
ATOM     25  C   UNL     1      85.774  53.368  47.964  0.00  0.00    -0.055 A 
ATOM     26  C   UNL     1      84.900  53.421  49.051  0.00  0.00    -0.061 A 
ATOM     27  C   UNL     1      83.990  54.469  49.163  0.00  0.00    -0.058 A 
ATOM     28  C   UNL     1      83.953  55.469  48.190  0.00  0.00    -0.020 A 
ATOM     29  C   UNL     1      84.823  55.434  47.092  0.00  0.00    +0.120 A 
BRANCH  29  30
ATOM     30  O   UNL     1      84.726  56.482  46.172  0.00  0.00    -0.506 OA
ATOM     31  H   UNL     1      84.040  56.482  45.533  0.00  0.00    +0.000 HD
ENDBRANCH  29  30
ENDBRANCH  23  24
ENDBRANCH   6  23
BRANCH   4  32
ATOM     32  C   UNL     1      87.036  49.356  44.351  0.00  0.00    +0.008 C 
BRANCH  32  33
ATOM     33  C   UNL     1      88.084  48.969  43.322  0.00  0.00    -0.001 A 
ATOM     34  C   UNL     1      89.298  49.685  43.285  0.00  0.00    -0.055 A 
ATOM     35  C   UNL     1      90.308  49.336  42.387  0.00  0.00    -0.061 A 
ATOM     36  C   UNL     1      90.117  48.279  41.498  0.00  0.00    -0.058 A 
ATOM     37  C   UNL     1      88.908  47.586  41.488  0.00  0.00    -0.020 A 
ATOM     38  C   UNL     1      87.879  47.935  42.372  0.00  0.00    +0.120 A 
BRANCH  38  39
ATOM     39  O   UNL     1      86.669  47.250  42.259  0.00  0.00    -0.506 OA
ATOM     40  H   UNL     1      86.242  46.923  43.026  0.00  0.00    +0.000 HD
ENDBRANCH  38  39
ENDBRANCH  32  33
ENDBRANCH   4  32
TORSDOF 13
ENDMDL
MODEL 3
REMARK VINA RESULT:    -9.405      2.507      6.435
REMARK INTER + INTRA:         -17.413
REMARK INTER:                 -15.083
REMARK INTRA:                  -2.330
REMARK UNBOUND:                -1.960
REMARK  Name = 
REMARK  14 active torsions:
REMARK  status: ('A' for Active; 'I' for Inactive)
REMARK    1  A    between atoms: C_1  and  O_2
REMARK    2  A    between atoms: O_2  and  C_3
REMARK    3  A    between atoms: C_4  and  C_5
REMARK    4  A    between atoms: C_5  and  C_7
REMARK    5  A    between atoms: C_7  and  C_8
REMARK    6  A    between atoms: C_8  and  C_9
REMARK    7  A    between atoms: C_15  and  O_16
REMARK    8  A    between atoms: C_17  and  C_29
REMARK    9  A    between atoms: C_18  and  O_28
REMARK   10  A    between atoms: C_19  and  C_20
REMARK   11  A    between atoms: C_20  and  C_21
REMARK   12  A    between atoms: C_26  and  O_27
REMARK   13  A    between atoms: C_29  and  C_30
REMARK   14  A    between atoms: C_35  and  O_36
REMARK                            x       y       z     vdW  Elec       q    Type
REMARK                         _______ _______ _______ _____ _____    ______ ____
ROOT
ATOM      1  C   UNL     1      86.185  51.974  44.205  0.00  0.00    +0.141 A 
ATOM      2  C   UNL     1      86.945  51.000  44.895  0.00  0.00    +0.101 A 
ATOM      3  C   UNL     1      88.098  50.449  44.297  0.00  0.00    +0.138 A 
ATOM      4  C   UNL     1      88.529  50.896  43.029  0.00  0.00    +0.041 A 
ATOM      5  C   UNL     1      87.730  51.825  42.321  0.00  0.00    +0.131 A 
ATOM      6  C   UNL     1      86.593  52.396  42.922  0.00  0.00    +0.041 A 
ENDROOT
BRANCH   1   8
ATOM      7  C   UNL     1      83.719  51.982  44.703  0.00  0.00    +0.079 C 
ATOM      8  O   UNL     1      85.023  52.553  44.750  0.00  0.00    -0.494 OA
ENDBRANCH   1   8
BRANCH   2   9
ATOM      9  C   UNL     1      86.621  50.633  46.284  0.00  0.00    +0.171 C 
ATOM     10  O   UNL     1      86.033  49.540  46.513  0.00  0.00    -0.292 OA
BRANCH   9  11
ATOM     11  C   UNL     1      87.088  51.517  47.410  0.00  0.00    +0.015 C 
BRANCH  11  12
ATOM     12  C   UNL     1      85.988  51.802  48.440  0.00  0.00    -0.021 C 
BRANCH  12  13
ATOM     13  C   UNL     1      85.298  53.103  48.128  0.00  0.00    -0.047 A 
ATOM     14  C   UNL     1      86.038  54.207  47.672  0.00  0.00    -0.059 A 
ATOM     15  C   UNL     1      85.392  55.403  47.348  0.00  0.00    -0.062 A 
ATOM     16  C   UNL     1      84.003  55.503  47.466  0.00  0.00    -0.062 A 
ATOM     17  C   UNL     1      83.257  54.405  47.905  0.00  0.00    -0.062 A 
ATOM     18  C   UNL     1      83.901  53.207  48.230  0.00  0.00    -0.059 A 
ENDBRANCH  12  13
ENDBRANCH  11  12
ENDBRANCH   9  11
ENDBRANCH   2   9
BRANCH   3  19
ATOM     19  O   UNL     1      88.842  49.463  44.956  0.00  0.00    -0.506 OA
ATOM     20  H   UNL     1      88.848  49.427  45.892  0.00  0.00    +0.000 HD
ENDBRANCH   3  19
BRANCH   5  21
ATOM     21  O   UNL     1      88.031  52.186  41.005  0.00  0.00    -0.506 OA
ATOM     22  H   UNL     1      88.139  53.090  40.780  0.00  0.00    +0.000 HD
ENDBRANCH   5  21
BRANCH   6  23
ATOM     23  C   UNL     1      85.774  53.417  42.152  0.00  0.00    +0.008 C 
BRANCH  23  24
ATOM     24  C   UNL     1      85.791  54.767  42.840  0.00  0.00    -0.001 A 
ATOM     25  C   UNL     1      86.953  55.125  43.553  0.00  0.00    -0.055 A 
ATOM     26  C   UNL     1      87.033  56.342  44.230  0.00  0.00    -0.061 A 
ATOM     27  C   UNL     1      85.958  57.227  44.205  0.00  0.00    -0.058 A 
ATOM     28  C   UNL     1      84.800  56.898  43.498  0.00  0.00    -0.020 A 
ATOM     29  C   UNL     1      84.700  55.682  42.811  0.00  0.00    +0.120 A 
BRANCH  29  30
ATOM     30  O   UNL     1      83.510  55.439  42.121  0.00  0.00    -0.506 OA
ATOM     31  H   UNL     1      82.943  56.151  41.899  0.00  0.00    +0.000 HD
ENDBRANCH  29  30
ENDBRANCH  23  24
ENDBRANCH   6  23
BRANCH   4  32
ATOM     32  C   UNL     1      89.838  50.376  42.446  0.00  0.00    +0.008 C 
BRANCH  32  33
ATOM     33  C   UNL     1      89.894  48.859  42.371  0.00  0.00    -0.001 A 
ATOM     34  C   UNL     1      88.955  48.182  41.566  0.00  0.00    -0.055 A 
ATOM     35  C   UNL     1      88.997  46.794  41.432  0.00  0.00    -0.061 A 
ATOM     36  C   UNL     1      89.964  46.055  42.112  0.00  0.00    -0.058 A 
ATOM     37  C   UNL     1      90.875  46.700  42.947  0.00  0.00    -0.020 A 
ATOM     38  C   UNL     1      90.835  48.092  43.105  0.00  0.00    +0.120 A 
BRANCH  38  39
ATOM     39  O   UNL     1      91.727  48.665  44.012  0.00  0.00    -0.506 OA
ATOM     40  H   UNL     1      92.638  48.716  43.804  0.00  0.00    +0.000 HD
ENDBRANCH  38  39
ENDBRANCH  32  33
ENDBRANCH   4  32
TORSDOF 13
ENDMDL
MODEL 4
REMARK VINA RESULT:    -9.361      2.199      7.087
REMARK INTER + INTRA:         -17.341
REMARK INTER:                 -15.098
REMARK INTRA:                  -2.243
REMARK UNBOUND:                -1.960
REMARK  Name = 
REMARK  14 active torsions:
REMARK  status: ('A' for Active; 'I' for Inactive)
REMARK    1  A    between atoms: C_1  and  O_2
REMARK    2  A    between atoms: O_2  and  C_3
REMARK    3  A    between atoms: C_4  and  C_5
REMARK    4  A    between atoms: C_5  and  C_7
REMARK    5  A    between atoms: C_7  and  C_8
REMARK    6  A    between atoms: C_8  and  C_9
REMARK    7  A    between atoms: C_15  and  O_16
REMARK    8  A    between atoms: C_17  and  C_29
REMARK    9  A    between atoms: C_18  and  O_28
REMARK   10  A    between atoms: C_19  and  C_20
REMARK   11  A    between atoms: C_20  and  C_21
REMARK   12  A    between atoms: C_26  and  O_27
REMARK   13  A    between atoms: C_29  and  C_30
REMARK   14  A    between atoms: C_35  and  O_36
REMARK                            x       y       z     vdW  Elec       q    Type
REMARK                         _______ _______ _______ _____ _____    ______ ____
ROOT
ATOM      1  C   UNL     1      87.328  52.185  41.805  0.00  0.00    +0.141 A 
ATOM      2  C   UNL     1      86.428  52.873  42.654  0.00  0.00    +0.101 A 
ATOM      3  C   UNL     1      85.585  52.150  43.524  0.00  0.00    +0.138 A 
ATOM      4  C   UNL     1      85.662  50.742  43.589  0.00  0.00    +0.041 A 
ATOM      5  C   UNL     1      86.520  50.059  42.694  0.00  0.00    +0.131 A 
ATOM      6  C   UNL     1      87.381  50.776  41.842  0.00  0.00    +0.041 A 
ENDROOT
BRANCH   1   8
ATOM      7  C   UNL     1      89.548  53.186  41.175  0.00  0.00    +0.079 C 
ATOM      8  O   UNL     1      88.188  52.854  40.913  0.00  0.00    -0.494 OA
ENDBRANCH   1   8
BRANCH   2   9
ATOM      9  C   UNL     1      86.439  54.343  42.735  0.00  0.00    +0.171 C 
ATOM     10  O   UNL     1      85.604  55.005  42.058  0.00  0.00    -0.292 OA
BRANCH   9  11
ATOM     11  C   UNL     1      87.374  55.024  43.698  0.00  0.00    +0.015 C 
BRANCH  11  12
ATOM     12  C   UNL     1      86.775  56.295  44.314  0.00  0.00    -0.021 C 
BRANCH  12  13
ATOM     13  C   UNL     1      85.936  55.954  45.515  0.00  0.00    -0.047 A 
ATOM     14  C   UNL     1      86.433  55.088  46.505  0.00  0.00    -0.059 A 
ATOM     15  C   UNL     1      85.667  54.801  47.638  0.00  0.00    -0.062 A 
ATOM     16  C   UNL     1      84.406  55.382  47.798  0.00  0.00    -0.062 A 
ATOM     17  C   UNL     1      83.910  56.256  46.825  0.00  0.00    -0.062 A 
ATOM     18  C   UNL     1      84.674  56.546  45.690  0.00  0.00    -0.059 A 
ENDBRANCH  12  13
ENDBRANCH  11  12
ENDBRANCH   9  11
ENDBRANCH   2   9
BRANCH   3  19
ATOM     19  O   UNL     1      84.670  52.816  44.349  0.00  0.00    -0.506 OA
ATOM     20  H   UNL     1      84.336  52.394  45.116  0.00  0.00    +0.000 HD
ENDBRANCH   3  19
BRANCH   5  21
ATOM     21  O   UNL     1      86.524  48.664  42.614  0.00  0.00    -0.506 OA
ATOM     22  H   UNL     1      85.778  48.176  42.904  0.00  0.00    +0.000 HD
ENDBRANCH   5  21
BRANCH   6  23
ATOM     23  C   UNL     1      88.316  50.017  40.916  0.00  0.00    +0.008 C 
BRANCH  23  24
ATOM     24  C   UNL     1      89.269  49.136  41.700  0.00  0.00    -0.001 A 
ATOM     25  C   UNL     1      90.275  49.769  42.456  0.00  0.00    -0.055 A 
ATOM     26  C   UNL     1      91.201  49.023  43.186  0.00  0.00    -0.061 A 
ATOM     27  C   UNL     1      91.138  47.632  43.177  0.00  0.00    -0.058 A 
ATOM     28  C   UNL     1      90.145  46.983  42.442  0.00  0.00    -0.020 A 
ATOM     29  C   UNL     1      89.204  47.714  41.704  0.00  0.00    +0.120 A 
BRANCH  29  30
ATOM     30  O   UNL     1      88.239  46.984  41.006  0.00  0.00    -0.506 OA
ATOM     31  H   UNL     1      88.270  46.048  41.005  0.00  0.00    +0.000 HD
ENDBRANCH  29  30
ENDBRANCH  23  24
ENDBRANCH   6  23
BRANCH   4  32
ATOM     32  C   UNL     1      84.827  49.982  44.614  0.00  0.00    +0.008 C 
BRANCH  32  33
ATOM     33  C   UNL     1      83.532  49.436  44.039  0.00  0.00    -0.001 A 
ATOM     34  C   UNL     1      82.454  50.320  43.828  0.00  0.00    -0.055 A 
ATOM     35  C   UNL     1      81.261  49.871  43.260  0.00  0.00    -0.061 A 
ATOM     36  C   UNL     1      81.115  48.530  42.910  0.00  0.00    -0.058 A 
ATOM     37  C   UNL     1      82.152  47.630  43.150  0.00  0.00    -0.020 A 
ATOM     38  C   UNL     1      83.350  48.061  43.734  0.00  0.00    +0.120 A 
BRANCH  38  39
ATOM     39  O   UNL     1      84.317  47.097  44.015  0.00  0.00    -0.506 OA
ATOM     40  H   UNL     1      84.273  46.256  43.605  0.00  0.00    +0.000 HD
ENDBRANCH  38  39
ENDBRANCH  32  33
ENDBRANCH   4  32
TORSDOF 13
ENDMDL
MODEL 5
REMARK VINA RESULT:    -9.297      1.280      4.454
REMARK INTER + INTRA:         -17.236
REMARK INTER:                 -14.105
REMARK INTRA:                  -3.131
REMARK UNBOUND:                -1.960
REMARK  Name = 
REMARK  14 active torsions:
REMARK  status: ('A' for Active; 'I' for Inactive)
REMARK    1  A    between atoms: C_1  and  O_2
REMARK    2  A    between atoms: O_2  and  C_3
REMARK    3  A    between atoms: C_4  and  C_5
REMARK    4  A    between atoms: C_5  and  C_7
REMARK    5  A    between atoms: C_7  and  C_8
REMARK    6  A    between atoms: C_8  and  C_9
REMARK    7  A    between atoms: C_15  and  O_16
REMARK    8  A    between atoms: C_17  and  C_29
REMARK    9  A    between atoms: C_18  and  O_28
REMARK   10  A    between atoms: C_19  and  C_20
REMARK   11  A    between atoms: C_20  and  C_21
REMARK   12  A    between atoms: C_26  and  O_27
REMARK   13  A    between atoms: C_29  and  C_30
REMARK   14  A    between atoms: C_35  and  O_36
REMARK                            x       y       z     vdW  Elec       q    Type
REMARK                         _______ _______ _______ _____ _____    ______ ____
ROOT
ATOM      1  C   UNL     1      86.499  52.479  42.419  0.00  0.00    +0.141 A 
ATOM      2  C   UNL     1      85.647  53.588  42.636  0.00  0.00    +0.101 A 
ATOM      3  C   UNL     1      85.618  54.220  43.898  0.00  0.00    +0.138 A 
ATOM      4  C   UNL     1      86.469  53.783  44.937  0.00  0.00    +0.041 A 
ATOM      5  C   UNL     1      87.272  52.637  44.730  0.00  0.00    +0.131 A 
ATOM      6  C   UNL     1      87.323  52.017  43.467  0.00  0.00    +0.041 A 
ENDROOT
BRANCH   1   8
ATOM      7  C   UNL     1      87.430  52.147  40.106  0.00  0.00    +0.079 C 
ATOM      8  O   UNL     1      86.565  51.805  41.184  0.00  0.00    -0.494 OA
ENDBRANCH   1   8
BRANCH   2   9
ATOM      9  C   UNL     1      84.873  54.174  41.530  0.00  0.00    +0.171 C 
ATOM     10  O   UNL     1      85.203  55.305  41.076  0.00  0.00    -0.292 OA
BRANCH   9  11
ATOM     11  C   UNL     1      83.769  53.372  40.894  0.00  0.00    +0.015 C 
BRANCH  11  12
ATOM     12  C   UNL     1      82.513  53.285  41.769  0.00  0.00    -0.021 C 
BRANCH  12  13
ATOM     13  C   UNL     1      82.339  51.890  42.305  0.00  0.00    -0.047 A 
ATOM     14  C   UNL     1      83.384  51.264  43.006  0.00  0.00    -0.059 A 
ATOM     15  C   UNL     1      83.208  49.982  43.535  0.00  0.00    -0.062 A 
ATOM     16  C   UNL     1      81.988  49.320  43.377  0.00  0.00    -0.062 A 
ATOM     17  C   UNL     1      80.939  49.941  42.693  0.00  0.00    -0.062 A 
ATOM     18  C   UNL     1      81.111  51.224  42.163  0.00  0.00    -0.059 A 
ENDBRANCH  12  13
ENDBRANCH  11  12
ENDBRANCH   9  11
ENDBRANCH   2   9
BRANCH   3  19
ATOM     19  O   UNL     1      84.759  55.301  44.135  0.00  0.00    -0.506 OA
ATOM     20  H   UNL     1      84.691  55.665  44.995  0.00  0.00    +0.000 HD
ENDBRANCH   3  19
BRANCH   5  21
ATOM     21  O   UNL     1      88.017  52.076  45.770  0.00  0.00    -0.506 OA
ATOM     22  H   UNL     1      88.367  51.210  45.681  0.00  0.00    +0.000 HD
ENDBRANCH   5  21
BRANCH   6  23
ATOM     23  C   UNL     1      88.220  50.809  43.264  0.00  0.00    +0.008 C 
BRANCH  23  24
ATOM     24  C   UNL     1      87.421  49.521  43.294  0.00  0.00    -0.001 A 
ATOM     25  C   UNL     1      86.732  49.204  44.483  0.00  0.00    -0.055 A 
ATOM     26  C   UNL     1      85.993  48.026  44.591  0.00  0.00    -0.061 A 
ATOM     27  C   UNL     1      85.925  47.143  43.517  0.00  0.00    -0.058 A 
ATOM     28  C   UNL     1      86.592  47.439  42.327  0.00  0.00    -0.020 A 
ATOM     29  C   UNL     1      87.338  48.618  42.197  0.00  0.00    +0.120 A 
BRANCH  29  30
ATOM     30  O   UNL     1      87.964  48.840  40.968  0.00  0.00    -0.506 OA
ATOM     31  H   UNL     1      87.793  49.627  40.489  0.00  0.00    +0.000 HD
ENDBRANCH  29  30
ENDBRANCH  23  24
ENDBRANCH   6  23
BRANCH   4  32
ATOM     32  C   UNL     1      86.509  54.547  46.256  0.00  0.00    +0.008 C 
BRANCH  32  33
ATOM     33  C   UNL     1      85.534  54.006  47.287  0.00  0.00    -0.001 A 
ATOM     34  C   UNL     1      85.874  52.836  47.997  0.00  0.00    -0.055 A 
ATOM     35  C   UNL     1      85.029  52.328  48.985  0.00  0.00    -0.061 A 
ATOM     36  C   UNL     1      83.823  52.966  49.268  0.00  0.00    -0.058 A 
ATOM     37  C   UNL     1      83.447  54.098  48.547  0.00  0.00    -0.020 A 
ATOM     38  C   UNL     1      84.276  54.611  47.542  0.00  0.00    +0.120 A 
BRANCH  38  39
ATOM     39  O   UNL     1      83.806  55.702  46.809  0.00  0.00    -0.506 OA
ATOM     40  H   UNL     1      84.294  56.018  46.075  0.00  0.00    +0.000 HD
ENDBRANCH  38  39
ENDBRANCH  32  33
ENDBRANCH   4  32
TORSDOF 13
ENDMDL
MODEL 6
REMARK VINA RESULT:    -9.288      2.556      6.221
REMARK INTER + INTRA:         -17.221
REMARK INTER:                 -15.147
REMARK INTRA:                  -2.074
REMARK UNBOUND:                -1.960
REMARK  Name = 
REMARK  14 active torsions:
REMARK  status: ('A' for Active; 'I' for Inactive)
REMARK    1  A    between atoms: C_1  and  O_2
REMARK    2  A    between atoms: O_2  and  C_3
REMARK    3  A    between atoms: C_4  and  C_5
REMARK    4  A    between atoms: C_5  and  C_7
REMARK    5  A    between atoms: C_7  and  C_8
REMARK    6  A    between atoms: C_8  and  C_9
REMARK    7  A    between atoms: C_15  and  O_16
REMARK    8  A    between atoms: C_17  and  C_29
REMARK    9  A    between atoms: C_18  and  O_28
REMARK   10  A    between atoms: C_19  and  C_20
REMARK   11  A    between atoms: C_20  and  C_21
REMARK   12  A    between atoms: C_26  and  O_27
REMARK   13  A    between atoms: C_29  and  C_30
REMARK   14  A    between atoms: C_35  and  O_36
REMARK                            x       y       z     vdW  Elec       q    Type
REMARK                         _______ _______ _______ _____ _____    ______ ____
ROOT
ATOM      1  C   UNL     1      86.849  51.245  42.220  0.00  0.00    +0.141 A 
ATOM      2  C   UNL     1      85.579  51.514  42.785  0.00  0.00    +0.101 A 
ATOM      3  C   UNL     1      85.382  51.383  44.176  0.00  0.00    +0.138 A 
ATOM      4  C   UNL     1      86.457  51.028  45.021  0.00  0.00    +0.041 A 
ATOM      5  C   UNL     1      87.706  50.702  44.442  0.00  0.00    +0.131 A 
ATOM      6  C   UNL     1      87.915  50.854  43.058  0.00  0.00    +0.041 A 
ENDROOT
BRANCH   1   8
ATOM      7  C   UNL     1      87.764  52.442  40.207  0.00  0.00    +0.079 C 
ATOM      8  O   UNL     1      87.102  51.352  40.840  0.00  0.00    -0.494 OA
ENDBRANCH   1   8
BRANCH   2   9
ATOM      9  C   UNL     1      84.483  52.048  41.960  0.00  0.00    +0.171 C 
ATOM     10  O   UNL     1      83.435  51.360  41.805  0.00  0.00    -0.292 OA
BRANCH   9  11
ATOM     11  C   UNL     1      84.588  53.442  41.402  0.00  0.00    +0.015 C 
BRANCH  11  12
ATOM     12  C   UNL     1      83.786  54.470  42.210  0.00  0.00    -0.021 C 
BRANCH  12  13
ATOM     13  C   UNL     1      84.711  55.451  42.879  0.00  0.00    -0.047 A 
ATOM     14  C   UNL     1      84.235  56.708  43.290  0.00  0.00    -0.059 A 
ATOM     15  C   UNL     1      85.085  57.604  43.944  0.00  0.00    -0.062 A 
ATOM     16  C   UNL     1      86.413  57.249  44.201  0.00  0.00    -0.062 A 
ATOM     17  C   UNL     1      86.890  55.996  43.808  0.00  0.00    -0.062 A 
ATOM     18  C   UNL     1      86.042  55.096  43.153  0.00  0.00    -0.059 A 
ENDBRANCH  12  13
ENDBRANCH  11  12
ENDBRANCH   9  11
ENDBRANCH   2   9
BRANCH   3  19
ATOM     19  O   UNL     1      84.124  51.619  44.745  0.00  0.00    -0.506 OA
ATOM     20  H   UNL     1      83.524  52.205  44.328  0.00  0.00    +0.000 HD
ENDBRANCH   3  19
BRANCH   5  21
ATOM     21  O   UNL     1      88.756  50.202  45.216  0.00  0.00    -0.506 OA
ATOM     22  H   UNL     1      89.416  49.666  44.820  0.00  0.00    +0.000 HD
ENDBRANCH   5  21
BRANCH   6  23
ATOM     23  C   UNL     1      89.277  50.529  42.468  0.00  0.00    +0.008 C 
BRANCH  23  24
ATOM     24  C   UNL     1      89.511  49.032  42.422  0.00  0.00    -0.001 A 
ATOM     25  C   UNL     1      90.577  48.511  43.182  0.00  0.00    -0.055 A 
ATOM     26  C   UNL     1      90.867  47.146  43.172  0.00  0.00    -0.061 A 
ATOM     27  C   UNL     1      90.096  46.275  42.406  0.00  0.00    -0.058 A 
ATOM     28  C   UNL     1      89.029  46.767  41.652  0.00  0.00    -0.020 A 
ATOM     29  C   UNL     1      88.721  48.133  41.650  0.00  0.00    +0.120 A 
BRANCH  29  30
ATOM     30  O   UNL     1      87.630  48.537  40.875  0.00  0.00    -0.506 OA
ATOM     31  H   UNL     1      87.529  48.211  40.003  0.00  0.00    +0.000 HD
ENDBRANCH  29  30
ENDBRANCH  23  24
ENDBRANCH   6  23
BRANCH   4  32
ATOM     32  C   UNL     1      86.258  51.003  46.532  0.00  0.00    +0.008 C 
BRANCH  32  33
ATOM     33  C   UNL     1      86.038  52.384  47.126  0.00  0.00    -0.001 A 
ATOM     34  C   UNL     1      86.467  53.513  46.399  0.00  0.00    -0.055 A 
ATOM     35  C   UNL     1      86.246  54.803  46.885  0.00  0.00    -0.061 A 
ATOM     36  C   UNL     1      85.610  54.988  48.112  0.00  0.00    -0.058 A 
ATOM     37  C   UNL     1      85.217  53.884  48.867  0.00  0.00    -0.020 A 
ATOM     38  C   UNL     1      85.447  52.583  48.401  0.00  0.00    +0.120 A 
BRANCH  38  39
ATOM     39  O   UNL     1      85.097  51.524  49.239  0.00  0.00    -0.506 OA
ATOM     40  H   UNL     1      85.689  50.809  49.363  0.00  0.00    +0.000 HD
ENDBRANCH  38  39
ENDBRANCH  32  33
ENDBRANCH   4  32
TORSDOF 13
ENDMDL
MODEL 7
REMARK VINA RESULT:    -9.285      2.376      7.389
REMARK INTER + INTRA:         -17.215
REMARK INTER:                 -15.289
REMARK INTRA:                  -1.927
REMARK UNBOUND:                -1.960
REMARK  Name = 
REMARK  14 active torsions:
REMARK  status: ('A' for Active; 'I' for Inactive)
REMARK    1  A    between atoms: C_1  and  O_2
REMARK    2  A    between atoms: O_2  and  C_3
REMARK    3  A    between atoms: C_4  and  C_5
REMARK    4  A    between atoms: C_5  and  C_7
REMARK    5  A    between atoms: C_7  and  C_8
REMARK    6  A    between atoms: C_8  and  C_9
REMARK    7  A    between atoms: C_15  and  O_16
REMARK    8  A    between atoms: C_17  and  C_29
REMARK    9  A    between atoms: C_18  and  O_28
REMARK   10  A    between atoms: C_19  and  C_20
REMARK   11  A    between atoms: C_20  and  C_21
REMARK   12  A    between atoms: C_26  and  O_27
REMARK   13  A    between atoms: C_29  and  C_30
REMARK   14  A    between atoms: C_35  and  O_36
REMARK                            x       y       z     vdW  Elec       q    Type
REMARK                         _______ _______ _______ _____ _____    ______ ____
ROOT
ATOM      1  C   UNL     1      85.595  52.440  42.757  0.00  0.00    +0.141 A 
ATOM      2  C   UNL     1      84.534  52.757  41.876  0.00  0.00    +0.101 A 
ATOM      3  C   UNL     1      83.309  52.063  41.965  0.00  0.00    +0.138 A 
ATOM      4  C   UNL     1      83.115  51.081  42.961  0.00  0.00    +0.041 A 
ATOM      5  C   UNL     1      84.199  50.728  43.798  0.00  0.00    +0.131 A 
ATOM      6  C   UNL     1      85.415  51.434  43.730  0.00  0.00    +0.041 A 
ENDROOT
BRANCH   1   8
ATOM      7  C   UNL     1      87.911  52.764  41.831  0.00  0.00    +0.079 C 
ATOM      8  O   UNL     1      86.841  53.095  42.710  0.00  0.00    -0.494 OA
ENDBRANCH   1   8
BRANCH   2   9
ATOM      9  C   UNL     1      84.643  53.887  40.938  0.00  0.00    +0.171 C 
ATOM     10  O   UNL     1      84.664  53.659  39.696  0.00  0.00    -0.292 OA
BRANCH   9  11
ATOM     11  C   UNL     1      84.624  55.295  41.471  0.00  0.00    +0.015 C 
BRANCH  11  12
ATOM     12  C   UNL     1      83.668  55.471  42.657  0.00  0.00    -0.021 C 
BRANCH  12  13
ATOM     13  C   UNL     1      84.319  56.285  43.742  0.00  0.00    -0.047 A 
ATOM     14  C   UNL     1      85.078  57.422  43.417  0.00  0.00    -0.059 A 
ATOM     15  C   UNL     1      85.652  58.198  44.429  0.00  0.00    -0.062 A 
ATOM     16  C   UNL     1      85.465  57.852  45.770  0.00  0.00    -0.062 A 
ATOM     17  C   UNL     1      84.698  56.731  46.102  0.00  0.00    -0.062 A 
ATOM     18  C   UNL     1      84.122  55.952  45.093  0.00  0.00    -0.059 A 
ENDBRANCH  12  13
ENDBRANCH  11  12
ENDBRANCH   9  11
ENDBRANCH   2   9
BRANCH   3  19
ATOM     19  O   UNL     1      82.261  52.347  41.080  0.00  0.00    -0.506 OA
ATOM     20  H   UNL     1      81.526  51.769  41.024  0.00  0.00    +0.000 HD
ENDBRANCH   3  19
BRANCH   5  21
ATOM     21  O   UNL     1      84.105  49.662  44.697  0.00  0.00    -0.506 OA
ATOM     22  H   UNL     1      84.808  49.489  45.293  0.00  0.00    +0.000 HD
ENDBRANCH   5  21
BRANCH   6  23
ATOM     23  C   UNL     1      86.551  51.056  44.664  0.00  0.00    +0.008 C 
BRANCH  23  24
ATOM     24  C   UNL     1      86.321  51.606  46.058  0.00  0.00    -0.001 A 
ATOM     25  C   UNL     1      86.138  52.997  46.192  0.00  0.00    -0.055 A 
ATOM     26  C   UNL     1      85.943  53.577  47.446  0.00  0.00    -0.061 A 
ATOM     27  C   UNL     1      85.923  52.781  48.588  0.00  0.00    -0.058 A 
ATOM     28  C   UNL     1      86.094  51.400  48.479  0.00  0.00    -0.020 A 
ATOM     29  C   UNL     1      86.289  50.798  47.229  0.00  0.00    +0.120 A 
BRANCH  29  30
ATOM     30  O   UNL     1      86.441  49.409  47.212  0.00  0.00    -0.506 OA
ATOM     31  H   UNL     1      85.696  48.858  47.071  0.00  0.00    +0.000 HD
ENDBRANCH  29  30
ENDBRANCH  23  24
ENDBRANCH   6  23
BRANCH   4  32
ATOM     32  C   UNL     1      81.749  50.421  43.119  0.00  0.00    +0.008 C 
BRANCH  32  33
ATOM     33  C   UNL     1      81.834  48.915  43.299  0.00  0.00    -0.001 A 
ATOM     34  C   UNL     1      82.645  48.169  42.419  0.00  0.00    -0.055 A 
ATOM     35  C   UNL     1      82.789  46.790  42.575  0.00  0.00    -0.061 A 
ATOM     36  C   UNL     1      82.112  46.128  43.597  0.00  0.00    -0.058 A 
ATOM     37  C   UNL     1      81.270  46.839  44.451  0.00  0.00    -0.020 A 
ATOM     38  C   UNL     1      81.103  48.221  44.298  0.00  0.00    +0.120 A 
BRANCH  38  39
ATOM     39  O   UNL     1      80.190  48.859  45.138  0.00  0.00    -0.506 OA
ATOM     40  H   UNL     1      79.717  49.608  44.833  0.00  0.00    +0.000 HD
ENDBRANCH  38  39
ENDBRANCH  32  33
ENDBRANCH   4  32
TORSDOF 13
ENDMDL
MODEL 8
REMARK VINA RESULT:    -9.188      2.566      7.371
REMARK INTER + INTRA:         -17.057
REMARK INTER:                 -14.515
REMARK INTRA:                  -2.542
REMARK UNBOUND:                -1.960
REMARK  Name = 
REMARK  14 active torsions:
REMARK  status: ('A' for Active; 'I' for Inactive)
REMARK    1  A    between atoms: C_1  and  O_2
REMARK    2  A    between atoms: O_2  and  C_3
REMARK    3  A    between atoms: C_4  and  C_5
REMARK    4  A    between atoms: C_5  and  C_7
REMARK    5  A    between atoms: C_7  and  C_8
REMARK    6  A    between atoms: C_8  and  C_9
REMARK    7  A    between atoms: C_15  and  O_16
REMARK    8  A    between atoms: C_17  and  C_29
REMARK    9  A    between atoms: C_18  and  O_28
REMARK   10  A    between atoms: C_19  and  C_20
REMARK   11  A    between atoms: C_20  and  C_21
REMARK   12  A    between atoms: C_26  and  O_27
REMARK   13  A    between atoms: C_29  and  C_30
REMARK   14  A    between atoms: C_35  and  O_36
REMARK                            x       y       z     vdW  Elec       q    Type
REMARK                         _______ _______ _______ _____ _____    ______ ____
ROOT
ATOM      1  C   UNL     1      84.923  52.327  43.280  0.00  0.00    +0.141 A 
ATOM      2  C   UNL     1      83.966  52.539  42.259  0.00  0.00    +0.101 A 
ATOM      3  C   UNL     1      83.016  51.538  41.962  0.00  0.00    +0.138 A 
ATOM      4  C   UNL     1      82.981  50.341  42.709  0.00  0.00    +0.041 A 
ATOM      5  C   UNL     1      83.979  50.112  43.687  0.00  0.00    +0.131 A 
ATOM      6  C   UNL     1      84.914  51.116  44.003  0.00  0.00    +0.041 A 
ENDROOT
BRANCH   1   8
ATOM      7  C   UNL     1      87.080  53.553  42.866  0.00  0.00    +0.079 C 
ATOM      8  O   UNL     1      85.898  53.286  43.614  0.00  0.00    -0.494 OA
ENDBRANCH   1   8
BRANCH   2   9
ATOM      9  C   UNL     1      83.866  53.839  41.575  0.00  0.00    +0.171 C 
ATOM     10  O   UNL     1      84.072  53.900  40.331  0.00  0.00    -0.292 OA
BRANCH   9  11
ATOM     11  C   UNL     1      83.418  55.049  42.349  0.00  0.00    +0.015 C 
BRANCH  11  12
ATOM     12  C   UNL     1      84.438  56.194  42.309  0.00  0.00    -0.021 C 
BRANCH  12  13
ATOM     13  C   UNL     1      84.689  56.725  43.695  0.00  0.00    -0.047 A 
ATOM     14  C   UNL     1      85.281  57.987  43.876  0.00  0.00    -0.059 A 
ATOM     15  C   UNL     1      85.480  58.493  45.163  0.00  0.00    -0.062 A 
ATOM     16  C   UNL     1      85.082  57.750  46.278  0.00  0.00    -0.062 A 
ATOM     17  C   UNL     1      84.480  56.501  46.107  0.00  0.00    -0.062 A 
ATOM     18  C   UNL     1      84.278  55.990  44.820  0.00  0.00    -0.059 A 
ENDBRANCH  12  13
ENDBRANCH  11  12
ENDBRANCH   9  11
ENDBRANCH   2   9
BRANCH   3  19
ATOM     19  O   UNL     1      82.081  51.723  40.935  0.00  0.00    -0.506 OA
ATOM     20  H   UNL     1      82.332  52.163  40.147  0.00  0.00    +0.000 HD
ENDBRANCH   3  19
BRANCH   5  21
ATOM     21  O   UNL     1      84.080  48.885  44.347  0.00  0.00    -0.506 OA
ATOM     22  H   UNL     1      84.852  48.362  44.248  0.00  0.00    +0.000 HD
ENDBRANCH   5  21
BRANCH   6  23
ATOM     23  C   UNL     1      85.952  50.856  45.080  0.00  0.00    +0.008 C 
BRANCH  23  24
ATOM     24  C   UNL     1      85.608  51.587  46.363  0.00  0.00    -0.001 A 
ATOM     25  C   UNL     1      84.546  52.514  46.324  0.00  0.00    -0.055 A 
ATOM     26  C   UNL     1      84.186  53.240  47.460  0.00  0.00    -0.061 A 
ATOM     27  C   UNL     1      84.875  53.053  48.655  0.00  0.00    -0.058 A 
ATOM     28  C   UNL     1      85.925  52.135  48.720  0.00  0.00    -0.020 A 
ATOM     29  C   UNL     1      86.300  51.394  47.591  0.00  0.00    +0.120 A 
BRANCH  29  30
ATOM     30  O   UNL     1      87.354  50.490  47.748  0.00  0.00    -0.506 OA
ATOM     31  H   UNL     1      88.161  50.627  47.291  0.00  0.00    +0.000 HD
ENDBRANCH  29  30
ENDBRANCH  23  24
ENDBRANCH   6  23
BRANCH   4  32
ATOM     32  C   UNL     1      81.878  49.319  42.455  0.00  0.00    +0.008 C 
BRANCH  32  33
ATOM     33  C   UNL     1      80.690  49.483  43.387  0.00  0.00    -0.001 A 
ATOM     34  C   UNL     1      79.741  50.489  43.111  0.00  0.00    -0.055 A 
ATOM     35  C   UNL     1      78.611  50.647  43.914  0.00  0.00    -0.061 A 
ATOM     36  C   UNL     1      78.417  49.818  45.017  0.00  0.00    -0.058 A 
ATOM     37  C   UNL     1      79.364  48.845  45.334  0.00  0.00    -0.020 A 
ATOM     38  C   UNL     1      80.512  48.685  44.548  0.00  0.00    +0.120 A 
BRANCH  38  39
ATOM     39  O   UNL     1      81.455  47.745  44.963  0.00  0.00    -0.506 OA
ATOM     40  H   UNL     1      81.373  46.851  44.698  0.00  0.00    +0.000 HD
ENDBRANCH  38  39
ENDBRANCH  32  33
ENDBRANCH   4  32
TORSDOF 13
ENDMDL
MODEL 9
REMARK VINA RESULT:    -9.157      2.216      7.333
REMARK INTER + INTRA:         -17.006
REMARK INTER:                 -15.046
REMARK INTRA:                  -1.960
REMARK UNBOUND:                -1.960
REMARK  Name = 
REMARK  14 active torsions:
REMARK  status: ('A' for Active; 'I' for Inactive)
REMARK    1  A    between atoms: C_1  and  O_2
REMARK    2  A    between atoms: O_2  and  C_3
REMARK    3  A    between atoms: C_4  and  C_5
REMARK    4  A    between atoms: C_5  and  C_7
REMARK    5  A    between atoms: C_7  and  C_8
REMARK    6  A    between atoms: C_8  and  C_9
REMARK    7  A    between atoms: C_15  and  O_16
REMARK    8  A    between atoms: C_17  and  C_29
REMARK    9  A    between atoms: C_18  and  O_28
REMARK   10  A    between atoms: C_19  and  C_20
REMARK   11  A    between atoms: C_20  and  C_21
REMARK   12  A    between atoms: C_26  and  O_27
REMARK   13  A    between atoms: C_29  and  C_30
REMARK   14  A    between atoms: C_35  and  O_36
REMARK                            x       y       z     vdW  Elec       q    Type
REMARK                         _______ _______ _______ _____ _____    ______ ____
ROOT
ATOM      1  C   UNL     1      85.146  52.117  43.115  0.00  0.00    +0.141 A 
ATOM      2  C   UNL     1      85.811  52.758  42.043  0.00  0.00    +0.101 A 
ATOM      3  C   UNL     1      87.174  52.491  41.795  0.00  0.00    +0.138 A 
ATOM      4  C   UNL     1      87.873  51.551  42.583  0.00  0.00    +0.041 A 
ATOM      5  C   UNL     1      87.219  50.959  43.689  0.00  0.00    +0.131 A 
ATOM      6  C   UNL     1      85.852  51.204  43.926  0.00  0.00    +0.041 A 
ENDROOT
BRANCH   1   8
ATOM      7  C   UNL     1      82.693  51.614  42.882  0.00  0.00    +0.079 C 
ATOM      8  O   UNL     1      83.790  52.350  43.414  0.00  0.00    -0.494 OA
ENDBRANCH   1   8
BRANCH   2   9
ATOM      9  C   UNL     1      85.072  53.616  41.101  0.00  0.00    +0.171 C 
ATOM     10  O   UNL     1      85.192  53.416  39.860  0.00  0.00    -0.292 OA
BRANCH   9  11
ATOM     11  C   UNL     1      84.111  54.644  41.634  0.00  0.00    +0.015 C 
BRANCH  11  12
ATOM     12  C   UNL     1      84.790  55.976  41.976  0.00  0.00    -0.021 C 
BRANCH  12  13
ATOM     13  C   UNL     1      85.152  56.024  43.436  0.00  0.00    -0.047 A 
ATOM     14  C   UNL     1      86.432  55.631  43.863  0.00  0.00    -0.059 A 
ATOM     15  C   UNL     1      86.778  55.711  45.215  0.00  0.00    -0.062 A 
ATOM     16  C   UNL     1      85.855  56.191  46.148  0.00  0.00    -0.062 A 
ATOM     17  C   UNL     1      84.585  56.597  45.730  0.00  0.00    -0.062 A 
ATOM     18  C   UNL     1      84.234  56.519  44.377  0.00  0.00    -0.059 A 
ENDBRANCH  12  13
ENDBRANCH  11  12
ENDBRANCH   9  11
ENDBRANCH   2   9
BRANCH   3  19
ATOM     19  O   UNL     1      87.851  53.141  40.756  0.00  0.00    -0.506 OA
ATOM     20  H   UNL     1      88.787  53.177  40.757  0.00  0.00    +0.000 HD
ENDBRANCH   3  19
BRANCH   5  21
ATOM     21  O   UNL     1      87.907  50.139  44.586  0.00  0.00    -0.506 OA
ATOM     22  H   UNL     1      88.630  49.622  44.288  0.00  0.00    +0.000 HD
ENDBRANCH   5  21
BRANCH   6  23
ATOM     23  C   UNL     1      85.167  50.529  45.102  0.00  0.00    +0.008 C 
BRANCH  23  24
ATOM     24  C   UNL     1      85.392  51.303  46.386  0.00  0.00    -0.001 A 
ATOM     25  C   UNL     1      84.782  52.568  46.504  0.00  0.00    -0.055 A 
ATOM     26  C   UNL     1      84.961  53.347  47.648  0.00  0.00    -0.061 A 
ATOM     27  C   UNL     1      85.749  52.877  48.696  0.00  0.00    -0.058 A 
ATOM     28  C   UNL     1      86.356  51.624  48.605  0.00  0.00    -0.020 A 
ATOM     29  C   UNL     1      86.187  50.825  47.466  0.00  0.00    +0.120 A 
BRANCH  29  30
ATOM     30  O   UNL     1      86.822  49.580  47.464  0.00  0.00    -0.506 OA
ATOM     31  H   UNL     1      87.752  49.529  47.560  0.00  0.00    +0.000 HD
ENDBRANCH  29  30
ENDBRANCH  23  24
ENDBRANCH   6  23
BRANCH   4  32
ATOM     32  C   UNL     1      89.312  51.187  42.231  0.00  0.00    +0.008 C 
BRANCH  32  33
ATOM     33  C   UNL     1      89.554  49.688  42.193  0.00  0.00    -0.001 A 
ATOM     34  C   UNL     1      90.671  49.161  42.873  0.00  0.00    -0.055 A 
ATOM     35  C   UNL     1      90.908  47.786  42.902  0.00  0.00    -0.061 A 
ATOM     36  C   UNL     1      90.045  46.914  42.240  0.00  0.00    -0.058 A 
ATOM     37  C   UNL     1      88.959  47.417  41.526  0.00  0.00    -0.020 A 
ATOM     38  C   UNL     1      88.717  48.796  41.473  0.00  0.00    +0.120 A 
BRANCH  38  39
ATOM     39  O   UNL     1      87.657  49.237  40.680  0.00  0.00    -0.506 OA
ATOM     40  H   UNL     1      87.712  49.175  39.747  0.00  0.00    +0.000 HD
ENDBRANCH  38  39
ENDBRANCH  32  33
ENDBRANCH   4  32
TORSDOF 13
ENDMDL
