MODEL 1
REMARK VINA RESULT:    -6.742      0.000      0.000
REMARK INTER + INTRA:          -6.939
REMARK INTER:                  -6.939
REMARK INTRA:                   0.000
REMARK UNBOUND:                 0.000
REMARK  Name = 
REMARK  2 active torsions:
REMARK  status: ('A' for Active; 'I' for Inactive)
REMARK    1  A    between atoms: C_1  and  C_2
REMARK    2  A    between atoms: C_9  and  O_15
REMARK                            x       y       z     vdW  Elec       q    Type
REMARK                         _______ _______ _______ _____ _____    ______ ____
ROOT
ATOM      1  C   UNL     1      86.133  51.537  48.058  0.00  0.00    -0.032 C 
ATOM      2  C   UNL     1      85.658  52.880  47.558  0.00  0.00    +0.042 C 
ATOM      3  C   UNL     1      86.289  53.483  46.529  0.00  0.00    +0.131 C 
ATOM      4  O   UNL     1      87.365  52.805  45.940  0.00  0.00    -0.506 OA
ATOM      5  C   UNL     1      85.851  54.837  46.034  0.00  0.00    +0.031 A 
ATOM      6  C   UNL     1      86.581  55.511  45.031  0.00  0.00    -0.050 A 
ATOM      7  C   UNL     1      86.183  56.766  44.577  0.00  0.00    -0.058 A 
ATOM      8  C   UNL     1      85.085  57.399  45.142  0.00  0.00    -0.019 A 
ATOM      9  C   UNL     1      84.365  56.791  46.171  0.00  0.00    +0.128 A 
ATOM     10  C   UNL     1      84.706  55.474  46.590  0.00  0.00    +0.077 A 
ATOM     11  C   UNL     1      83.893  54.713  47.572  0.00  0.00    +0.237 C 
ATOM     12  O   UNL     1      82.727  55.069  47.885  0.00  0.00    -0.283 OA
ATOM     13  C   UNL     1      84.426  53.467  48.125  0.00  0.00    +0.232 C 
ATOM     14  O   UNL     1      83.807  52.885  49.057  0.00  0.00    -0.283 OA
ENDROOT
BRANCH   9  15
ATOM     15  O   UNL     1      83.349  57.547  46.763  0.00  0.00    -0.506 OA
ATOM     16  H   UNL     1      82.452  57.309  46.633  0.00  0.00    +0.000 HD
ENDBRANCH   9  15
TORSDOF 1
ENDMDL
MODEL 2
REMARK VINA RESULT:    -6.734      2.811      5.259
REMARK INTER + INTRA:          -6.931
REMARK INTER:                  -6.931
REMARK INTRA:                   0.000
REMARK UNBOUND:                 0.000
REMARK  Name = 
REMARK  2 active torsions:
REMARK  status: ('A' for Active; 'I' for Inactive)
REMARK    1  A    between atoms: C_1  and  C_2
REMARK    2  A    between atoms: C_9  and  O_15
REMARK                            x       y       z     vdW  Elec       q    Type
REMARK                         _______ _______ _______ _____ _____    ______ ____
ROOT
ATOM      1  C   UNL     1      85.118  58.520  45.959  0.00  0.00    -0.032 C 
ATOM      2  C   UNL     1      85.070  57.196  45.234  0.00  0.00    +0.042 C 
ATOM      3  C   UNL     1      84.778  56.064  45.907  0.00  0.00    +0.131 C 
ATOM      4  O   UNL     1      84.500  56.177  47.276  0.00  0.00    -0.506 OA
ATOM      5  C   UNL     1      84.754  54.729  45.209  0.00  0.00    +0.031 A 
ATOM      6  C   UNL     1      84.556  53.536  45.938  0.00  0.00    -0.050 A 
ATOM      7  C   UNL     1      84.542  52.300  45.297  0.00  0.00    -0.058 A 
ATOM      8  C   UNL     1      84.774  52.217  43.931  0.00  0.00    -0.019 A 
ATOM      9  C   UNL     1      85.024  53.366  43.181  0.00  0.00    +0.128 A 
ATOM     10  C   UNL     1      84.960  54.644  43.803  0.00  0.00    +0.077 A 
ATOM     11  C   UNL     1      85.069  55.912  43.037  0.00  0.00    +0.237 C 
ATOM     12  O   UNL     1      84.955  55.940  41.784  0.00  0.00    -0.283 OA
ATOM     13  C   UNL     1      85.225  57.173  43.764  0.00  0.00    +0.232 C 
ATOM     14  O   UNL     1      85.454  58.235  43.125  0.00  0.00    -0.283 OA
ENDROOT
BRANCH   9  15
ATOM     15  O   UNL     1      85.364  53.181  41.837  0.00  0.00    -0.506 OA
ATOM     16  H   UNL     1      84.691  53.096  41.191  0.00  0.00    +0.000 HD
ENDBRANCH   9  15
TORSDOF 1
ENDMDL
MODEL 3
REMARK VINA RESULT:    -6.468      1.524      4.987
REMARK INTER + INTRA:          -6.658
REMARK INTER:                  -6.658
REMARK INTRA:                   0.000
REMARK UNBOUND:                 0.000
REMARK  Name = 
REMARK  2 active torsions:
REMARK  status: ('A' for Active; 'I' for Inactive)
REMARK    1  A    between atoms: C_1  and  C_2
REMARK    2  A    between atoms: C_9  and  O_15
REMARK                            x       y       z     vdW  Elec       q    Type
REMARK                         _______ _______ _______ _____ _____    ______ ____
ROOT
ATOM      1  C   UNL     1      85.673  57.678  44.030  0.00  0.00    -0.032 C 
ATOM      2  C   UNL     1      85.683  56.442  44.898  0.00  0.00    +0.042 C 
ATOM      3  C   UNL     1      84.976  56.414  46.047  0.00  0.00    +0.131 C 
ATOM      4  O   UNL     1      84.225  57.552  46.374  0.00  0.00    -0.506 OA
ATOM      5  C   UNL     1      84.995  55.203  46.943  0.00  0.00    +0.031 A 
ATOM      6  C   UNL     1      84.343  55.220  48.194  0.00  0.00    -0.050 A 
ATOM      7  C   UNL     1      84.366  54.105  49.028  0.00  0.00    -0.058 A 
ATOM      8  C   UNL     1      85.077  52.971  48.662  0.00  0.00    -0.019 A 
ATOM      9  C   UNL     1      85.779  52.930  47.456  0.00  0.00    +0.128 A 
ATOM     10  C   UNL     1      85.698  54.028  46.554  0.00  0.00    +0.077 A 
ATOM     11  C   UNL     1      86.296  53.991  45.195  0.00  0.00    +0.237 C 
ATOM     12  O   UNL     1      86.668  52.911  44.665  0.00  0.00    -0.283 OA
ATOM     13  C   UNL     1      86.374  55.228  44.417  0.00  0.00    +0.232 C 
ATOM     14  O   UNL     1      86.999  55.235  43.321  0.00  0.00    -0.283 OA
ENDROOT
BRANCH   9  15
ATOM     15  O   UNL     1      86.564  51.797  47.221  0.00  0.00    -0.506 OA
ATOM     16  H   UNL     1      87.371  51.877  46.751  0.00  0.00    +0.000 HD
ENDBRANCH   9  15
TORSDOF 1
ENDMDL
MODEL 4
REMARK VINA RESULT:    -6.449      3.427      4.293
REMARK INTER + INTRA:          -6.637
REMARK INTER:                  -6.637
REMARK INTRA:                   0.000
REMARK UNBOUND:                 0.000
REMARK  Name = 
REMARK  2 active torsions:
REMARK  status: ('A' for Active; 'I' for Inactive)
REMARK    1  A    between atoms: C_1  and  C_2
REMARK    2  A    between atoms: C_9  and  O_15
REMARK                            x       y       z     vdW  Elec       q    Type
REMARK                         _______ _______ _______ _____ _____    ______ ____
ROOT
ATOM      1  C   UNL     1      83.641  51.388  43.139  0.00  0.00    -0.032 C 
ATOM      2  C   UNL     1      84.102  52.809  43.362  0.00  0.00    +0.042 C 
ATOM      3  C   UNL     1      84.632  53.172  44.549  0.00  0.00    +0.131 C 
ATOM      4  O   UNL     1      84.757  52.183  45.533  0.00  0.00    -0.506 OA
ATOM      5  C   UNL     1      85.070  54.591  44.803  0.00  0.00    +0.031 A 
ATOM      6  C   UNL     1      85.521  54.990  46.080  0.00  0.00    -0.050 A 
ATOM      7  C   UNL     1      85.918  56.302  46.320  0.00  0.00    -0.058 A 
ATOM      8  C   UNL     1      85.831  57.256  45.315  0.00  0.00    -0.019 A 
ATOM      9  C   UNL     1      85.343  56.916  44.053  0.00  0.00    +0.128 A 
ATOM     10  C   UNL     1      85.010  55.563  43.765  0.00  0.00    +0.077 A 
ATOM     11  C   UNL     1      84.628  55.107  42.404  0.00  0.00    +0.237 C 
ATOM     12  O   UNL     1      84.833  55.818  41.385  0.00  0.00    -0.283 OA
ATOM     13  C   UNL     1      84.080  53.760  42.232  0.00  0.00    +0.232 C 
ATOM     14  O   UNL     1      83.627  53.413  41.107  0.00  0.00    -0.283 OA
ENDROOT
BRANCH   9  15
ATOM     15  O   UNL     1      85.176  57.961  43.139  0.00  0.00    -0.506 OA
ATOM     16  H   UNL     1      85.797  58.662  43.111  0.00  0.00    +0.000 HD
ENDBRANCH   9  15
TORSDOF 1
ENDMDL
MODEL 5
REMARK VINA RESULT:    -6.393      1.520      5.073
REMARK INTER + INTRA:          -6.580
REMARK INTER:                  -6.580
REMARK INTRA:                   0.000
REMARK UNBOUND:                 0.000
REMARK  Name = 
REMARK  2 active torsions:
REMARK  status: ('A' for Active; 'I' for Inactive)
REMARK    1  A    between atoms: C_1  and  C_2
REMARK    2  A    between atoms: C_9  and  O_15
REMARK                            x       y       z     vdW  Elec       q    Type
REMARK                         _______ _______ _______ _____ _____    ______ ____
ROOT
ATOM      1  C   UNL     1      84.088  56.857  46.590  0.00  0.00    -0.032 C 
ATOM      2  C   UNL     1      84.838  55.548  46.514  0.00  0.00    +0.042 C 
ATOM      3  C   UNL     1      84.827  54.698  47.563  0.00  0.00    +0.131 C 
ATOM      4  O   UNL     1      84.080  55.068  48.689  0.00  0.00    -0.506 OA
ATOM      5  C   UNL     1      85.593  53.401  47.520  0.00  0.00    +0.031 A 
ATOM      6  C   UNL     1      85.667  52.569  48.657  0.00  0.00    -0.050 A 
ATOM      7  C   UNL     1      86.381  51.374  48.624  0.00  0.00    -0.058 A 
ATOM      8  C   UNL     1      87.075  51.005  47.480  0.00  0.00    -0.019 A 
ATOM      9  C   UNL     1      87.070  51.823  46.349  0.00  0.00    +0.128 A 
ATOM     10  C   UNL     1      86.279  53.006  46.337  0.00  0.00    +0.077 A 
ATOM     11  C   UNL     1      86.111  53.842  45.121  0.00  0.00    +0.237 C 
ATOM     12  O   UNL     1      86.428  53.419  43.978  0.00  0.00    -0.283 OA
ATOM     13  C   UNL     1      85.478  55.156  45.242  0.00  0.00    +0.232 C 
ATOM     14  O   UNL     1      85.452  55.928  44.244  0.00  0.00    -0.283 OA
ENDROOT
BRANCH   9  15
ATOM     15  O   UNL     1      87.890  51.435  45.285  0.00  0.00    -0.506 OA
ATOM     16  H   UNL     1      88.505  50.737  45.399  0.00  0.00    +0.000 HD
ENDBRANCH   9  15
TORSDOF 1
ENDMDL
MODEL 6
REMARK VINA RESULT:    -6.393      2.032      3.797
REMARK INTER + INTRA:          -6.580
REMARK INTER:                  -6.580
REMARK INTRA:                   0.000
REMARK UNBOUND:                 0.000
REMARK  Name = 
REMARK  2 active torsions:
REMARK  status: ('A' for Active; 'I' for Inactive)
REMARK    1  A    between atoms: C_1  and  C_2
REMARK    2  A    between atoms: C_9  and  O_15
REMARK                            x       y       z     vdW  Elec       q    Type
REMARK                         _______ _______ _______ _____ _____    ______ ____
ROOT
ATOM      1  C   UNL     1      87.094  53.102  42.714  0.00  0.00    -0.032 C 
ATOM      2  C   UNL     1      86.325  53.848  43.778  0.00  0.00    +0.042 C 
ATOM      3  C   UNL     1      86.385  53.446  45.066  0.00  0.00    +0.131 C 
ATOM      4  O   UNL     1      87.198  52.344  45.364  0.00  0.00    -0.506 OA
ATOM      5  C   UNL     1      85.603  54.157  46.139  0.00  0.00    +0.031 A 
ATOM      6  C   UNL     1      85.582  53.667  47.462  0.00  0.00    -0.050 A 
ATOM      7  C   UNL     1      84.853  54.317  48.455  0.00  0.00    -0.058 A 
ATOM      8  C   UNL     1      84.092  55.436  48.146  0.00  0.00    -0.019 A 
ATOM      9  C   UNL     1      84.044  55.925  46.839  0.00  0.00    +0.128 A 
ATOM     10  C   UNL     1      84.846  55.323  45.830  0.00  0.00    +0.077 A 
ATOM     11  C   UNL     1      84.956  55.882  44.459  0.00  0.00    +0.237 C 
ATOM     12  O   UNL     1      84.571  57.049  44.186  0.00  0.00    -0.283 OA
ATOM     13  C   UNL     1      85.610  55.089  43.416  0.00  0.00    +0.232 C 
ATOM     14  O   UNL     1      85.590  55.494  42.222  0.00  0.00    -0.283 OA
ENDROOT
BRANCH   9  15
ATOM     15  O   UNL     1      83.161  56.980  46.592  0.00  0.00    -0.506 OA
ATOM     16  H   UNL     1      83.481  57.860  46.561  0.00  0.00    +0.000 HD
ENDBRANCH   9  15
TORSDOF 1
ENDMDL
MODEL 7
REMARK VINA RESULT:    -6.334      7.190      8.615
REMARK INTER + INTRA:          -6.519
REMARK INTER:                  -6.519
REMARK INTRA:                   0.000
REMARK UNBOUND:                 0.000
REMARK  Name = 
REMARK  2 active torsions:
REMARK  status: ('A' for Active; 'I' for Inactive)
REMARK    1  A    between atoms: C_1  and  C_2
REMARK    2  A    between atoms: C_9  and  O_15
REMARK                            x       y       z     vdW  Elec       q    Type
REMARK                         _______ _______ _______ _____ _____    ______ ____
ROOT
ATOM      1  C   UNL     1      85.394  44.983  43.132  0.00  0.00    -0.032 C 
ATOM      2  C   UNL     1      86.257  46.215  42.994  0.00  0.00    +0.042 C 
ATOM      3  C   UNL     1      87.456  46.138  42.379  0.00  0.00    +0.131 C 
ATOM      4  O   UNL     1      87.841  44.894  41.862  0.00  0.00    -0.506 OA
ATOM      5  C   UNL     1      88.346  47.348  42.256  0.00  0.00    +0.031 A 
ATOM      6  C   UNL     1      89.643  47.238  41.711  0.00  0.00    -0.050 A 
ATOM      7  C   UNL     1      90.471  48.352  41.604  0.00  0.00    -0.058 A 
ATOM      8  C   UNL     1      90.049  49.586  42.080  0.00  0.00    -0.019 A 
ATOM      9  C   UNL     1      88.794  49.729  42.672  0.00  0.00    +0.128 A 
ATOM     10  C   UNL     1      87.903  48.621  42.716  0.00  0.00    +0.077 A 
ATOM     11  C   UNL     1      86.503  48.740  43.195  0.00  0.00    +0.237 C 
ATOM     12  O   UNL     1      85.943  49.859  43.336  0.00  0.00    -0.283 OA
ATOM     13  C   UNL     1      85.723  47.523  43.427  0.00  0.00    +0.232 C 
ATOM     14  O   UNL     1      84.583  47.606  43.961  0.00  0.00    -0.283 OA
ENDROOT
BRANCH   9  15
ATOM     15  O   UNL     1      88.498  50.976  43.231  0.00  0.00    -0.506 OA
ATOM     16  H   UNL     1      88.178  51.669  42.687  0.00  0.00    +0.000 HD
ENDBRANCH   9  15
TORSDOF 1
ENDMDL
MODEL 8
REMARK VINA RESULT:    -6.314      1.917      3.553
REMARK INTER + INTRA:          -6.499
REMARK INTER:                  -6.499
REMARK INTRA:                   0.000
REMARK UNBOUND:                 0.000
REMARK  Name = 
REMARK  2 active torsions:
REMARK  status: ('A' for Active; 'I' for Inactive)
REMARK    1  A    between atoms: C_1  and  C_2
REMARK    2  A    between atoms: C_9  and  O_15
REMARK                            x       y       z     vdW  Elec       q    Type
REMARK                         _______ _______ _______ _____ _____    ______ ____
ROOT
ATOM      1  C   UNL     1      87.602  50.206  46.572  0.00  0.00    -0.032 C 
ATOM      2  C   UNL     1      86.861  51.518  46.483  0.00  0.00    +0.042 C 
ATOM      3  C   UNL     1      86.239  52.021  47.570  0.00  0.00    +0.131 C 
ATOM      4  O   UNL     1      86.335  51.297  48.766  0.00  0.00    -0.506 OA
ATOM      5  C   UNL     1      85.468  53.314  47.497  0.00  0.00    +0.031 A 
ATOM      6  C   UNL     1      84.730  53.778  48.606  0.00  0.00    -0.050 A 
ATOM      7  C   UNL     1      84.010  54.968  48.539  0.00  0.00    -0.058 A 
ATOM      8  C   UNL     1      83.967  55.695  47.357  0.00  0.00    -0.019 A 
ATOM      9  C   UNL     1      84.641  55.246  46.221  0.00  0.00    +0.128 A 
ATOM     10  C   UNL     1      85.449  54.076  46.295  0.00  0.00    +0.077 A 
ATOM     11  C   UNL     1      86.308  53.627  45.170  0.00  0.00    +0.237 C 
ATOM     12  O   UNL     1      86.580  54.382  44.201  0.00  0.00    -0.283 OA
ATOM     13  C   UNL     1      86.927  52.302  45.232  0.00  0.00    +0.232 C 
ATOM     14  O   UNL     1      87.546  51.857  44.227  0.00  0.00    -0.283 OA
ENDROOT
BRANCH   9  15
ATOM     15  O   UNL     1      84.448  55.973  45.043  0.00  0.00    -0.506 OA
ATOM     16  H   UNL     1      84.615  56.895  45.029  0.00  0.00    +0.000 HD
ENDBRANCH   9  15
TORSDOF 1
ENDMDL
MODEL 9
REMARK VINA RESULT:    -6.288      4.337      6.093
REMARK INTER + INTRA:          -6.471
REMARK INTER:                  -6.471
REMARK INTRA:                   0.000
REMARK UNBOUND:                 0.000
REMARK  Name = 
REMARK  2 active torsions:
REMARK  status: ('A' for Active; 'I' for Inactive)
REMARK    1  A    between atoms: C_1  and  C_2
REMARK    2  A    between atoms: C_9  and  O_15
REMARK                            x       y       z     vdW  Elec       q    Type
REMARK                         _______ _______ _______ _____ _____    ______ ____
ROOT
ATOM      1  C   UNL     1      86.023  52.043  46.562  0.00  0.00    -0.032 C 
ATOM      2  C   UNL     1      86.738  52.068  45.232  0.00  0.00    +0.042 C 
ATOM      3  C   UNL     1      87.468  51.005  44.834  0.00  0.00    +0.131 C 
ATOM      4  O   UNL     1      87.508  49.891  45.683  0.00  0.00    -0.506 OA
ATOM      5  C   UNL     1      88.213  51.020  43.524  0.00  0.00    +0.031 A 
ATOM      6  C   UNL     1      89.062  49.952  43.164  0.00  0.00    -0.050 A 
ATOM      7  C   UNL     1      89.759  49.966  41.959  0.00  0.00    -0.058 A 
ATOM      8  C   UNL     1      89.667  51.061  41.110  0.00  0.00    -0.019 A 
ATOM      9  C   UNL     1      88.878  52.160  41.450  0.00  0.00    +0.128 A 
ATOM     10  C   UNL     1      88.095  52.128  42.638  0.00  0.00    +0.077 A 
ATOM     11  C   UNL     1      87.124  53.197  42.984  0.00  0.00    +0.237 C 
ATOM     12  O   UNL     1      86.742  54.045  42.136  0.00  0.00    -0.283 OA
ATOM     13  C   UNL     1      86.528  53.213  44.321  0.00  0.00    +0.232 C 
ATOM     14  O   UNL     1      85.810  54.188  44.670  0.00  0.00    -0.283 OA
ENDROOT
BRANCH   9  15
ATOM     15  O   UNL     1      88.936  53.267  40.598  0.00  0.00    -0.506 OA
ATOM     16  H   UNL     1      89.719  53.445  40.115  0.00  0.00    +0.000 HD
ENDBRANCH   9  15
TORSDOF 1
ENDMDL
