MODEL 1
REMARK VINA RESULT:    -6.846      0.000      0.000
REMARK INTER + INTRA:          -7.047
REMARK INTER:                  -7.047
REMARK INTRA:                   0.000
REMARK UNBOUND:                 0.000
REMARK  Name = 
REMARK  2 active torsions:
REMARK  status: ('A' for Active; 'I' for Inactive)
REMARK    1  A    between atoms: C_1  and  C_2
REMARK    2  A    between atoms: C_9  and  O_15
REMARK                            x       y       z     vdW  Elec       q    Type
REMARK                         _______ _______ _______ _____ _____    ______ ____
ROOT
ATOM      1  C   UNL     1      86.096  51.793  48.465  0.00  0.00    -0.032 C 
ATOM      2  C   UNL     1      85.603  53.131  47.966  0.00  0.00    +0.042 C 
ATOM      3  C   UNL     1      86.216  53.736  46.927  0.00  0.00    +0.131 C 
ATOM      4  O   UNL     1      87.291  53.065  46.329  0.00  0.00    -0.506 OA
ATOM      5  C   UNL     1      85.759  55.084  46.432  0.00  0.00    +0.031 A 
ATOM      6  C   UNL     1      86.472  55.760  45.419  0.00  0.00    -0.050 A 
ATOM      7  C   UNL     1      86.057  57.010  44.966  0.00  0.00    -0.058 A 
ATOM      8  C   UNL     1      84.959  57.635  45.541  0.00  0.00    -0.019 A 
ATOM      9  C   UNL     1      84.257  57.024  46.580  0.00  0.00    +0.128 A 
ATOM     10  C   UNL     1      84.615  55.712  47.000  0.00  0.00    +0.077 A 
ATOM     11  C   UNL     1      83.821  54.947  47.994  0.00  0.00    +0.237 C 
ATOM     12  O   UNL     1      82.655  55.293  48.319  0.00  0.00    -0.283 OA
ATOM     13  C   UNL     1      84.372  53.708  48.545  0.00  0.00    +0.232 C 
ATOM     14  O   UNL     1      83.769  53.123  49.486  0.00  0.00    -0.283 OA
ENDROOT
BRANCH   9  15
ATOM     15  O   UNL     1      83.241  57.773  47.181  0.00  0.00    -0.506 OA
ATOM     16  H   UNL     1      83.238  57.897  48.110  0.00  0.00    +0.000 HD
ENDBRANCH   9  15
TORSDOF 1
ENDMDL
MODEL 2
REMARK VINA RESULT:    -6.651      2.741      5.295
REMARK INTER + INTRA:          -6.845
REMARK INTER:                  -6.845
REMARK INTRA:                   0.000
REMARK UNBOUND:                 0.000
REMARK  Name = 
REMARK  2 active torsions:
REMARK  status: ('A' for Active; 'I' for Inactive)
REMARK    1  A    between atoms: C_1  and  C_2
REMARK    2  A    between atoms: C_9  and  O_15
REMARK                            x       y       z     vdW  Elec       q    Type
REMARK                         _______ _______ _______ _____ _____    ______ ____
ROOT
ATOM      1  C   UNL     1      84.999  58.238  46.201  0.00  0.00    -0.032 C 
ATOM      2  C   UNL     1      85.422  56.982  45.477  0.00  0.00    +0.042 C 
ATOM      3  C   UNL     1      85.765  55.879  46.176  0.00  0.00    +0.131 C 
ATOM      4  O   UNL     1      85.686  55.946  47.573  0.00  0.00    -0.506 OA
ATOM      5  C   UNL     1      86.219  54.625  45.475  0.00  0.00    +0.031 A 
ATOM      6  C   UNL     1      86.681  53.513  46.211  0.00  0.00    -0.050 A 
ATOM      7  C   UNL     1      87.109  52.355  45.566  0.00  0.00    -0.058 A 
ATOM      8  C   UNL     1      87.134  52.294  44.180  0.00  0.00    -0.019 A 
ATOM      9  C   UNL     1      86.733  53.389  43.413  0.00  0.00    +0.128 A 
ATOM     10  C   UNL     1      86.215  54.550  44.053  0.00  0.00    +0.077 A 
ATOM     11  C   UNL     1      85.636  55.688  43.296  0.00  0.00    +0.237 C 
ATOM     12  O   UNL     1      85.323  55.585  42.081  0.00  0.00    -0.283 OA
ATOM     13  C   UNL     1      85.337  56.935  44.003  0.00  0.00    +0.232 C 
ATOM     14  O   UNL     1      84.972  57.949  43.347  0.00  0.00    -0.283 OA
ENDROOT
BRANCH   9  15
ATOM     15  O   UNL     1      86.903  53.286  42.029  0.00  0.00    -0.506 OA
ATOM     16  H   UNL     1      86.749  54.031  41.481  0.00  0.00    +0.000 HD
ENDBRANCH   9  15
TORSDOF 1
ENDMDL
MODEL 3
REMARK VINA RESULT:    -6.545      1.961      3.825
REMARK INTER + INTRA:          -6.736
REMARK INTER:                  -6.736
REMARK INTRA:                   0.000
REMARK UNBOUND:                 0.000
REMARK  Name = 
REMARK  2 active torsions:
REMARK  status: ('A' for Active; 'I' for Inactive)
REMARK    1  A    between atoms: C_1  and  C_2
REMARK    2  A    between atoms: C_9  and  O_15
REMARK                            x       y       z     vdW  Elec       q    Type
REMARK                         _______ _______ _______ _____ _____    ______ ____
ROOT
ATOM      1  C   UNL     1      86.995  53.529  43.135  0.00  0.00    -0.032 C 
ATOM      2  C   UNL     1      86.192  54.185  44.232  0.00  0.00    +0.042 C 
ATOM      3  C   UNL     1      86.178  53.654  45.473  0.00  0.00    +0.131 C 
ATOM      4  O   UNL     1      86.951  52.507  45.696  0.00  0.00    -0.506 OA
ATOM      5  C   UNL     1      85.360  54.275  46.575  0.00  0.00    +0.031 A 
ATOM      6  C   UNL     1      85.263  53.655  47.839  0.00  0.00    -0.050 A 
ATOM      7  C   UNL     1      84.500  54.221  48.857  0.00  0.00    -0.058 A 
ATOM      8  C   UNL     1      83.780  55.385  48.628  0.00  0.00    -0.019 A 
ATOM      9  C   UNL     1      83.807  56.004  47.377  0.00  0.00    +0.128 A 
ATOM     10  C   UNL     1      84.645  55.486  46.351  0.00  0.00    +0.077 A 
ATOM     11  C   UNL     1      84.836  56.176  45.050  0.00  0.00    +0.237 C 
ATOM     12  O   UNL     1      84.490  57.374  44.880  0.00  0.00    -0.283 OA
ATOM     13  C   UNL     1      85.523  55.475  43.965  0.00  0.00    +0.232 C 
ATOM     14  O   UNL     1      85.570  55.998  42.818  0.00  0.00    -0.283 OA
ENDROOT
BRANCH   9  15
ATOM     15  O   UNL     1      82.961  57.102  47.198  0.00  0.00    -0.506 OA
ATOM     16  H   UNL     1      83.230  57.816  46.654  0.00  0.00    +0.000 HD
ENDBRANCH   9  15
TORSDOF 1
ENDMDL
MODEL 4
REMARK VINA RESULT:    -6.541      1.924      3.548
REMARK INTER + INTRA:          -6.733
REMARK INTER:                  -6.733
REMARK INTRA:                   0.000
REMARK UNBOUND:                 0.000
REMARK  Name = 
REMARK  2 active torsions:
REMARK  status: ('A' for Active; 'I' for Inactive)
REMARK    1  A    between atoms: C_1  and  C_2
REMARK    2  A    between atoms: C_9  and  O_15
REMARK                            x       y       z     vdW  Elec       q    Type
REMARK                         _______ _______ _______ _____ _____    ______ ____
ROOT
ATOM      1  C   UNL     1      87.420  50.408  47.106  0.00  0.00    -0.032 C 
ATOM      2  C   UNL     1      86.691  51.721  46.951  0.00  0.00    +0.042 C 
ATOM      3  C   UNL     1      86.031  52.257  47.999  0.00  0.00    +0.131 C 
ATOM      4  O   UNL     1      86.077  51.567  49.218  0.00  0.00    -0.506 OA
ATOM      5  C   UNL     1      85.271  53.551  47.860  0.00  0.00    +0.031 A 
ATOM      6  C   UNL     1      84.494  54.051  48.926  0.00  0.00    -0.050 A 
ATOM      7  C   UNL     1      83.784  55.242  48.798  0.00  0.00    -0.058 A 
ATOM      8  C   UNL     1      83.790  55.935  47.595  0.00  0.00    -0.019 A 
ATOM      9  C   UNL     1      84.505  55.450  46.499  0.00  0.00    +0.128 A 
ATOM     10  C   UNL     1      85.302  54.279  46.636  0.00  0.00    +0.077 A 
ATOM     11  C   UNL     1      86.201  53.793  45.559  0.00  0.00    +0.237 C 
ATOM     12  O   UNL     1      86.514  54.520  44.579  0.00  0.00    -0.283 OA
ATOM     13  C   UNL     1      86.810  52.468  45.682  0.00  0.00    +0.232 C 
ATOM     14  O   UNL     1      87.464  51.991  44.715  0.00  0.00    -0.283 OA
ENDROOT
BRANCH   9  15
ATOM     15  O   UNL     1      84.361  56.145  45.294  0.00  0.00    -0.506 OA
ATOM     16  H   UNL     1      84.570  57.057  45.252  0.00  0.00    +0.000 HD
ENDBRANCH   9  15
TORSDOF 1
ENDMDL
MODEL 5
REMARK VINA RESULT:    -6.412      2.219      3.791
REMARK INTER + INTRA:          -6.600
REMARK INTER:                  -6.600
REMARK INTRA:                   0.000
REMARK UNBOUND:                 0.000
REMARK  Name = 
REMARK  2 active torsions:
REMARK  status: ('A' for Active; 'I' for Inactive)
REMARK    1  A    between atoms: C_1  and  C_2
REMARK    2  A    between atoms: C_9  and  O_15
REMARK                            x       y       z     vdW  Elec       q    Type
REMARK                         _______ _______ _______ _____ _____    ______ ____
ROOT
ATOM      1  C   UNL     1      87.239  51.868  44.233  0.00  0.00    -0.032 C 
ATOM      2  C   UNL     1      86.501  53.108  44.679  0.00  0.00    +0.042 C 
ATOM      3  C   UNL     1      85.961  53.169  45.915  0.00  0.00    +0.131 C 
ATOM      4  O   UNL     1      86.139  52.062  46.755  0.00  0.00    -0.506 OA
ATOM      5  C   UNL     1      85.195  54.384  46.369  0.00  0.00    +0.031 A 
ATOM      6  C   UNL     1      84.540  54.399  47.619  0.00  0.00    -0.050 A 
ATOM      7  C   UNL     1      83.824  55.517  48.039  0.00  0.00    -0.058 A 
ATOM      8  C   UNL     1      83.701  56.622  47.208  0.00  0.00    -0.019 A 
ATOM      9  C   UNL     1      84.290  56.630  45.943  0.00  0.00    +0.128 A 
ATOM     10  C   UNL     1      85.094  55.531  45.531  0.00  0.00    +0.077 A 
ATOM     11  C   UNL     1      85.868  55.537  44.264  0.00  0.00    +0.237 C 
ATOM     12  O   UNL     1      86.074  56.599  43.619  0.00  0.00    -0.283 OA
ATOM     13  C   UNL     1      86.483  54.294  43.797  0.00  0.00    +0.232 C 
ATOM     14  O   UNL     1      87.026  54.257  42.659  0.00  0.00    -0.283 OA
ENDROOT
BRANCH   9  15
ATOM     15  O   UNL     1      84.018  57.732  45.126  0.00  0.00    -0.506 OA
ATOM     16  H   UNL     1      83.329  57.685  44.493  0.00  0.00    +0.000 HD
ENDBRANCH   9  15
TORSDOF 1
ENDMDL
MODEL 6
REMARK VINA RESULT:    -6.361      5.555      7.394
REMARK INTER + INTRA:          -6.547
REMARK INTER:                  -6.547
REMARK INTRA:                   0.000
REMARK UNBOUND:                 0.000
REMARK  Name = 
REMARK  2 active torsions:
REMARK  status: ('A' for Active; 'I' for Inactive)
REMARK    1  A    between atoms: C_1  and  C_2
REMARK    2  A    between atoms: C_9  and  O_15
REMARK                            x       y       z     vdW  Elec       q    Type
REMARK                         _______ _______ _______ _____ _____    ______ ____
ROOT
ATOM      1  C   UNL     1      90.151  48.695  41.311  0.00  0.00    -0.032 C 
ATOM      2  C   UNL     1      89.333  49.885  41.751  0.00  0.00    +0.042 C 
ATOM      3  C   UNL     1      88.971  50.019  43.045  0.00  0.00    +0.131 C 
ATOM      4  O   UNL     1      89.405  49.036  43.944  0.00  0.00    -0.506 OA
ATOM      5  C   UNL     1      88.130  51.183  43.501  0.00  0.00    +0.031 A 
ATOM      6  C   UNL     1      87.664  51.259  44.831  0.00  0.00    -0.050 A 
ATOM      7  C   UNL     1      86.879  52.329  45.253  0.00  0.00    -0.058 A 
ATOM      8  C   UNL     1      86.500  53.318  44.355  0.00  0.00    -0.019 A 
ATOM      9  C   UNL     1      86.898  53.254  43.019  0.00  0.00    +0.128 A 
ATOM     10  C   UNL     1      87.767  52.213  42.589  0.00  0.00    +0.077 A 
ATOM     11  C   UNL     1      88.346  52.170  41.222  0.00  0.00    +0.237 C 
ATOM     12  O   UNL     1      88.322  53.172  40.460  0.00  0.00    -0.283 OA
ATOM     13  C   UNL     1      89.040  50.959  40.780  0.00  0.00    +0.232 C 
ATOM     14  O   UNL     1      89.415  50.860  39.580  0.00  0.00    -0.283 OA
ENDROOT
BRANCH   9  15
ATOM     15  O   UNL     1      86.374  54.224  42.159  0.00  0.00    -0.506 OA
ATOM     16  H   UNL     1      86.944  54.854  41.762  0.00  0.00    +0.000 HD
ENDBRANCH   9  15
TORSDOF 1
ENDMDL
MODEL 7
REMARK VINA RESULT:    -6.344      3.582      4.492
REMARK INTER + INTRA:          -6.529
REMARK INTER:                  -6.529
REMARK INTRA:                   0.000
REMARK UNBOUND:                 0.000
REMARK  Name = 
REMARK  2 active torsions:
REMARK  status: ('A' for Active; 'I' for Inactive)
REMARK    1  A    between atoms: C_1  and  C_2
REMARK    2  A    between atoms: C_9  and  O_15
REMARK                            x       y       z     vdW  Elec       q    Type
REMARK                         _______ _______ _______ _____ _____    ______ ____
ROOT
ATOM      1  C   UNL     1      83.547  51.403  43.412  0.00  0.00    -0.032 C 
ATOM      2  C   UNL     1      84.022  52.825  43.594  0.00  0.00    +0.042 C 
ATOM      3  C   UNL     1      84.471  53.241  44.797  0.00  0.00    +0.131 C 
ATOM      4  O   UNL     1      84.502  52.303  45.838  0.00  0.00    -0.506 OA
ATOM      5  C   UNL     1      84.921  54.663  45.009  0.00  0.00    +0.031 A 
ATOM      6  C   UNL     1      85.286  55.122  46.293  0.00  0.00    -0.050 A 
ATOM      7  C   UNL     1      85.694  56.437  46.494  0.00  0.00    -0.058 A 
ATOM      8  C   UNL     1      85.701  57.338  45.437  0.00  0.00    -0.019 A 
ATOM      9  C   UNL     1      85.300  56.940  44.162  0.00  0.00    +0.128 A 
ATOM     10  C   UNL     1      84.959  55.580  43.920  0.00  0.00    +0.077 A 
ATOM     11  C   UNL     1      84.667  55.059  42.561  0.00  0.00    +0.237 C 
ATOM     12  O   UNL     1      84.961  55.710  41.524  0.00  0.00    -0.283 OA
ATOM     13  C   UNL     1      84.103  53.715  42.418  0.00  0.00    +0.232 C 
ATOM     14  O   UNL     1      83.727  53.316  41.282  0.00  0.00    -0.283 OA
ENDROOT
BRANCH   9  15
ATOM     15  O   UNL     1      85.223  57.937  43.184  0.00  0.00    -0.506 OA
ATOM     16  H   UNL     1      85.998  58.211  42.734  0.00  0.00    +0.000 HD
ENDBRANCH   9  15
TORSDOF 1
ENDMDL
MODEL 8
REMARK VINA RESULT:    -6.326      1.550      3.258
REMARK INTER + INTRA:          -6.511
REMARK INTER:                  -6.511
REMARK INTRA:                   0.000
REMARK UNBOUND:                 0.000
REMARK  Name = 
REMARK  2 active torsions:
REMARK  status: ('A' for Active; 'I' for Inactive)
REMARK    1  A    between atoms: C_1  and  C_2
REMARK    2  A    between atoms: C_9  and  O_15
REMARK                            x       y       z     vdW  Elec       q    Type
REMARK                         _______ _______ _______ _____ _____    ______ ____
ROOT
ATOM      1  C   UNL     1      84.015  53.036  48.783  0.00  0.00    -0.032 C 
ATOM      2  C   UNL     1      84.530  53.872  47.637  0.00  0.00    +0.042 C 
ATOM      3  C   UNL     1      84.359  55.211  47.643  0.00  0.00    +0.131 C 
ATOM      4  O   UNL     1      83.719  55.778  48.753  0.00  0.00    -0.506 OA
ATOM      5  C   UNL     1      84.839  56.061  46.495  0.00  0.00    +0.031 A 
ATOM      6  C   UNL     1      84.561  57.444  46.455  0.00  0.00    -0.050 A 
ATOM      7  C   UNL     1      84.996  58.231  45.392  0.00  0.00    -0.058 A 
ATOM      8  C   UNL     1      85.671  57.655  44.324  0.00  0.00    -0.019 A 
ATOM      9  C   UNL     1      85.922  56.283  44.299  0.00  0.00    +0.128 A 
ATOM     10  C   UNL     1      85.559  55.477  45.414  0.00  0.00    +0.077 A 
ATOM     11  C   UNL     1      85.928  54.043  45.517  0.00  0.00    +0.237 C 
ATOM     12  O   UNL     1      86.800  53.528  44.770  0.00  0.00    -0.283 OA
ATOM     13  C   UNL     1      85.328  53.226  46.574  0.00  0.00    +0.232 C 
ATOM     14  O   UNL     1      85.529  51.981  46.588  0.00  0.00    -0.283 OA
ENDROOT
BRANCH   9  15
ATOM     15  O   UNL     1      86.500  55.768  43.135  0.00  0.00    -0.506 OA
ATOM     16  H   UNL     1      87.177  55.124  43.194  0.00  0.00    +0.000 HD
ENDBRANCH   9  15
TORSDOF 1
ENDMDL
MODEL 9
REMARK VINA RESULT:    -6.316      7.578      9.019
REMARK INTER + INTRA:          -6.501
REMARK INTER:                  -6.501
REMARK INTRA:                   0.000
REMARK UNBOUND:                 0.000
REMARK  Name = 
REMARK  2 active torsions:
REMARK  status: ('A' for Active; 'I' for Inactive)
REMARK    1  A    between atoms: C_1  and  C_2
REMARK    2  A    between atoms: C_9  and  O_15
REMARK                            x       y       z     vdW  Elec       q    Type
REMARK                         _______ _______ _______ _____ _____    ______ ____
ROOT
ATOM      1  C   UNL     1      85.612  44.604  43.493  0.00  0.00    -0.032 C 
ATOM      2  C   UNL     1      86.379  45.896  43.341  0.00  0.00    +0.042 C 
ATOM      3  C   UNL     1      87.544  45.918  42.659  0.00  0.00    +0.131 C 
ATOM      4  O   UNL     1      87.983  44.716  42.087  0.00  0.00    -0.506 OA
ATOM      5  C   UNL     1      88.340  47.189  42.521  0.00  0.00    +0.031 A 
ATOM      6  C   UNL     1      89.608  47.183  41.901  0.00  0.00    -0.050 A 
ATOM      7  C   UNL     1      90.351  48.355  41.780  0.00  0.00    -0.058 A 
ATOM      8  C   UNL     1      89.874  49.545  42.312  0.00  0.00    -0.019 A 
ATOM      9  C   UNL     1      88.648  49.585  42.977  0.00  0.00    +0.128 A 
ATOM     10  C   UNL     1      87.838  48.416  43.039  0.00  0.00    +0.077 A 
ATOM     11  C   UNL     1      86.463  48.426  43.599  0.00  0.00    +0.237 C 
ATOM     12  O   UNL     1      85.838  49.500  43.801  0.00  0.00    -0.283 OA
ATOM     13  C   UNL     1      85.783  47.152  43.840  0.00  0.00    +0.232 C 
ATOM     14  O   UNL     1      84.673  47.144  44.438  0.00  0.00    -0.283 OA
ENDROOT
BRANCH   9  15
ATOM     15  O   UNL     1      88.300  50.795  43.586  0.00  0.00    -0.506 OA
ATOM     16  H   UNL     1      88.812  51.125  44.298  0.00  0.00    +0.000 HD
ENDBRANCH   9  15
TORSDOF 1
ENDMDL
