MODEL 1
REMARK VINA RESULT:    -6.867      0.000      0.000
REMARK INTER + INTRA:          -7.925
REMARK INTER:                  -7.683
REMARK INTRA:                  -0.242
REMARK UNBOUND:                -0.255
REMARK  Name = 
REMARK  3 active torsions:
REMARK  status: ('A' for Active; 'I' for Inactive)
REMARK    1  A    between atoms: C_1  and  C_2
REMARK    2  A    between atoms: C_2  and  C_4
REMARK    3  A    between atoms: C_5  and  C_6
REMARK                            x       y       z     vdW  Elec       q    Type
REMARK                         _______ _______ _______ _____ _____    ______ ____
ROOT
ATOM      1  C   UNL     1      85.882  54.328  46.338  0.00  0.00    -0.024 A 
ATOM      2  C   UNL     1      84.653  54.246  47.052  0.00  0.00    -0.053 A 
ATOM      3  C   UNL     1      83.834  55.379  47.208  0.00  0.00    -0.037 A 
ATOM      4  C   UNL     1      84.257  56.575  46.636  0.00  0.00    +0.046 A 
ATOM      5  C   UNL     1      85.429  56.660  45.935  0.00  0.00    +0.000 A 
ATOM      6  C   UNL     1      86.264  55.561  45.760  0.00  0.00    -0.045 A 
ATOM      7  C   UNL     1      85.553  57.961  45.497  0.00  0.00    -0.037 A 
ATOM      8  C   UNL     1      84.418  58.612  45.969  0.00  0.00    +0.003 A 
ATOM      9  N   UNL     1      83.628  57.761  46.663  0.00  0.00    -0.361 N 
ATOM     10  H   UNL     1      82.771  57.968  47.098  0.00  0.00    +0.000 HD
ENDROOT
BRANCH   1  12
ATOM     11  C   UNL     1      86.609  51.990  46.792  0.00  0.00    -0.059 C 
ATOM     12  C   UNL     1      86.765  53.153  46.141  0.00  0.00    -0.054 C 
BRANCH  11  14
ATOM     13  C   UNL     1      87.826  50.300  45.216  0.00  0.00    -0.040 C 
ATOM     14  C   UNL     1      87.505  50.821  46.595  0.00  0.00    -0.058 C 
ATOM     15  C   UNL     1      88.043  50.229  47.666  0.00  0.00    -0.096 C 
ENDBRANCH  11  14
ENDBRANCH   1  12
TORSDOF 2
ENDMDL
MODEL 2
REMARK VINA RESULT:    -6.702      2.401      6.009
REMARK INTER + INTRA:          -7.741
REMARK INTER:                  -7.489
REMARK INTRA:                  -0.252
REMARK UNBOUND:                -0.255
REMARK  Name = 
REMARK  3 active torsions:
REMARK  status: ('A' for Active; 'I' for Inactive)
REMARK    1  A    between atoms: C_1  and  C_2
REMARK    2  A    between atoms: C_2  and  C_4
REMARK    3  A    between atoms: C_5  and  C_6
REMARK                            x       y       z     vdW  Elec       q    Type
REMARK                         _______ _______ _______ _____ _____    ______ ____
ROOT
ATOM      1  C   UNL     1      85.984  54.342  47.177  0.00  0.00    -0.024 A 
ATOM      2  C   UNL     1      85.563  53.785  48.418  0.00  0.00    -0.053 A 
ATOM      3  C   UNL     1      85.729  52.414  48.685  0.00  0.00    -0.037 A 
ATOM      4  C   UNL     1      86.325  51.625  47.705  0.00  0.00    +0.046 A 
ATOM      5  C   UNL     1      86.746  52.154  46.517  0.00  0.00    +0.000 A 
ATOM      6  C   UNL     1      86.598  53.505  46.217  0.00  0.00    -0.045 A 
ATOM      7  C   UNL     1      87.292  51.125  45.779  0.00  0.00    -0.037 A 
ATOM      8  C   UNL     1      87.170  49.997  46.584  0.00  0.00    +0.003 A 
ATOM      9  N   UNL     1      86.579  50.307  47.760  0.00  0.00    -0.361 N 
ATOM     10  H   UNL     1      86.377  49.694  48.503  0.00  0.00    +0.000 HD
ENDROOT
BRANCH   1  12
ATOM     11  C   UNL     1      85.492  56.250  45.654  0.00  0.00    -0.059 C 
ATOM     12  C   UNL     1      85.838  55.784  46.865  0.00  0.00    -0.054 C 
BRANCH  11  14
ATOM     13  C   UNL     1      86.090  58.328  44.191  0.00  0.00    -0.040 C 
ATOM     14  C   UNL     1      85.357  57.697  45.348  0.00  0.00    -0.058 C 
ATOM     15  C   UNL     1      84.560  58.450  46.115  0.00  0.00    -0.096 C 
ENDBRANCH  11  14
ENDBRANCH   1  12
TORSDOF 2
ENDMDL
MODEL 3
REMARK VINA RESULT:    -6.618      7.372      9.325
REMARK INTER + INTRA:          -7.648
REMARK INTER:                  -7.394
REMARK INTRA:                  -0.254
REMARK UNBOUND:                -0.255
REMARK  Name = 
REMARK  3 active torsions:
REMARK  status: ('A' for Active; 'I' for Inactive)
REMARK    1  A    between atoms: C_1  and  C_2
REMARK    2  A    between atoms: C_2  and  C_4
REMARK    3  A    between atoms: C_5  and  C_6
REMARK                            x       y       z     vdW  Elec       q    Type
REMARK                         _______ _______ _______ _____ _____    ______ ____
ROOT
ATOM      1  C   UNL     1      81.467  50.146  42.782  0.00  0.00    -0.024 A 
ATOM      2  C   UNL     1      82.762  49.586  42.975  0.00  0.00    -0.053 A 
ATOM      3  C   UNL     1      82.919  48.327  43.581  0.00  0.00    -0.037 A 
ATOM      4  C   UNL     1      81.772  47.645  43.976  0.00  0.00    +0.046 A 
ATOM      5  C   UNL     1      80.524  48.167  43.782  0.00  0.00    +0.000 A 
ATOM      6  C   UNL     1      80.330  49.410  43.186  0.00  0.00    -0.045 A 
ATOM      7  C   UNL     1      79.614  47.254  44.269  0.00  0.00    -0.037 A 
ATOM      8  C   UNL     1      80.383  46.196  44.746  0.00  0.00    +0.003 A 
ATOM      9  N   UNL     1      81.701  46.439  44.564  0.00  0.00    -0.361 N 
ATOM     10  H   UNL     1      82.452  45.853  44.811  0.00  0.00    +0.000 HD
ENDROOT
BRANCH   1  12
ATOM     11  C   UNL     1      82.257  52.322  41.864  0.00  0.00    -0.059 C 
ATOM     12  C   UNL     1      81.261  51.464  42.135  0.00  0.00    -0.054 C 
BRANCH  11  14
ATOM     13  C   UNL     1      83.188  54.452  40.674  0.00  0.00    -0.040 C 
ATOM     14  C   UNL     1      82.039  53.645  41.224  0.00  0.00    -0.058 C 
ATOM     15  C   UNL     1      80.792  54.120  41.128  0.00  0.00    -0.096 C 
ENDBRANCH  11  14
ENDBRANCH   1  12
TORSDOF 2
ENDMDL
MODEL 4
REMARK VINA RESULT:    -6.473      3.208      5.153
REMARK INTER + INTRA:          -7.485
REMARK INTER:                  -7.230
REMARK INTRA:                  -0.255
REMARK UNBOUND:                -0.255
REMARK  Name = 
REMARK  3 active torsions:
REMARK  status: ('A' for Active; 'I' for Inactive)
REMARK    1  A    between atoms: C_1  and  C_2
REMARK    2  A    between atoms: C_2  and  C_4
REMARK    3  A    between atoms: C_5  and  C_6
REMARK                            x       y       z     vdW  Elec       q    Type
REMARK                         _______ _______ _______ _____ _____    ______ ____
ROOT
ATOM      1  C   UNL     1      87.637  51.064  45.255  0.00  0.00    -0.024 A 
ATOM      2  C   UNL     1      87.695  50.047  46.249  0.00  0.00    -0.053 A 
ATOM      3  C   UNL     1      87.095  50.234  47.507  0.00  0.00    -0.037 A 
ATOM      4  C   UNL     1      86.438  51.438  47.745  0.00  0.00    +0.046 A 
ATOM      5  C   UNL     1      86.364  52.415  46.791  0.00  0.00    +0.000 A 
ATOM      6  C   UNL     1      86.945  52.265  45.535  0.00  0.00    -0.045 A 
ATOM      7  C   UNL     1      85.648  53.463  47.329  0.00  0.00    -0.037 A 
ATOM      8  C   UNL     1      85.317  53.052  48.617  0.00  0.00    +0.003 A 
ATOM      9  N   UNL     1      85.801  51.813  48.866  0.00  0.00    -0.361 N 
ATOM     10  H   UNL     1      85.705  51.295  49.697  0.00  0.00    +0.000 HD
ENDROOT
BRANCH   1  12
ATOM     11  C   UNL     1      88.945  49.814  43.544  0.00  0.00    -0.059 C 
ATOM     12  C   UNL     1      88.246  50.898  43.913  0.00  0.00    -0.054 C 
BRANCH  11  14
ATOM     13  C   UNL     1      90.215  48.371  41.777  0.00  0.00    -0.040 C 
ATOM     14  C   UNL     1      89.559  49.661  42.200  0.00  0.00    -0.058 C 
ATOM     15  C   UNL     1      89.518  50.691  41.348  0.00  0.00    -0.096 C 
ENDBRANCH  11  14
ENDBRANCH   1  12
TORSDOF 2
ENDMDL
MODEL 5
REMARK VINA RESULT:    -6.444      7.468      9.188
REMARK INTER + INTRA:          -7.453
REMARK INTER:                  -7.204
REMARK INTRA:                  -0.249
REMARK UNBOUND:                -0.255
REMARK  Name = 
REMARK  3 active torsions:
REMARK  status: ('A' for Active; 'I' for Inactive)
REMARK    1  A    between atoms: C_1  and  C_2
REMARK    2  A    between atoms: C_2  and  C_4
REMARK    3  A    between atoms: C_5  and  C_6
REMARK                            x       y       z     vdW  Elec       q    Type
REMARK                         _______ _______ _______ _____ _____    ______ ____
ROOT
ATOM      1  C   UNL     1      81.451  49.923  42.953  0.00  0.00    -0.024 A 
ATOM      2  C   UNL     1      80.073  50.190  43.192  0.00  0.00    -0.053 A 
ATOM      3  C   UNL     1      79.245  49.221  43.787  0.00  0.00    -0.037 A 
ATOM      4  C   UNL     1      79.816  48.002  44.141  0.00  0.00    +0.046 A 
ATOM      5  C   UNL     1      81.142  47.742  43.929  0.00  0.00    +0.000 A 
ATOM      6  C   UNL     1      81.991  48.676  43.343  0.00  0.00    -0.045 A 
ATOM      7  C   UNL     1      81.391  46.468  44.392  0.00  0.00    -0.037 A 
ATOM      8  C   UNL     1      80.168  46.012  44.874  0.00  0.00    +0.003 A 
ATOM      9  N   UNL     1      79.209  46.953  44.720  0.00  0.00    -0.361 N 
ATOM     10  H   UNL     1      78.262  46.883  44.978  0.00  0.00    +0.000 HD
ENDROOT
BRANCH   1  12
ATOM     11  C   UNL     1      81.968  52.155  41.976  0.00  0.00    -0.059 C 
ATOM     12  C   UNL     1      82.358  50.924  42.340  0.00  0.00    -0.054 C 
BRANCH  11  14
ATOM     13  C   UNL     1      84.354  52.864  41.188  0.00  0.00    -0.040 C 
ATOM     14  C   UNL     1      82.882  53.147  41.354  0.00  0.00    -0.058 C 
ATOM     15  C   UNL     1      82.381  54.311  40.926  0.00  0.00    -0.096 C 
ENDBRANCH  11  14
ENDBRANCH   1  12
TORSDOF 2
ENDMDL
MODEL 6
REMARK VINA RESULT:    -6.385      7.396      8.956
REMARK INTER + INTRA:          -7.386
REMARK INTER:                  -7.122
REMARK INTRA:                  -0.264
REMARK UNBOUND:                -0.255
REMARK  Name = 
REMARK  3 active torsions:
REMARK  status: ('A' for Active; 'I' for Inactive)
REMARK    1  A    between atoms: C_1  and  C_2
REMARK    2  A    between atoms: C_2  and  C_4
REMARK    3  A    between atoms: C_5  and  C_6
REMARK                            x       y       z     vdW  Elec       q    Type
REMARK                         _______ _______ _______ _____ _____    ______ ____
ROOT
ATOM      1  C   UNL     1      88.972  47.488  41.839  0.00  0.00    -0.024 A 
ATOM      2  C   UNL     1      90.339  47.819  42.059  0.00  0.00    -0.053 A 
ATOM      3  C   UNL     1      90.792  49.143  41.912  0.00  0.00    -0.037 A 
ATOM      4  C   UNL     1      89.863  50.116  41.558  0.00  0.00    +0.046 A 
ATOM      5  C   UNL     1      88.545  49.811  41.360  0.00  0.00    +0.000 A 
ATOM      6  C   UNL     1      88.060  48.513  41.495  0.00  0.00    -0.045 A 
ATOM      7  C   UNL     1      87.895  50.981  41.032  0.00  0.00    -0.037 A 
ATOM      8  C   UNL     1      88.883  51.961  41.050  0.00  0.00    +0.003 A 
ATOM      9  N   UNL     1      90.084  51.427  41.373  0.00  0.00    -0.361 N 
ATOM     10  H   UNL     1      90.941  51.903  41.456  0.00  0.00    +0.000 HD
ENDROOT
BRANCH   1  12
ATOM     11  C   UNL     1      87.189  45.824  42.346  0.00  0.00    -0.059 C 
ATOM     12  C   UNL     1      88.454  46.108  41.996  0.00  0.00    -0.054 C 
BRANCH  11  14
ATOM     13  C   UNL     1      87.589  43.317  42.953  0.00  0.00    -0.040 C 
ATOM     14  C   UNL     1      86.683  44.437  42.510  0.00  0.00    -0.058 C 
ATOM     15  C   UNL     1      85.392  44.186  42.266  0.00  0.00    -0.096 C 
ENDBRANCH  11  14
ENDBRANCH   1  12
TORSDOF 2
ENDMDL
MODEL 7
REMARK VINA RESULT:    -6.290      8.984     11.216
REMARK INTER + INTRA:          -7.281
REMARK INTER:                  -7.038
REMARK INTRA:                  -0.243
REMARK UNBOUND:                -0.255
REMARK  Name = 
REMARK  3 active torsions:
REMARK  status: ('A' for Active; 'I' for Inactive)
REMARK    1  A    between atoms: C_1  and  C_2
REMARK    2  A    between atoms: C_2  and  C_4
REMARK    3  A    between atoms: C_5  and  C_6
REMARK                            x       y       z     vdW  Elec       q    Type
REMARK                         _______ _______ _______ _____ _____    ______ ____
ROOT
ATOM      1  C   UNL     1      84.739  45.704  43.575  0.00  0.00    -0.024 A 
ATOM      2  C   UNL     1      85.522  46.573  42.763  0.00  0.00    -0.053 A 
ATOM      3  C   UNL     1      86.843  46.239  42.417  0.00  0.00    -0.037 A 
ATOM      4  C   UNL     1      87.356  45.032  42.884  0.00  0.00    +0.046 A 
ATOM      5  C   UNL     1      86.607  44.184  43.652  0.00  0.00    +0.000 A 
ATOM      6  C   UNL     1      85.296  44.481  44.014  0.00  0.00    -0.045 A 
ATOM      7  C   UNL     1      87.391  43.088  43.939  0.00  0.00    -0.037 A 
ATOM      8  C   UNL     1      88.607  43.337  43.311  0.00  0.00    +0.003 A 
ATOM      9  N   UNL     1      88.580  44.526  42.667  0.00  0.00    -0.361 N 
ATOM     10  H   UNL     1      89.309  44.936  42.146  0.00  0.00    +0.000 HD
ENDROOT
BRANCH   1  12
ATOM     11  C   UNL     1      82.517  46.763  43.196  0.00  0.00    -0.059 C 
ATOM     12  C   UNL     1      83.338  46.016  43.950  0.00  0.00    -0.054 C 
BRANCH  11  14
ATOM     13  C   UNL     1      80.629  48.500  43.680  0.00  0.00    -0.040 C 
ATOM     14  C   UNL     1      81.118  47.077  43.585  0.00  0.00    -0.058 C 
ATOM     15  C   UNL     1      80.277  46.071  43.845  0.00  0.00    -0.096 C 
ENDBRANCH  11  14
ENDBRANCH   1  12
TORSDOF 2
ENDMDL
MODEL 8
REMARK VINA RESULT:    -6.224      1.343      2.136
REMARK INTER + INTRA:          -7.207
REMARK INTER:                  -6.966
REMARK INTRA:                  -0.241
REMARK UNBOUND:                -0.255
REMARK  Name = 
REMARK  3 active torsions:
REMARK  status: ('A' for Active; 'I' for Inactive)
REMARK    1  A    between atoms: C_1  and  C_2
REMARK    2  A    between atoms: C_2  and  C_4
REMARK    3  A    between atoms: C_5  and  C_6
REMARK                            x       y       z     vdW  Elec       q    Type
REMARK                         _______ _______ _______ _____ _____    ______ ____
ROOT
ATOM      1  C   UNL     1      86.163  54.245  45.715  0.00  0.00    -0.024 A 
ATOM      2  C   UNL     1      86.797  54.605  44.492  0.00  0.00    -0.053 A 
ATOM      3  C   UNL     1      86.686  55.910  43.980  0.00  0.00    -0.037 A 
ATOM      4  C   UNL     1      85.947  56.837  44.709  0.00  0.00    +0.046 A 
ATOM      5  C   UNL     1      85.347  56.505  45.892  0.00  0.00    +0.000 A 
ATOM      6  C   UNL     1      85.435  55.225  46.429  0.00  0.00    -0.045 A 
ATOM      7  C   UNL     1      84.709  57.634  46.361  0.00  0.00    -0.037 A 
ATOM      8  C   UNL     1      84.966  58.616  45.410  0.00  0.00    +0.003 A 
ATOM      9  N   UNL     1      85.723  58.125  44.403  0.00  0.00    -0.361 N 
ATOM     10  H   UNL     1      86.044  58.612  43.610  0.00  0.00    +0.000 HD
ENDROOT
BRANCH   1  12
ATOM     11  C   UNL     1      87.144  51.961  45.866  0.00  0.00    -0.059 C 
ATOM     12  C   UNL     1      86.268  52.884  46.293  0.00  0.00    -0.054 C 
BRANCH  11  14
ATOM     13  C   UNL     1      88.079  50.314  47.662  0.00  0.00    -0.040 C 
ATOM     14  C   UNL     1      87.235  50.597  46.445  0.00  0.00    -0.058 C 
ATOM     15  C   UNL     1      86.544  49.604  45.876  0.00  0.00    -0.096 C 
ENDBRANCH  11  14
ENDBRANCH   1  12
TORSDOF 2
ENDMDL
MODEL 9
REMARK VINA RESULT:    -6.187      3.924      6.871
REMARK INTER + INTRA:          -7.165
REMARK INTER:                  -6.910
REMARK INTRA:                  -0.255
REMARK UNBOUND:                -0.255
REMARK  Name = 
REMARK  3 active torsions:
REMARK  status: ('A' for Active; 'I' for Inactive)
REMARK    1  A    between atoms: C_1  and  C_2
REMARK    2  A    between atoms: C_2  and  C_4
REMARK    3  A    between atoms: C_5  and  C_6
REMARK                            x       y       z     vdW  Elec       q    Type
REMARK                         _______ _______ _______ _____ _____    ______ ____
ROOT
ATOM      1  C   UNL     1      87.604  51.328  44.863  0.00  0.00    -0.024 A 
ATOM      2  C   UNL     1      87.418  52.289  43.829  0.00  0.00    -0.053 A 
ATOM      3  C   UNL     1      87.969  52.086  42.551  0.00  0.00    -0.037 A 
ATOM      4  C   UNL     1      88.690  50.917  42.328  0.00  0.00    +0.046 A 
ATOM      5  C   UNL     1      88.861  49.981  43.311  0.00  0.00    +0.000 A 
ATOM      6  C   UNL     1      88.331  50.147  44.587  0.00  0.00    -0.045 A 
ATOM      7  C   UNL     1      89.604  48.952  42.775  0.00  0.00    -0.037 A 
ATOM      8  C   UNL     1      89.850  49.329  41.458  0.00  0.00    +0.003 A 
ATOM      9  N   UNL     1      89.289  50.530  41.190  0.00  0.00    -0.361 N 
ATOM     10  H   UNL     1      89.314  51.019  40.336  0.00  0.00    +0.000 HD
ENDROOT
BRANCH   1  12
ATOM     11  C   UNL     1      86.389  52.611  46.618  0.00  0.00    -0.059 C 
ATOM     12  C   UNL     1      87.028  51.500  46.219  0.00  0.00    -0.054 C 
BRANCH  11  14
ATOM     13  C   UNL     1      85.144  54.057  48.401  0.00  0.00    -0.040 C 
ATOM     14  C   UNL     1      85.823  52.778  47.982  0.00  0.00    -0.058 C 
ATOM     15  C   UNL     1      85.914  51.763  48.849  0.00  0.00    -0.096 C 
ENDBRANCH  11  14
ENDBRANCH   1  12
TORSDOF 2
ENDMDL
