MODEL 1
REMARK VINA RESULT:    -5.181      0.000      0.000
REMARK INTER + INTRA:         -13.052
REMARK INTER:                  -9.791
REMARK INTRA:                  -3.261
REMARK UNBOUND:                -2.723
REMARK  Name = 
REMARK  19 active torsions:
REMARK  status: ('A' for Active; 'I' for Inactive)
REMARK    1  A    between atoms: C_1  and  C_2
REMARK    2  A    between atoms: C_2  and  C_3
REMARK    3  A    between atoms: C_3  and  C_4
REMARK    4  A    between atoms: C_4  and  C_5
REMARK    5  A    between atoms: C_5  and  C_6
REMARK    6  A    between atoms: C_6  and  C_7
REMARK    7  A    between atoms: C_7  and  C_8
REMARK    8  A    between atoms: C_8  and  C_9
REMARK    9  A    between atoms: C_9  and  C_10
REMARK   10  A    between atoms: C_10  and  C_11
REMARK   11  A    between atoms: C_11  and  C_12
REMARK   12  A    between atoms: C_12  and  C_13
REMARK   13  A    between atoms: C_13  and  C_14
REMARK   14  A    between atoms: C_14  and  C_15
REMARK   15  A    between atoms: C_15  and  C_16
REMARK   16  A    between atoms: C_16  and  C_17
REMARK   17  A    between atoms: C_17  and  C_18
REMARK   18  A    between atoms: C_18  and  C_19
REMARK   19  A    between atoms: C_19  and  C_20
REMARK                            x       y       z     vdW  Elec       q    Type
REMARK                         _______ _______ _______ _____ _____    ______ ____
ROOT
ATOM      1  C   UNL     1      86.363  55.002  43.565  0.00  0.00    -0.053 C 
ENDROOT
BRANCH   1   2
ATOM      2  C   UNL     1      86.127  53.679  44.310  0.00  0.00    -0.053 C 
BRANCH   2   3
ATOM      3  C   UNL     1      84.680  53.173  44.177  0.00  0.00    -0.053 C 
BRANCH   3   4
ATOM      4  C   UNL     1      84.259  52.277  45.352  0.00  0.00    -0.053 C 
BRANCH   4   5
ATOM      5  C   UNL     1      83.933  50.839  44.910  0.00  0.00    -0.053 C 
BRANCH   5   6
ATOM      6  C   UNL     1      84.701  50.415  43.645  0.00  0.00    -0.053 C 
BRANCH   6   7
ATOM      7  C   UNL     1      85.808  49.372  43.880  0.00  0.00    -0.053 C 
BRANCH   7   8
ATOM      8  C   UNL     1      86.281  49.322  45.344  0.00  0.00    -0.053 C 
BRANCH   8   9
ATOM      9  C   UNL     1      87.604  50.072  45.561  0.00  0.00    -0.053 C 
BRANCH   9  10
ATOM     10  C   UNL     1      87.520  51.097  46.702  0.00  0.00    -0.056 C 
ATOM     11  C   UNL     1      87.375  50.405  48.053  0.00  0.00    -0.065 C 
ENDBRANCH   9  10
ENDBRANCH   8   9
ENDBRANCH   7   8
ENDBRANCH   6   7
ENDBRANCH   5   6
ENDBRANCH   4   5
ENDBRANCH   3   4
ENDBRANCH   2   3
ENDBRANCH   1   2
BRANCH   1  12
ATOM     12  C   UNL     1      85.059  55.624  43.036  0.00  0.00    -0.053 C 
BRANCH  12  13
ATOM     13  C   UNL     1      84.688  56.922  43.770  0.00  0.00    -0.053 C 
BRANCH  13  14
ATOM     14  C   UNL     1      85.834  57.453  44.648  0.00  0.00    -0.053 C 
BRANCH  14  15
ATOM     15  C   UNL     1      85.524  57.357  46.153  0.00  0.00    -0.053 C 
BRANCH  15  16
ATOM     16  C   UNL     1      84.150  56.745  46.498  0.00  0.00    -0.053 C 
BRANCH  16  17
ATOM     17  C   UNL     1      84.197  55.425  47.288  0.00  0.00    -0.053 C 
BRANCH  17  18
ATOM     18  C   UNL     1      85.625  55.024  47.695  0.00  0.00    -0.053 C 
BRANCH  18  20
ATOM     19  C   UNL     1      84.263  53.288  48.979  0.00  0.00    -0.065 C 
ATOM     20  C   UNL     1      85.656  53.750  48.553  0.00  0.00    -0.056 C 
ENDBRANCH  18  20
ENDBRANCH  17  18
ENDBRANCH  16  17
ENDBRANCH  15  16
ENDBRANCH  14  15
ENDBRANCH  13  14
ENDBRANCH  12  13
ENDBRANCH   1  12
TORSDOF 17
ENDMDL
MODEL 2
REMARK VINA RESULT:    -5.148      2.698      7.457
REMARK INTER + INTRA:         -12.987
REMARK INTER:                 -11.328
REMARK INTRA:                  -1.659
REMARK UNBOUND:                -2.723
REMARK  Name = 
REMARK  19 active torsions:
REMARK  status: ('A' for Active; 'I' for Inactive)
REMARK    1  A    between atoms: C_1  and  C_2
REMARK    2  A    between atoms: C_2  and  C_3
REMARK    3  A    between atoms: C_3  and  C_4
REMARK    4  A    between atoms: C_4  and  C_5
REMARK    5  A    between atoms: C_5  and  C_6
REMARK    6  A    between atoms: C_6  and  C_7
REMARK    7  A    between atoms: C_7  and  C_8
REMARK    8  A    between atoms: C_8  and  C_9
REMARK    9  A    between atoms: C_9  and  C_10
REMARK   10  A    between atoms: C_10  and  C_11
REMARK   11  A    between atoms: C_11  and  C_12
REMARK   12  A    between atoms: C_12  and  C_13
REMARK   13  A    between atoms: C_13  and  C_14
REMARK   14  A    between atoms: C_14  and  C_15
REMARK   15  A    between atoms: C_15  and  C_16
REMARK   16  A    between atoms: C_16  and  C_17
REMARK   17  A    between atoms: C_17  and  C_18
REMARK   18  A    between atoms: C_18  and  C_19
REMARK   19  A    between atoms: C_19  and  C_20
REMARK                            x       y       z     vdW  Elec       q    Type
REMARK                         _______ _______ _______ _____ _____    ______ ____
ROOT
ATOM      1  C   UNL     1      87.646  51.440  46.713  0.00  0.00    -0.053 C 
ENDROOT
BRANCH   1   2
ATOM      2  C   UNL     1      86.921  50.715  47.858  0.00  0.00    -0.053 C 
BRANCH   2   3
ATOM      3  C   UNL     1      86.186  51.682  48.802  0.00  0.00    -0.053 C 
BRANCH   3   4
ATOM      4  C   UNL     1      85.445  52.796  48.044  0.00  0.00    -0.053 C 
BRANCH   4   5
ATOM      5  C   UNL     1      85.594  54.170  48.722  0.00  0.00    -0.053 C 
BRANCH   5   6
ATOM      6  C   UNL     1      85.729  55.323  47.711  0.00  0.00    -0.053 C 
BRANCH   6   7
ATOM      7  C   UNL     1      86.555  54.988  46.456  0.00  0.00    -0.053 C 
BRANCH   7   8
ATOM      8  C   UNL     1      85.877  55.448  45.153  0.00  0.00    -0.053 C 
BRANCH   8   9
ATOM      9  C   UNL     1      86.594  56.643  44.506  0.00  0.00    -0.053 C 
BRANCH   9  10
ATOM     10  C   UNL     1      85.662  57.843  44.289  0.00  0.00    -0.056 C 
ATOM     11  C   UNL     1      85.111  58.357  45.616  0.00  0.00    -0.065 C 
ENDBRANCH   9  10
ENDBRANCH   8   9
ENDBRANCH   7   8
ENDBRANCH   6   7
ENDBRANCH   5   6
ENDBRANCH   4   5
ENDBRANCH   3   4
ENDBRANCH   2   3
ENDBRANCH   1   2
BRANCH   1  12
ATOM     12  C   UNL     1      87.259  50.893  45.328  0.00  0.00    -0.053 C 
BRANCH  12  13
ATOM     13  C   UNL     1      87.274  51.981  44.243  0.00  0.00    -0.053 C 
BRANCH  13  14
ATOM     14  C   UNL     1      87.548  51.412  42.839  0.00  0.00    -0.053 C 
BRANCH  14  15
ATOM     15  C   UNL     1      88.379  50.116  42.874  0.00  0.00    -0.053 C 
BRANCH  15  16
ATOM     16  C   UNL     1      89.719  50.181  42.115  0.00  0.00    -0.053 C 
BRANCH  16  17
ATOM     17  C   UNL     1      90.656  48.978  42.331  0.00  0.00    -0.053 C 
BRANCH  17  18
ATOM     18  C   UNL     1      90.249  47.748  41.503  0.00  0.00    -0.053 C 
BRANCH  18  20
ATOM     19  C   UNL     1      88.344  46.240  42.287  0.00  0.00    -0.065 C 
ATOM     20  C   UNL     1      89.836  46.558  42.382  0.00  0.00    -0.056 C 
ENDBRANCH  18  20
ENDBRANCH  17  18
ENDBRANCH  16  17
ENDBRANCH  15  16
ENDBRANCH  14  15
ENDBRANCH  13  14
ENDBRANCH  12  13
ENDBRANCH   1  12
TORSDOF 17
ENDMDL
MODEL 3
REMARK VINA RESULT:    -5.126      2.486      4.228
REMARK INTER + INTRA:         -12.944
REMARK INTER:                 -10.570
REMARK INTRA:                  -2.374
REMARK UNBOUND:                -2.723
REMARK  Name = 
REMARK  19 active torsions:
REMARK  status: ('A' for Active; 'I' for Inactive)
REMARK    1  A    between atoms: C_1  and  C_2
REMARK    2  A    between atoms: C_2  and  C_3
REMARK    3  A    between atoms: C_3  and  C_4
REMARK    4  A    between atoms: C_4  and  C_5
REMARK    5  A    between atoms: C_5  and  C_6
REMARK    6  A    between atoms: C_6  and  C_7
REMARK    7  A    between atoms: C_7  and  C_8
REMARK    8  A    between atoms: C_8  and  C_9
REMARK    9  A    between atoms: C_9  and  C_10
REMARK   10  A    between atoms: C_10  and  C_11
REMARK   11  A    between atoms: C_11  and  C_12
REMARK   12  A    between atoms: C_12  and  C_13
REMARK   13  A    between atoms: C_13  and  C_14
REMARK   14  A    between atoms: C_14  and  C_15
REMARK   15  A    between atoms: C_15  and  C_16
REMARK   16  A    between atoms: C_16  and  C_17
REMARK   17  A    between atoms: C_17  and  C_18
REMARK   18  A    between atoms: C_18  and  C_19
REMARK   19  A    between atoms: C_19  and  C_20
REMARK                            x       y       z     vdW  Elec       q    Type
REMARK                         _______ _______ _______ _____ _____    ______ ____
ROOT
ATOM      1  C   UNL     1      85.222  52.897  46.318  0.00  0.00    -0.053 C 
ENDROOT
BRANCH   1   2
ATOM      2  C   UNL     1      86.699  52.744  45.921  0.00  0.00    -0.053 C 
BRANCH   2   3
ATOM      3  C   UNL     1      87.199  51.294  46.039  0.00  0.00    -0.053 C 
BRANCH   3   4
ATOM      4  C   UNL     1      87.918  50.813  44.768  0.00  0.00    -0.053 C 
BRANCH   4   5
ATOM      5  C   UNL     1      87.170  51.210  43.483  0.00  0.00    -0.053 C 
BRANCH   5   6
ATOM      6  C   UNL     1      88.006  52.116  42.561  0.00  0.00    -0.053 C 
BRANCH   6   7
ATOM      7  C   UNL     1      89.181  51.414  41.858  0.00  0.00    -0.053 C 
BRANCH   7   8
ATOM      8  C   UNL     1      88.878  49.946  41.510  0.00  0.00    -0.053 C 
BRANCH   8   9
ATOM      9  C   UNL     1      90.119  49.047  41.616  0.00  0.00    -0.053 C 
BRANCH   9  10
ATOM     10  C   UNL     1      90.085  48.139  42.855  0.00  0.00    -0.056 C 
ATOM     11  C   UNL     1      91.234  48.462  43.805  0.00  0.00    -0.065 C 
ENDBRANCH   9  10
ENDBRANCH   8   9
ENDBRANCH   7   8
ENDBRANCH   6   7
ENDBRANCH   5   6
ENDBRANCH   4   5
ENDBRANCH   3   4
ENDBRANCH   2   3
ENDBRANCH   1   2
BRANCH   1  12
ATOM     12  C   UNL     1      84.901  54.295  46.874  0.00  0.00    -0.053 C 
BRANCH  12  13
ATOM     13  C   UNL     1      86.126  55.222  46.873  0.00  0.00    -0.053 C 
BRANCH  13  14
ATOM     14  C   UNL     1      85.758  56.689  47.159  0.00  0.00    -0.053 C 
BRANCH  14  15
ATOM     15  C   UNL     1      84.517  57.154  46.375  0.00  0.00    -0.053 C 
BRANCH  15  16
ATOM     16  C   UNL     1      84.808  58.117  45.206  0.00  0.00    -0.053 C 
BRANCH  16  17
ATOM     17  C   UNL     1      84.947  57.451  43.825  0.00  0.00    -0.053 C 
BRANCH  17  18
ATOM     18  C   UNL     1      83.839  56.422  43.544  0.00  0.00    -0.053 C 
BRANCH  18  20
ATOM     19  C   UNL     1      85.920  54.988  43.184  0.00  0.00    -0.065 C 
ATOM     20  C   UNL     1      84.395  55.013  43.288  0.00  0.00    -0.056 C 
ENDBRANCH  18  20
ENDBRANCH  17  18
ENDBRANCH  16  17
ENDBRANCH  15  16
ENDBRANCH  14  15
ENDBRANCH  13  14
ENDBRANCH  12  13
ENDBRANCH   1  12
TORSDOF 17
ENDMDL
MODEL 4
REMARK VINA RESULT:    -5.110      2.625      6.685
REMARK INTER + INTRA:         -12.912
REMARK INTER:                 -10.177
REMARK INTRA:                  -2.736
REMARK UNBOUND:                -2.723
REMARK  Name = 
REMARK  19 active torsions:
REMARK  status: ('A' for Active; 'I' for Inactive)
REMARK    1  A    between atoms: C_1  and  C_2
REMARK    2  A    between atoms: C_2  and  C_3
REMARK    3  A    between atoms: C_3  and  C_4
REMARK    4  A    between atoms: C_4  and  C_5
REMARK    5  A    between atoms: C_5  and  C_6
REMARK    6  A    between atoms: C_6  and  C_7
REMARK    7  A    between atoms: C_7  and  C_8
REMARK    8  A    between atoms: C_8  and  C_9
REMARK    9  A    between atoms: C_9  and  C_10
REMARK   10  A    between atoms: C_10  and  C_11
REMARK   11  A    between atoms: C_11  and  C_12
REMARK   12  A    between atoms: C_12  and  C_13
REMARK   13  A    between atoms: C_13  and  C_14
REMARK   14  A    between atoms: C_14  and  C_15
REMARK   15  A    between atoms: C_15  and  C_16
REMARK   16  A    between atoms: C_16  and  C_17
REMARK   17  A    between atoms: C_17  and  C_18
REMARK   18  A    between atoms: C_18  and  C_19
REMARK   19  A    between atoms: C_19  and  C_20
REMARK                            x       y       z     vdW  Elec       q    Type
REMARK                         _______ _______ _______ _____ _____    ______ ____
ROOT
ATOM      1  C   UNL     1      85.893  51.659  46.164  0.00  0.00    -0.053 C 
ENDROOT
BRANCH   1   2
ATOM      2  C   UNL     1      84.746  52.605  45.777  0.00  0.00    -0.053 C 
BRANCH   2   3
ATOM      3  C   UNL     1      84.059  52.199  44.461  0.00  0.00    -0.053 C 
BRANCH   3   4
ATOM      4  C   UNL     1      84.250  53.244  43.350  0.00  0.00    -0.053 C 
BRANCH   4   5
ATOM      5  C   UNL     1      84.536  54.650  43.907  0.00  0.00    -0.053 C 
BRANCH   5   6
ATOM      6  C   UNL     1      85.966  55.132  43.602  0.00  0.00    -0.053 C 
BRANCH   6   7
ATOM      7  C   UNL     1      86.738  55.674  44.819  0.00  0.00    -0.053 C 
BRANCH   7   8
ATOM      8  C   UNL     1      85.954  56.748  45.593  0.00  0.00    -0.053 C 
BRANCH   8   9
ATOM      9  C   UNL     1      85.648  56.327  47.039  0.00  0.00    -0.053 C 
BRANCH   9  10
ATOM     10  C   UNL     1      84.142  56.306  47.340  0.00  0.00    -0.056 C 
ATOM     11  C   UNL     1      83.793  55.186  48.316  0.00  0.00    -0.065 C 
ENDBRANCH   9  10
ENDBRANCH   8   9
ENDBRANCH   7   8
ENDBRANCH   6   7
ENDBRANCH   5   6
ENDBRANCH   4   5
ENDBRANCH   3   4
ENDBRANCH   2   3
ENDBRANCH   1   2
BRANCH   1  12
ATOM     12  C   UNL     1      87.203  51.985  45.426  0.00  0.00    -0.053 C 
BRANCH  12  13
ATOM     13  C   UNL     1      87.612  50.882  44.439  0.00  0.00    -0.053 C 
BRANCH  13  14
ATOM     14  C   UNL     1      87.360  51.275  42.973  0.00  0.00    -0.053 C 
BRANCH  14  15
ATOM     15  C   UNL     1      88.349  52.340  42.465  0.00  0.00    -0.053 C 
BRANCH  15  16
ATOM     16  C   UNL     1      89.398  51.828  41.458  0.00  0.00    -0.053 C 
BRANCH  16  17
ATOM     17  C   UNL     1      89.419  50.303  41.248  0.00  0.00    -0.053 C 
BRANCH  17  18
ATOM     18  C   UNL     1      90.444  49.591  42.146  0.00  0.00    -0.053 C 
BRANCH  18  20
ATOM     19  C   UNL     1      88.820  47.654  41.787  0.00  0.00    -0.065 C 
ATOM     20  C   UNL     1      90.237  48.069  42.182  0.00  0.00    -0.056 C 
ENDBRANCH  18  20
ENDBRANCH  17  18
ENDBRANCH  16  17
ENDBRANCH  15  16
ENDBRANCH  14  15
ENDBRANCH  13  14
ENDBRANCH  12  13
ENDBRANCH   1  12
TORSDOF 17
ENDMDL
MODEL 5
REMARK VINA RESULT:    -5.093      1.281      3.303
REMARK INTER + INTRA:         -12.877
REMARK INTER:                 -10.229
REMARK INTRA:                  -2.647
REMARK UNBOUND:                -2.723
REMARK  Name = 
REMARK  19 active torsions:
REMARK  status: ('A' for Active; 'I' for Inactive)
REMARK    1  A    between atoms: C_1  and  C_2
REMARK    2  A    between atoms: C_2  and  C_3
REMARK    3  A    between atoms: C_3  and  C_4
REMARK    4  A    between atoms: C_4  and  C_5
REMARK    5  A    between atoms: C_5  and  C_6
REMARK    6  A    between atoms: C_6  and  C_7
REMARK    7  A    between atoms: C_7  and  C_8
REMARK    8  A    between atoms: C_8  and  C_9
REMARK    9  A    between atoms: C_9  and  C_10
REMARK   10  A    between atoms: C_10  and  C_11
REMARK   11  A    between atoms: C_11  and  C_12
REMARK   12  A    between atoms: C_12  and  C_13
REMARK   13  A    between atoms: C_13  and  C_14
REMARK   14  A    between atoms: C_14  and  C_15
REMARK   15  A    between atoms: C_15  and  C_16
REMARK   16  A    between atoms: C_16  and  C_17
REMARK   17  A    between atoms: C_17  and  C_18
REMARK   18  A    between atoms: C_18  and  C_19
REMARK   19  A    between atoms: C_19  and  C_20
REMARK                            x       y       z     vdW  Elec       q    Type
REMARK                         _______ _______ _______ _____ _____    ______ ____
ROOT
ATOM      1  C   UNL     1      86.231  54.502  46.407  0.00  0.00    -0.053 C 
ENDROOT
BRANCH   1   2
ATOM      2  C   UNL     1      85.060  53.507  46.411  0.00  0.00    -0.053 C 
BRANCH   2   3
ATOM      3  C   UNL     1      84.593  53.134  44.993  0.00  0.00    -0.053 C 
BRANCH   3   4
ATOM      4  C   UNL     1      83.995  51.720  44.924  0.00  0.00    -0.053 C 
BRANCH   4   5
ATOM      5  C   UNL     1      84.328  51.003  43.603  0.00  0.00    -0.053 C 
BRANCH   5   6
ATOM      6  C   UNL     1      85.842  50.915  43.338  0.00  0.00    -0.053 C 
BRANCH   6   7
ATOM      7  C   UNL     1      86.541  49.703  43.981  0.00  0.00    -0.053 C 
BRANCH   7   8
ATOM      8  C   UNL     1      87.851  50.079  44.695  0.00  0.00    -0.053 C 
BRANCH   8   9
ATOM      9  C   UNL     1      87.636  51.100  45.823  0.00  0.00    -0.053 C 
BRANCH   9  10
ATOM     10  C   UNL     1      87.132  50.448  47.119  0.00  0.00    -0.056 C 
ATOM     11  C   UNL     1      88.294  50.079  48.036  0.00  0.00    -0.065 C 
ENDBRANCH   9  10
ENDBRANCH   8   9
ENDBRANCH   7   8
ENDBRANCH   6   7
ENDBRANCH   5   6
ENDBRANCH   4   5
ENDBRANCH   3   4
ENDBRANCH   2   3
ENDBRANCH   1   2
BRANCH   1  12
ATOM     12  C   UNL     1      86.058  55.624  47.445  0.00  0.00    -0.053 C 
BRANCH  12  13
ATOM     13  C   UNL     1      84.581  55.944  47.722  0.00  0.00    -0.053 C 
BRANCH  13  14
ATOM     14  C   UNL     1      84.018  57.010  46.767  0.00  0.00    -0.053 C 
BRANCH  14  15
ATOM     15  C   UNL     1      85.083  58.027  46.315  0.00  0.00    -0.053 C 
BRANCH  15  16
ATOM     16  C   UNL     1      85.180  58.235  44.790  0.00  0.00    -0.053 C 
BRANCH  16  17
ATOM     17  C   UNL     1      85.371  56.951  43.962  0.00  0.00    -0.053 C 
BRANCH  17  18
ATOM     18  C   UNL     1      84.100  56.535  43.204  0.00  0.00    -0.053 C 
BRANCH  18  20
ATOM     19  C   UNL     1      83.209  54.601  41.796  0.00  0.00    -0.065 C 
ATOM     20  C   UNL     1      84.388  55.530  42.079  0.00  0.00    -0.056 C 
ENDBRANCH  18  20
ENDBRANCH  17  18
ENDBRANCH  16  17
ENDBRANCH  15  16
ENDBRANCH  14  15
ENDBRANCH  13  14
ENDBRANCH  12  13
ENDBRANCH   1  12
TORSDOF 17
ENDMDL
MODEL 6
REMARK VINA RESULT:    -5.063      1.426      2.263
REMARK INTER + INTRA:         -12.817
REMARK INTER:                  -9.601
REMARK INTRA:                  -3.215
REMARK UNBOUND:                -2.723
REMARK  Name = 
REMARK  19 active torsions:
REMARK  status: ('A' for Active; 'I' for Inactive)
REMARK    1  A    between atoms: C_1  and  C_2
REMARK    2  A    between atoms: C_2  and  C_3
REMARK    3  A    between atoms: C_3  and  C_4
REMARK    4  A    between atoms: C_4  and  C_5
REMARK    5  A    between atoms: C_5  and  C_6
REMARK    6  A    between atoms: C_6  and  C_7
REMARK    7  A    between atoms: C_7  and  C_8
REMARK    8  A    between atoms: C_8  and  C_9
REMARK    9  A    between atoms: C_9  and  C_10
REMARK   10  A    between atoms: C_10  and  C_11
REMARK   11  A    between atoms: C_11  and  C_12
REMARK   12  A    between atoms: C_12  and  C_13
REMARK   13  A    between atoms: C_13  and  C_14
REMARK   14  A    between atoms: C_14  and  C_15
REMARK   15  A    between atoms: C_15  and  C_16
REMARK   16  A    between atoms: C_16  and  C_17
REMARK   17  A    between atoms: C_17  and  C_18
REMARK   18  A    between atoms: C_18  and  C_19
REMARK   19  A    between atoms: C_19  and  C_20
REMARK                            x       y       z     vdW  Elec       q    Type
REMARK                         _______ _______ _______ _____ _____    ______ ____
ROOT
ATOM      1  C   UNL     1      86.549  55.934  44.076  0.00  0.00    -0.053 C 
ENDROOT
BRANCH   1   2
ATOM      2  C   UNL     1      86.131  54.497  43.726  0.00  0.00    -0.053 C 
BRANCH   2   3
ATOM      3  C   UNL     1      84.651  54.393  43.316  0.00  0.00    -0.053 C 
BRANCH   3   4
ATOM      4  C   UNL     1      84.115  52.955  43.408  0.00  0.00    -0.053 C 
BRANCH   4   5
ATOM      5  C   UNL     1      84.222  52.376  44.830  0.00  0.00    -0.053 C 
BRANCH   5   6
ATOM      6  C   UNL     1      84.992  51.044  44.875  0.00  0.00    -0.053 C 
BRANCH   6   7
ATOM      7  C   UNL     1      86.178  51.016  45.857  0.00  0.00    -0.053 C 
BRANCH   7   8
ATOM      8  C   UNL     1      87.493  51.495  45.218  0.00  0.00    -0.053 C 
BRANCH   8   9
ATOM      9  C   UNL     1      87.841  50.722  43.936  0.00  0.00    -0.053 C 
BRANCH   9  10
ATOM     10  C   UNL     1      88.055  51.648  42.730  0.00  0.00    -0.056 C 
ATOM     11  C   UNL     1      86.991  51.413  41.662  0.00  0.00    -0.065 C 
ENDBRANCH   9  10
ENDBRANCH   8   9
ENDBRANCH   7   8
ENDBRANCH   6   7
ENDBRANCH   5   6
ENDBRANCH   4   5
ENDBRANCH   3   4
ENDBRANCH   2   3
ENDBRANCH   1   2
BRANCH   1  12
ATOM     12  C   UNL     1      85.389  56.936  43.945  0.00  0.00    -0.053 C 
BRANCH  12  13
ATOM     13  C   UNL     1      85.720  58.301  44.567  0.00  0.00    -0.053 C 
BRANCH  13  14
ATOM     14  C   UNL     1      84.918  58.577  45.850  0.00  0.00    -0.053 C 
BRANCH  14  15
ATOM     15  C   UNL     1      84.106  57.356  46.319  0.00  0.00    -0.053 C 
BRANCH  15  16
ATOM     16  C   UNL     1      84.803  56.477  47.377  0.00  0.00    -0.053 C 
BRANCH  16  17
ATOM     17  C   UNL     1      84.626  54.958  47.191  0.00  0.00    -0.053 C 
BRANCH  17  18
ATOM     18  C   UNL     1      85.841  54.152  47.678  0.00  0.00    -0.053 C 
BRANCH  18  20
ATOM     19  C   UNL     1      83.974  53.076  49.046  0.00  0.00    -0.065 C 
ATOM     20  C   UNL     1      85.478  53.155  48.789  0.00  0.00    -0.056 C 
ENDBRANCH  18  20
ENDBRANCH  17  18
ENDBRANCH  16  17
ENDBRANCH  15  16
ENDBRANCH  14  15
ENDBRANCH  13  14
ENDBRANCH  12  13
ENDBRANCH   1  12
TORSDOF 17
ENDMDL
MODEL 7
REMARK VINA RESULT:    -5.059      1.176      6.133
REMARK INTER + INTRA:         -12.810
REMARK INTER:                 -10.100
REMARK INTRA:                  -2.711
REMARK UNBOUND:                -2.723
REMARK  Name = 
REMARK  19 active torsions:
REMARK  status: ('A' for Active; 'I' for Inactive)
REMARK    1  A    between atoms: C_1  and  C_2
REMARK    2  A    between atoms: C_2  and  C_3
REMARK    3  A    between atoms: C_3  and  C_4
REMARK    4  A    between atoms: C_4  and  C_5
REMARK    5  A    between atoms: C_5  and  C_6
REMARK    6  A    between atoms: C_6  and  C_7
REMARK    7  A    between atoms: C_7  and  C_8
REMARK    8  A    between atoms: C_8  and  C_9
REMARK    9  A    between atoms: C_9  and  C_10
REMARK   10  A    between atoms: C_10  and  C_11
REMARK   11  A    between atoms: C_11  and  C_12
REMARK   12  A    between atoms: C_12  and  C_13
REMARK   13  A    between atoms: C_13  and  C_14
REMARK   14  A    between atoms: C_14  and  C_15
REMARK   15  A    between atoms: C_15  and  C_16
REMARK   16  A    between atoms: C_16  and  C_17
REMARK   17  A    between atoms: C_17  and  C_18
REMARK   18  A    between atoms: C_18  and  C_19
REMARK   19  A    between atoms: C_19  and  C_20
REMARK                            x       y       z     vdW  Elec       q    Type
REMARK                         _______ _______ _______ _____ _____    ______ ____
ROOT
ATOM      1  C   UNL     1      85.484  54.910  47.831  0.00  0.00    -0.053 C 
ENDROOT
BRANCH   1   2
ATOM      2  C   UNL     1      84.004  55.267  47.623  0.00  0.00    -0.053 C 
BRANCH   2   3
ATOM      3  C   UNL     1      83.814  56.608  46.892  0.00  0.00    -0.053 C 
BRANCH   3   4
ATOM      4  C   UNL     1      85.148  57.319  46.612  0.00  0.00    -0.053 C 
BRANCH   4   5
ATOM      5  C   UNL     1      85.093  58.200  45.351  0.00  0.00    -0.053 C 
BRANCH   5   6
ATOM      6  C   UNL     1      86.055  57.725  44.248  0.00  0.00    -0.053 C 
BRANCH   6   7
ATOM      7  C   UNL     1      86.844  56.447  44.586  0.00  0.00    -0.053 C 
BRANCH   7   8
ATOM      8  C   UNL     1      86.327  55.208  43.833  0.00  0.00    -0.053 C 
BRANCH   8   9
ATOM      9  C   UNL     1      85.047  55.497  43.034  0.00  0.00    -0.053 C 
BRANCH   9  10
ATOM     10  C   UNL     1      84.101  54.288  42.980  0.00  0.00    -0.056 C 
ATOM     11  C   UNL     1      84.315  53.369  44.178  0.00  0.00    -0.065 C 
ENDBRANCH   9  10
ENDBRANCH   8   9
ENDBRANCH   7   8
ENDBRANCH   6   7
ENDBRANCH   5   6
ENDBRANCH   4   5
ENDBRANCH   3   4
ENDBRANCH   2   3
ENDBRANCH   1   2
BRANCH   1  12
ATOM     12  C   UNL     1      85.674  53.696  48.757  0.00  0.00    -0.053 C 
BRANCH  12  13
ATOM     13  C   UNL     1      86.059  52.424  47.986  0.00  0.00    -0.053 C 
BRANCH  13  14
ATOM     14  C   UNL     1      86.732  52.732  46.636  0.00  0.00    -0.053 C 
BRANCH  14  15
ATOM     15  C   UNL     1      87.343  51.481  45.978  0.00  0.00    -0.053 C 
BRANCH  15  16
ATOM     16  C   UNL     1      87.527  51.572  44.450  0.00  0.00    -0.053 C 
BRANCH  16  17
ATOM     17  C   UNL     1      86.892  50.426  43.641  0.00  0.00    -0.053 C 
BRANCH  17  18
ATOM     18  C   UNL     1      87.082  49.052  44.304  0.00  0.00    -0.053 C 
BRANCH  18  20
ATOM     19  C   UNL     1      84.557  49.353  44.525  0.00  0.00    -0.065 C 
ATOM     20  C   UNL     1      85.760  48.455  44.810  0.00  0.00    -0.056 C 
ENDBRANCH  18  20
ENDBRANCH  17  18
ENDBRANCH  16  17
ENDBRANCH  15  16
ENDBRANCH  14  15
ENDBRANCH  13  14
ENDBRANCH  12  13
ENDBRANCH   1  12
TORSDOF 17
ENDMDL
MODEL 8
REMARK VINA RESULT:    -5.025      1.837      2.703
REMARK INTER + INTRA:         -12.742
REMARK INTER:                 -10.137
REMARK INTRA:                  -2.605
REMARK UNBOUND:                -2.723
REMARK  Name = 
REMARK  19 active torsions:
REMARK  status: ('A' for Active; 'I' for Inactive)
REMARK    1  A    between atoms: C_1  and  C_2
REMARK    2  A    between atoms: C_2  and  C_3
REMARK    3  A    between atoms: C_3  and  C_4
REMARK    4  A    between atoms: C_4  and  C_5
REMARK    5  A    between atoms: C_5  and  C_6
REMARK    6  A    between atoms: C_6  and  C_7
REMARK    7  A    between atoms: C_7  and  C_8
REMARK    8  A    between atoms: C_8  and  C_9
REMARK    9  A    between atoms: C_9  and  C_10
REMARK   10  A    between atoms: C_10  and  C_11
REMARK   11  A    between atoms: C_11  and  C_12
REMARK   12  A    between atoms: C_12  and  C_13
REMARK   13  A    between atoms: C_13  and  C_14
REMARK   14  A    between atoms: C_14  and  C_15
REMARK   15  A    between atoms: C_15  and  C_16
REMARK   16  A    between atoms: C_16  and  C_17
REMARK   17  A    between atoms: C_17  and  C_18
REMARK   18  A    between atoms: C_18  and  C_19
REMARK   19  A    between atoms: C_19  and  C_20
REMARK                            x       y       z     vdW  Elec       q    Type
REMARK                         _______ _______ _______ _____ _____    ______ ____
ROOT
ATOM      1  C   UNL     1      83.144  53.531  41.649  0.00  0.00    -0.053 C 
ENDROOT
BRANCH   1   2
ATOM      2  C   UNL     1      81.650  53.178  41.727  0.00  0.00    -0.053 C 
BRANCH   2   3
ATOM      3  C   UNL     1      81.393  51.850  42.462  0.00  0.00    -0.053 C 
BRANCH   3   4
ATOM      4  C   UNL     1      82.676  51.028  42.659  0.00  0.00    -0.053 C 
BRANCH   4   5
ATOM      5  C   UNL     1      82.803  50.467  44.087  0.00  0.00    -0.053 C 
BRANCH   5   6
ATOM      6  C   UNL     1      84.164  50.782  44.733  0.00  0.00    -0.053 C 
BRANCH   6   7
ATOM      7  C   UNL     1      84.458  52.281  44.922  0.00  0.00    -0.053 C 
BRANCH   7   8
ATOM      8  C   UNL     1      85.715  52.743  44.165  0.00  0.00    -0.053 C 
BRANCH   8   9
ATOM      9  C   UNL     1      87.000  52.093  44.702  0.00  0.00    -0.053 C 
BRANCH   9  10
ATOM     10  C   UNL     1      87.187  52.317  46.209  0.00  0.00    -0.056 C 
ATOM     11  C   UNL     1      87.462  51.000  46.930  0.00  0.00    -0.065 C 
ENDBRANCH   9  10
ENDBRANCH   8   9
ENDBRANCH   7   8
ENDBRANCH   6   7
ENDBRANCH   5   6
ENDBRANCH   4   5
ENDBRANCH   3   4
ENDBRANCH   2   3
ENDBRANCH   1   2
BRANCH   1  12
ATOM     12  C   UNL     1      83.386  54.964  41.144  0.00  0.00    -0.053 C 
BRANCH  12  13
ATOM     13  C   UNL     1      84.458  55.701  41.961  0.00  0.00    -0.053 C 
BRANCH  13  14
ATOM     14  C   UNL     1      84.005  56.000  43.400  0.00  0.00    -0.053 C 
BRANCH  14  15
ATOM     15  C   UNL     1      84.635  57.284  43.968  0.00  0.00    -0.053 C 
BRANCH  15  16
ATOM     16  C   UNL     1      85.080  57.196  45.442  0.00  0.00    -0.053 C 
BRANCH  16  17
ATOM     17  C   UNL     1      85.868  55.927  45.816  0.00  0.00    -0.053 C 
BRANCH  17  18
ATOM     18  C   UNL     1      85.998  55.731  47.336  0.00  0.00    -0.053 C 
BRANCH  18  20
ATOM     19  C   UNL     1      83.719  55.348  48.420  0.00  0.00    -0.065 C 
ATOM     20  C   UNL     1      84.996  54.703  47.883  0.00  0.00    -0.056 C 
ENDBRANCH  18  20
ENDBRANCH  17  18
ENDBRANCH  16  17
ENDBRANCH  15  16
ENDBRANCH  14  15
ENDBRANCH  13  14
ENDBRANCH  12  13
ENDBRANCH   1  12
TORSDOF 17
ENDMDL
MODEL 9
REMARK VINA RESULT:    -4.996      1.427      4.415
REMARK INTER + INTRA:         -12.684
REMARK INTER:                  -9.961
REMARK INTRA:                  -2.723
REMARK UNBOUND:                -2.723
REMARK  Name = 
REMARK  19 active torsions:
REMARK  status: ('A' for Active; 'I' for Inactive)
REMARK    1  A    between atoms: C_1  and  C_2
REMARK    2  A    between atoms: C_2  and  C_3
REMARK    3  A    between atoms: C_3  and  C_4
REMARK    4  A    between atoms: C_4  and  C_5
REMARK    5  A    between atoms: C_5  and  C_6
REMARK    6  A    between atoms: C_6  and  C_7
REMARK    7  A    between atoms: C_7  and  C_8
REMARK    8  A    between atoms: C_8  and  C_9
REMARK    9  A    between atoms: C_9  and  C_10
REMARK   10  A    between atoms: C_10  and  C_11
REMARK   11  A    between atoms: C_11  and  C_12
REMARK   12  A    between atoms: C_12  and  C_13
REMARK   13  A    between atoms: C_13  and  C_14
REMARK   14  A    between atoms: C_14  and  C_15
REMARK   15  A    between atoms: C_15  and  C_16
REMARK   16  A    between atoms: C_16  and  C_17
REMARK   17  A    between atoms: C_17  and  C_18
REMARK   18  A    between atoms: C_18  and  C_19
REMARK   19  A    between atoms: C_19  and  C_20
REMARK                            x       y       z     vdW  Elec       q    Type
REMARK                         _______ _______ _______ _____ _____    ______ ____
ROOT
ATOM      1  C   UNL     1      84.361  54.197  47.094  0.00  0.00    -0.053 C 
ENDROOT
BRANCH   1   2
ATOM      2  C   UNL     1      84.629  52.785  46.551  0.00  0.00    -0.053 C 
BRANCH   2   3
ATOM      3  C   UNL     1      86.045  52.280  46.882  0.00  0.00    -0.053 C 
BRANCH   3   4
ATOM      4  C   UNL     1      86.942  52.186  45.638  0.00  0.00    -0.053 C 
BRANCH   4   5
ATOM      5  C   UNL     1      87.518  50.773  45.432  0.00  0.00    -0.053 C 
BRANCH   5   6
ATOM      6  C   UNL     1      86.674  49.680  46.111  0.00  0.00    -0.053 C 
BRANCH   6   7
ATOM      7  C   UNL     1      85.929  48.744  45.142  0.00  0.00    -0.053 C 
BRANCH   7   8
ATOM      8  C   UNL     1      85.254  49.499  43.983  0.00  0.00    -0.053 C 
BRANCH   8   9
ATOM      9  C   UNL     1      83.822  49.941  44.323  0.00  0.00    -0.053 C 
BRANCH   9  10
ATOM     10  C   UNL     1      83.382  51.177  43.524  0.00  0.00    -0.056 C 
ATOM     11  C   UNL     1      82.090  50.905  42.760  0.00  0.00    -0.065 C 
ENDBRANCH   9  10
ENDBRANCH   8   9
ENDBRANCH   7   8
ENDBRANCH   6   7
ENDBRANCH   5   6
ENDBRANCH   4   5
ENDBRANCH   3   4
ENDBRANCH   2   3
ENDBRANCH   1   2
BRANCH   1  12
ATOM     12  C   UNL     1      85.511  54.721  47.972  0.00  0.00    -0.053 C 
BRANCH  12  13
ATOM     13  C   UNL     1      86.213  55.940  47.353  0.00  0.00    -0.053 C 
BRANCH  13  14
ATOM     14  C   UNL     1      85.310  56.711  46.376  0.00  0.00    -0.053 C 
BRANCH  14  15
ATOM     15  C   UNL     1      85.985  56.964  45.015  0.00  0.00    -0.053 C 
BRANCH  15  16
ATOM     16  C   UNL     1      86.495  55.699  44.295  0.00  0.00    -0.053 C 
BRANCH  16  17
ATOM     17  C   UNL     1      85.447  54.960  43.444  0.00  0.00    -0.053 C 
BRANCH  17  18
ATOM     18  C   UNL     1      84.499  55.916  42.702  0.00  0.00    -0.053 C 
BRANCH  18  20
ATOM     19  C   UNL     1      82.871  54.423  41.422  0.00  0.00    -0.065 C 
ATOM     20  C   UNL     1      84.067  55.370  41.332  0.00  0.00    -0.056 C 
ENDBRANCH  18  20
ENDBRANCH  17  18
ENDBRANCH  16  17
ENDBRANCH  15  16
ENDBRANCH  14  15
ENDBRANCH  13  14
ENDBRANCH  12  13
ENDBRANCH   1  12
TORSDOF 17
ENDMDL
