MODEL 1
REMARK VINA RESULT:    -8.019      0.000      0.000
REMARK INTER + INTRA:         -13.317
REMARK INTER:                 -12.228
REMARK INTRA:                  -1.090
REMARK UNBOUND:                -1.080
REMARK  Name = 
REMARK  12 active torsions:
REMARK  status: ('A' for Active; 'I' for Inactive)
REMARK    1  A    between atoms: C_1  and  C_2
REMARK    2  A    between atoms: C_2  and  O_4
REMARK    3  A    between atoms: O_4  and  C_5
REMARK    4  A    between atoms: C_6  and  O_23
REMARK    5  A    between atoms: C_9  and  O_22
REMARK    6  A    between atoms: C_10  and  O_11
REMARK    7  A    between atoms: C_10  and  C_12
REMARK    8  A    between atoms: C_12  and  O_13
REMARK    9  A    between atoms: O_13  and  C_14
REMARK   10  A    between atoms: C_14  and  C_16
REMARK   11  A    between atoms: O_23  and  C_24
REMARK   12  A    between atoms: C_24  and  C_26
REMARK                            x       y       z     vdW  Elec       q    Type
REMARK                         _______ _______ _______ _____ _____    ______ ____
ROOT
ATOM      1  C   UNL     1      85.571  54.515  42.914  0.00  0.00    +0.178 C 
ATOM      2  C   UNL     1      86.098  55.541  43.943  0.00  0.00    +0.161 C 
ATOM      3  C   UNL     1      86.520  54.899  45.245  0.00  0.00    -0.042 C 
ATOM      4  C   UNL     1      86.781  53.589  45.363  0.00  0.00    -0.053 C 
ATOM      5  C   UNL     1      86.481  52.597  44.265  0.00  0.00    +0.109 C 
ATOM      6  C   UNL     1      86.486  53.263  42.855  0.00  0.00    +0.170 C 
ENDROOT
BRANCH   6   7
ATOM      7  O   UNL     1      87.783  53.689  42.492  0.00  0.00    -0.379 OA
ATOM      8  H   UNL     1      87.767  54.039  41.588  0.00  0.00    +0.000 HD
ENDBRANCH   6   7
BRANCH   5   9
ATOM      9  O   UNL     1      87.411  51.544  44.323  0.00  0.00    -0.385 OA
ATOM     10  H   UNL     1      88.279  51.863  44.032  0.00  0.00    +0.000 HD
ENDBRANCH   5   9
BRANCH   1  11
ATOM     11  O   UNL     1      85.511  55.126  41.622  0.00  0.00    -0.454 OA
BRANCH  11  13
ATOM     12  C   UNL     1      83.058  54.725  41.392  0.00  0.00    +0.033 C 
ATOM     13  C   UNL     1      84.366  55.148  40.817  0.00  0.00    +0.304 C 
ATOM     14  O   UNL     1      84.417  55.566  39.628  0.00  0.00    -0.251 OA
ENDBRANCH  11  13
ENDBRANCH   1  11
BRANCH   6  15
ATOM     15  C   UNL     1      85.929  52.281  41.786  0.00  0.00    +0.128 C 
BRANCH  15  16
ATOM     16  O   UNL     1      86.638  51.041  41.776  0.00  0.00    -0.458 OA
BRANCH  16  17
ATOM     17  C   UNL     1      87.790  50.806  41.015  0.00  0.00    +0.339 C 
ATOM     18  O   UNL     1      88.072  51.558  40.039  0.00  0.00    -0.245 OA
BRANCH  17  19
ATOM     19  C   UNL     1      88.676  49.672  41.358  0.00  0.00    +0.059 A 
ATOM     20  C   UNL     1      88.166  48.362  41.401  0.00  0.00    -0.048 A 
ATOM     21  C   UNL     1      89.001  47.290  41.731  0.00  0.00    -0.061 A 
ATOM     22  C   UNL     1      90.349  47.513  42.020  0.00  0.00    -0.062 A 
ATOM     23  C   UNL     1      90.866  48.810  41.981  0.00  0.00    -0.061 A 
ATOM     24  C   UNL     1      90.036  49.887  41.653  0.00  0.00    -0.048 A 
ENDBRANCH  17  19
ENDBRANCH  16  17
ENDBRANCH  15  16
ENDBRANCH   6  15
BRANCH   2  25
ATOM     25  O   UNL     1      85.084  56.514  44.197  0.00  0.00    -0.453 OA
BRANCH  25  26
ATOM     26  C   UNL     1      85.340  57.883  44.333  0.00  0.00    +0.305 C 
ATOM     27  O   UNL     1      85.905  58.531  43.411  0.00  0.00    -0.251 OA
ATOM     28  C   UNL     1      84.893  58.594  45.565  0.00  0.00    +0.033 C 
ENDBRANCH  25  26
ENDBRANCH   2  25
TORSDOF 10
ENDMDL
MODEL 2
REMARK VINA RESULT:    -7.930      3.435      7.232
REMARK INTER + INTRA:         -13.183
REMARK INTER:                 -11.337
REMARK INTRA:                  -1.846
REMARK UNBOUND:                -1.080
REMARK  Name = 
REMARK  12 active torsions:
REMARK  status: ('A' for Active; 'I' for Inactive)
REMARK    1  A    between atoms: C_1  and  C_2
REMARK    2  A    between atoms: C_2  and  O_4
REMARK    3  A    between atoms: O_4  and  C_5
REMARK    4  A    between atoms: C_6  and  O_23
REMARK    5  A    between atoms: C_9  and  O_22
REMARK    6  A    between atoms: C_10  and  O_11
REMARK    7  A    between atoms: C_10  and  C_12
REMARK    8  A    between atoms: C_12  and  O_13
REMARK    9  A    between atoms: O_13  and  C_14
REMARK   10  A    between atoms: C_14  and  C_16
REMARK   11  A    between atoms: O_23  and  C_24
REMARK   12  A    between atoms: C_24  and  C_26
REMARK                            x       y       z     vdW  Elec       q    Type
REMARK                         _______ _______ _______ _____ _____    ______ ____
ROOT
ATOM      1  C   UNL     1      84.670  53.156  43.292  0.00  0.00    +0.178 C 
ATOM      2  C   UNL     1      83.797  52.165  42.489  0.00  0.00    +0.161 C 
ATOM      3  C   UNL     1      82.943  52.852  41.447  0.00  0.00    -0.042 C 
ATOM      4  C   UNL     1      83.192  54.091  40.999  0.00  0.00    -0.053 C 
ATOM      5  C   UNL     1      84.217  54.997  41.637  0.00  0.00    +0.109 C 
ATOM      6  C   UNL     1      85.345  54.193  42.354  0.00  0.00    +0.170 C 
ENDROOT
BRANCH   6   7
ATOM      7  O   UNL     1      86.142  53.487  41.426  0.00  0.00    -0.379 OA
ATOM      8  H   UNL     1      85.574  53.087  40.750  0.00  0.00    +0.000 HD
ENDBRANCH   6   7
BRANCH   5   9
ATOM      9  O   UNL     1      84.757  55.849  40.658  0.00  0.00    -0.385 OA
ATOM     10  H   UNL     1      85.554  56.278  41.006  0.00  0.00    +0.000 HD
ENDBRANCH   5   9
BRANCH   1  11
ATOM     11  O   UNL     1      85.677  52.431  44.005  0.00  0.00    -0.454 OA
BRANCH  11  13
ATOM     12  C   UNL     1      87.033  52.159  46.084  0.00  0.00    +0.033 C 
ATOM     13  C   UNL     1      85.718  52.315  45.400  0.00  0.00    +0.304 C 
ATOM     14  O   UNL     1      84.663  52.388  46.087  0.00  0.00    -0.251 OA
ENDBRANCH  11  13
ENDBRANCH   1  11
BRANCH   6  15
ATOM     15  C   UNL     1      86.233  55.142  43.206  0.00  0.00    +0.128 C 
BRANCH  15  16
ATOM     16  O   UNL     1      85.708  56.469  43.254  0.00  0.00    -0.458 OA
BRANCH  16  17
ATOM     17  C   UNL     1      85.516  57.193  44.437  0.00  0.00    +0.339 C 
ATOM     18  O   UNL     1      85.590  58.454  44.429  0.00  0.00    -0.245 OA
BRANCH  17  19
ATOM     19  C   UNL     1      85.226  56.474  45.697  0.00  0.00    +0.059 A 
ATOM     20  C   UNL     1      83.896  56.260  46.100  0.00  0.00    -0.048 A 
ATOM     21  C   UNL     1      83.619  55.584  47.293  0.00  0.00    -0.061 A 
ATOM     22  C   UNL     1      84.664  55.117  48.094  0.00  0.00    -0.062 A 
ATOM     23  C   UNL     1      85.989  55.325  47.703  0.00  0.00    -0.061 A 
ATOM     24  C   UNL     1      86.272  56.001  46.512  0.00  0.00    -0.048 A 
ENDBRANCH  17  19
ENDBRANCH  16  17
ENDBRANCH  15  16
ENDBRANCH   6  15
BRANCH   2  25
ATOM     25  O   UNL     1      82.959  51.441  43.391  0.00  0.00    -0.453 OA
BRANCH  25  26
ATOM     26  C   UNL     1      83.001  50.050  43.540  0.00  0.00    +0.305 C 
ATOM     27  O   UNL     1      83.876  49.503  44.264  0.00  0.00    -0.251 OA
ATOM     28  C   UNL     1      81.967  49.210  42.872  0.00  0.00    +0.033 C 
ENDBRANCH  25  26
ENDBRANCH   2  25
TORSDOF 10
ENDMDL
MODEL 3
REMARK VINA RESULT:    -7.821      2.073      7.335
REMARK INTER + INTRA:         -13.015
REMARK INTER:                 -11.707
REMARK INTRA:                  -1.309
REMARK UNBOUND:                -1.080
REMARK  Name = 
REMARK  12 active torsions:
REMARK  status: ('A' for Active; 'I' for Inactive)
REMARK    1  A    between atoms: C_1  and  C_2
REMARK    2  A    between atoms: C_2  and  O_4
REMARK    3  A    between atoms: O_4  and  C_5
REMARK    4  A    between atoms: C_6  and  O_23
REMARK    5  A    between atoms: C_9  and  O_22
REMARK    6  A    between atoms: C_10  and  O_11
REMARK    7  A    between atoms: C_10  and  C_12
REMARK    8  A    between atoms: C_12  and  O_13
REMARK    9  A    between atoms: O_13  and  C_14
REMARK   10  A    between atoms: C_14  and  C_16
REMARK   11  A    between atoms: O_23  and  C_24
REMARK   12  A    between atoms: C_24  and  C_26
REMARK                            x       y       z     vdW  Elec       q    Type
REMARK                         _______ _______ _______ _____ _____    ______ ____
ROOT
ATOM      1  C   UNL     1      88.296  51.268  42.238  0.00  0.00    +0.178 C 
ATOM      2  C   UNL     1      88.711  49.899  42.825  0.00  0.00    +0.161 C 
ATOM      3  C   UNL     1      88.443  49.795  44.309  0.00  0.00    -0.042 C 
ATOM      4  C   UNL     1      87.601  50.611  44.960  0.00  0.00    -0.053 C 
ATOM      5  C   UNL     1      87.000  51.839  44.319  0.00  0.00    +0.109 C 
ATOM      6  C   UNL     1      86.904  51.704  42.768  0.00  0.00    +0.170 C 
ENDROOT
BRANCH   6   7
ATOM      7  O   UNL     1      85.967  50.715  42.396  0.00  0.00    -0.379 OA
ATOM      8  H   UNL     1      85.160  51.140  42.069  0.00  0.00    +0.000 HD
ENDBRANCH   6   7
BRANCH   5   9
ATOM      9  O   UNL     1      85.734  52.083  44.878  0.00  0.00    -0.385 OA
ATOM     10  H   UNL     1      85.113  52.334  44.177  0.00  0.00    +0.000 HD
ENDBRANCH   5   9
BRANCH   1  11
ATOM     11  O   UNL     1      88.259  51.181  40.811  0.00  0.00    -0.454 OA
BRANCH  11  13
ATOM     12  C   UNL     1      90.093  52.854  40.542  0.00  0.00    +0.033 C 
ATOM     13  C   UNL     1      89.109  51.898  39.960  0.00  0.00    +0.304 C 
ATOM     14  O   UNL     1      89.085  51.711  38.713  0.00  0.00    -0.251 OA
ENDBRANCH  11  13
ENDBRANCH   1  11
BRANCH   6  15
ATOM     15  C   UNL     1      86.523  53.067  42.125  0.00  0.00    +0.128 C 
BRANCH  15  16
ATOM     16  O   UNL     1      86.836  54.169  42.978  0.00  0.00    -0.458 OA
BRANCH  16  17
ATOM     17  C   UNL     1      85.958  55.226  43.245  0.00  0.00    +0.339 C 
ATOM     18  O   UNL     1      85.429  55.868  42.294  0.00  0.00    -0.245 OA
BRANCH  17  19
ATOM     19  C   UNL     1      85.651  55.588  44.646  0.00  0.00    +0.059 A 
ATOM     20  C   UNL     1      86.576  55.311  45.669  0.00  0.00    -0.048 A 
ATOM     21  C   UNL     1      86.286  55.648  46.994  0.00  0.00    -0.061 A 
ATOM     22  C   UNL     1      85.073  56.264  47.312  0.00  0.00    -0.062 A 
ATOM     23  C   UNL     1      84.148  56.544  46.305  0.00  0.00    -0.061 A 
ATOM     24  C   UNL     1      84.431  56.208  44.978  0.00  0.00    -0.048 A 
ENDBRANCH  17  19
ENDBRANCH  16  17
ENDBRANCH  15  16
ENDBRANCH   6  15
BRANCH   2  25
ATOM     25  O   UNL     1      90.100  49.683  42.574  0.00  0.00    -0.453 OA
BRANCH  25  26
ATOM     26  C   UNL     1      90.800  48.554  43.014  0.00  0.00    +0.305 C 
ATOM     27  O   UNL     1      91.729  48.659  43.861  0.00  0.00    -0.251 OA
ATOM     28  C   UNL     1      90.410  47.207  42.511  0.00  0.00    +0.033 C 
ENDBRANCH  25  26
ENDBRANCH   2  25
TORSDOF 10
ENDMDL
MODEL 4
REMARK VINA RESULT:    -7.712      1.830      7.258
REMARK INTER + INTRA:         -12.850
REMARK INTER:                 -11.496
REMARK INTRA:                  -1.354
REMARK UNBOUND:                -1.080
REMARK  Name = 
REMARK  12 active torsions:
REMARK  status: ('A' for Active; 'I' for Inactive)
REMARK    1  A    between atoms: C_1  and  C_2
REMARK    2  A    between atoms: C_2  and  O_4
REMARK    3  A    between atoms: O_4  and  C_5
REMARK    4  A    between atoms: C_6  and  O_23
REMARK    5  A    between atoms: C_9  and  O_22
REMARK    6  A    between atoms: C_10  and  O_11
REMARK    7  A    between atoms: C_10  and  C_12
REMARK    8  A    between atoms: C_12  and  O_13
REMARK    9  A    between atoms: O_13  and  C_14
REMARK   10  A    between atoms: C_14  and  C_16
REMARK   11  A    between atoms: O_23  and  C_24
REMARK   12  A    between atoms: C_24  and  C_26
REMARK                            x       y       z     vdW  Elec       q    Type
REMARK                         _______ _______ _______ _____ _____    ______ ____
ROOT
ATOM      1  C   UNL     1      87.307  51.233  41.856  0.00  0.00    +0.178 C 
ATOM      2  C   UNL     1      88.776  50.835  42.126  0.00  0.00    +0.161 C 
ATOM      3  C   UNL     1      89.651  50.966  40.900  0.00  0.00    -0.042 C 
ATOM      4  C   UNL     1      89.307  51.700  39.831  0.00  0.00    -0.053 C 
ATOM      5  C   UNL     1      87.930  52.295  39.661  0.00  0.00    +0.109 C 
ATOM      6  C   UNL     1      87.226  52.545  41.031  0.00  0.00    +0.170 C 
ENDROOT
BRANCH   6   7
ATOM      7  O   UNL     1      87.876  53.561  41.765  0.00  0.00    -0.379 OA
ATOM      8  H   UNL     1      88.160  54.265  41.161  0.00  0.00    +0.000 HD
ENDBRANCH   6   7
BRANCH   5   9
ATOM      9  O   UNL     1      88.028  53.489  38.925  0.00  0.00    -0.385 OA
ATOM     10  H   UNL     1      88.213  53.282  37.996  0.00  0.00    +0.000 HD
ENDBRANCH   5   9
BRANCH   1  11
ATOM     11  O   UNL     1      86.626  51.409  43.102  0.00  0.00    -0.454 OA
BRANCH  11  13
ATOM     12  C   UNL     1      84.403  51.220  44.224  0.00  0.00    +0.033 C 
ATOM     13  C   UNL     1      85.573  50.598  43.541  0.00  0.00    +0.304 C 
ATOM     14  O   UNL     1      85.579  49.355  43.324  0.00  0.00    -0.251 OA
ENDBRANCH  11  13
ENDBRANCH   1  11
BRANCH   6  15
ATOM     15  C   UNL     1      85.732  52.915  40.815  0.00  0.00    +0.128 C 
BRANCH  15  16
ATOM     16  O   UNL     1      85.513  54.325  40.879  0.00  0.00    -0.458 OA
BRANCH  16  17
ATOM     17  C   UNL     1      84.525  54.928  41.667  0.00  0.00    +0.339 C 
ATOM     18  O   UNL     1      83.320  54.926  41.287  0.00  0.00    -0.245 OA
BRANCH  17  19
ATOM     19  C   UNL     1      84.898  55.568  42.947  0.00  0.00    +0.059 A 
ATOM     20  C   UNL     1      84.734  56.955  43.121  0.00  0.00    -0.048 A 
ATOM     21  C   UNL     1      85.090  57.562  44.329  0.00  0.00    -0.061 A 
ATOM     22  C   UNL     1      85.613  56.795  45.373  0.00  0.00    -0.062 A 
ATOM     23  C   UNL     1      85.780  55.419  45.211  0.00  0.00    -0.061 A 
ATOM     24  C   UNL     1      85.427  54.805  44.005  0.00  0.00    -0.048 A 
ENDBRANCH  17  19
ENDBRANCH  16  17
ENDBRANCH  15  16
ENDBRANCH   6  15
BRANCH   2  25
ATOM     25  O   UNL     1      88.817  49.488  42.600  0.00  0.00    -0.453 OA
BRANCH  25  26
ATOM     26  C   UNL     1      88.804  48.369  41.760  0.00  0.00    +0.305 C 
ATOM     27  O   UNL     1      87.832  48.153  40.986  0.00  0.00    -0.251 OA
ATOM     28  C   UNL     1      89.976  47.450  41.746  0.00  0.00    +0.033 C 
ENDBRANCH  25  26
ENDBRANCH   2  25
TORSDOF 10
ENDMDL
MODEL 5
REMARK VINA RESULT:    -7.579      1.980      4.271
REMARK INTER + INTRA:         -12.647
REMARK INTER:                 -11.087
REMARK INTRA:                  -1.560
REMARK UNBOUND:                -1.080
REMARK  Name = 
REMARK  12 active torsions:
REMARK  status: ('A' for Active; 'I' for Inactive)
REMARK    1  A    between atoms: C_1  and  C_2
REMARK    2  A    between atoms: C_2  and  O_4
REMARK    3  A    between atoms: O_4  and  C_5
REMARK    4  A    between atoms: C_6  and  O_23
REMARK    5  A    between atoms: C_9  and  O_22
REMARK    6  A    between atoms: C_10  and  O_11
REMARK    7  A    between atoms: C_10  and  C_12
REMARK    8  A    between atoms: C_12  and  O_13
REMARK    9  A    between atoms: O_13  and  C_14
REMARK   10  A    between atoms: C_14  and  C_16
REMARK   11  A    between atoms: O_23  and  C_24
REMARK   12  A    between atoms: C_24  and  C_26
REMARK                            x       y       z     vdW  Elec       q    Type
REMARK                         _______ _______ _______ _____ _____    ______ ____
ROOT
ATOM      1  C   UNL     1      86.081  52.443  44.567  0.00  0.00    +0.178 C 
ATOM      2  C   UNL     1      85.582  53.398  45.675  0.00  0.00    +0.161 C 
ATOM      3  C   UNL     1      85.719  54.855  45.294  0.00  0.00    -0.042 C 
ATOM      4  C   UNL     1      85.874  55.268  44.028  0.00  0.00    -0.053 C 
ATOM      5  C   UNL     1      86.135  54.315  42.887  0.00  0.00    +0.109 C 
ATOM      6  C   UNL     1      85.569  52.890  43.172  0.00  0.00    +0.170 C 
ENDROOT
BRANCH   6   7
ATOM      7  O   UNL     1      84.157  52.895  43.207  0.00  0.00    -0.379 OA
ATOM      8  H   UNL     1      83.853  53.512  43.891  0.00  0.00    +0.000 HD
ENDBRANCH   6   7
BRANCH   5   9
ATOM      9  O   UNL     1      85.586  54.844  41.705  0.00  0.00    -0.385 OA
ATOM     10  H   UNL     1      86.101  54.536  40.944  0.00  0.00    +0.000 HD
ENDBRANCH   5   9
BRANCH   1  11
ATOM     11  O   UNL     1      85.621  51.116  44.842  0.00  0.00    -0.454 OA
BRANCH  11  13
ATOM     12  C   UNL     1      87.922  50.159  44.990  0.00  0.00    +0.033 C 
ATOM     13  C   UNL     1      86.455  50.063  45.235  0.00  0.00    +0.304 C 
ATOM     14  O   UNL     1      85.990  49.057  45.837  0.00  0.00    -0.251 OA
ENDBRANCH  11  13
ENDBRANCH   1  11
BRANCH   6  15
ATOM     15  C   UNL     1      86.072  51.881  42.102  0.00  0.00    +0.128 C 
BRANCH  15  16
ATOM     16  O   UNL     1      87.486  51.954  41.918  0.00  0.00    -0.458 OA
BRANCH  16  17
ATOM     17  C   UNL     1      88.193  51.200  40.973  0.00  0.00    +0.339 C 
ATOM     18  O   UNL     1      88.260  51.588  39.772  0.00  0.00    -0.245 OA
BRANCH  17  19
ATOM     19  C   UNL     1      88.861  49.947  41.387  0.00  0.00    +0.059 A 
ATOM     20  C   UNL     1      90.214  49.958  41.769  0.00  0.00    -0.048 A 
ATOM     21  C   UNL     1      90.849  48.773  42.156  0.00  0.00    -0.061 A 
ATOM     22  C   UNL     1      90.141  47.569  42.166  0.00  0.00    -0.062 A 
ATOM     23  C   UNL     1      88.797  47.546  41.788  0.00  0.00    -0.061 A 
ATOM     24  C   UNL     1      88.157  48.727  41.398  0.00  0.00    -0.048 A 
ENDBRANCH  17  19
ENDBRANCH  16  17
ENDBRANCH  15  16
ENDBRANCH   6  15
BRANCH   2  25
ATOM     25  O   UNL     1      86.315  53.147  46.875  0.00  0.00    -0.453 OA
BRANCH  25  26
ATOM     26  C   UNL     1      85.717  52.774  48.084  0.00  0.00    +0.305 C 
ATOM     27  O   UNL     1      85.962  51.654  48.609  0.00  0.00    -0.251 OA
ATOM     28  C   UNL     1      84.818  53.735  48.784  0.00  0.00    +0.033 C 
ENDBRANCH  25  26
ENDBRANCH   2  25
TORSDOF 10
ENDMDL
MODEL 6
REMARK VINA RESULT:    -7.558      3.861      6.228
REMARK INTER + INTRA:         -12.615
REMARK INTER:                 -11.165
REMARK INTRA:                  -1.449
REMARK UNBOUND:                -1.080
REMARK  Name = 
REMARK  12 active torsions:
REMARK  status: ('A' for Active; 'I' for Inactive)
REMARK    1  A    between atoms: C_1  and  C_2
REMARK    2  A    between atoms: C_2  and  O_4
REMARK    3  A    between atoms: O_4  and  C_5
REMARK    4  A    between atoms: C_6  and  O_23
REMARK    5  A    between atoms: C_9  and  O_22
REMARK    6  A    between atoms: C_10  and  O_11
REMARK    7  A    between atoms: C_10  and  C_12
REMARK    8  A    between atoms: C_12  and  O_13
REMARK    9  A    between atoms: O_13  and  C_14
REMARK   10  A    between atoms: C_14  and  C_16
REMARK   11  A    between atoms: O_23  and  C_24
REMARK   12  A    between atoms: C_24  and  C_26
REMARK                            x       y       z     vdW  Elec       q    Type
REMARK                         _______ _______ _______ _____ _____    ______ ____
ROOT
ATOM      1  C   UNL     1      86.900  49.790  42.438  0.00  0.00    +0.178 C 
ATOM      2  C   UNL     1      86.960  51.198  41.805  0.00  0.00    +0.161 C 
ATOM      3  C   UNL     1      85.604  51.863  41.729  0.00  0.00    -0.042 C 
ATOM      4  C   UNL     1      84.554  51.468  42.464  0.00  0.00    -0.053 C 
ATOM      5  C   UNL     1      84.563  50.198  43.279  0.00  0.00    +0.109 C 
ATOM      6  C   UNL     1      86.005  49.785  43.706  0.00  0.00    +0.170 C 
ENDROOT
BRANCH   6   7
ATOM      7  O   UNL     1      86.552  50.706  44.627  0.00  0.00    -0.379 OA
ATOM      8  H   UNL     1      85.907  51.408  44.804  0.00  0.00    +0.000 HD
ENDBRANCH   6   7
BRANCH   5   9
ATOM      9  O   UNL     1      83.737  50.363  44.405  0.00  0.00    -0.385 OA
ATOM     10  H   UNL     1      84.250  50.758  45.127  0.00  0.00    +0.000 HD
ENDBRANCH   5   9
BRANCH   1  11
ATOM     11  O   UNL     1      88.222  49.367  42.784  0.00  0.00    -0.454 OA
BRANCH  11  13
ATOM     12  C   UNL     1      90.290  47.986  42.557  0.00  0.00    +0.033 C 
ATOM     13  C   UNL     1      88.968  48.442  42.043  0.00  0.00    +0.304 C 
ATOM     14  O   UNL     1      88.515  47.955  40.971  0.00  0.00    -0.251 OA
ENDBRANCH  11  13
ENDBRANCH   1  11
BRANCH   6  15
ATOM     15  C   UNL     1      86.004  48.356  44.319  0.00  0.00    +0.128 C 
BRANCH  15  16
ATOM     16  O   UNL     1      84.765  47.681  44.101  0.00  0.00    -0.458 OA
BRANCH  16  17
ATOM     17  C   UNL     1      84.613  46.581  43.247  0.00  0.00    +0.339 C 
ATOM     18  O   UNL     1      83.580  46.474  42.527  0.00  0.00    -0.245 OA
BRANCH  17  19
ATOM     19  C   UNL     1      85.667  45.545  43.192  0.00  0.00    +0.059 A 
ATOM     20  C   UNL     1      86.699  45.634  42.240  0.00  0.00    -0.048 A 
ATOM     21  C   UNL     1      87.694  44.654  42.183  0.00  0.00    -0.061 A 
ATOM     22  C   UNL     1      87.670  43.577  43.072  0.00  0.00    -0.062 A 
ATOM     23  C   UNL     1      86.651  43.479  44.021  0.00  0.00    -0.061 A 
ATOM     24  C   UNL     1      85.651  44.455  44.082  0.00  0.00    -0.048 A 
ENDBRANCH  17  19
ENDBRANCH  16  17
ENDBRANCH  15  16
ENDBRANCH   6  15
BRANCH   2  25
ATOM     25  O   UNL     1      87.518  51.099  40.494  0.00  0.00    -0.453 OA
BRANCH  25  26
ATOM     26  C   UNL     1      88.758  51.641  40.136  0.00  0.00    +0.305 C 
ATOM     27  O   UNL     1      89.119  51.690  38.929  0.00  0.00    -0.251 OA
ATOM     28  C   UNL     1      89.641  52.211  41.193  0.00  0.00    +0.033 C 
ENDBRANCH  25  26
ENDBRANCH   2  25
TORSDOF 10
ENDMDL
MODEL 7
REMARK VINA RESULT:    -7.437      2.391      6.002
REMARK INTER + INTRA:         -12.429
REMARK INTER:                 -10.593
REMARK INTRA:                  -1.837
REMARK UNBOUND:                -1.080
REMARK  Name = 
REMARK  12 active torsions:
REMARK  status: ('A' for Active; 'I' for Inactive)
REMARK    1  A    between atoms: C_1  and  C_2
REMARK    2  A    between atoms: C_2  and  O_4
REMARK    3  A    between atoms: O_4  and  C_5
REMARK    4  A    between atoms: C_6  and  O_23
REMARK    5  A    between atoms: C_9  and  O_22
REMARK    6  A    between atoms: C_10  and  O_11
REMARK    7  A    between atoms: C_10  and  C_12
REMARK    8  A    between atoms: C_12  and  O_13
REMARK    9  A    between atoms: O_13  and  C_14
REMARK   10  A    between atoms: C_14  and  C_16
REMARK   11  A    between atoms: O_23  and  C_24
REMARK   12  A    between atoms: C_24  and  C_26
REMARK                            x       y       z     vdW  Elec       q    Type
REMARK                         _______ _______ _______ _____ _____    ______ ____
ROOT
ATOM      1  C   UNL     1      88.098  51.078  41.749  0.00  0.00    +0.178 C 
ATOM      2  C   UNL     1      89.348  51.119  40.842  0.00  0.00    +0.161 C 
ATOM      3  C   UNL     1      90.432  50.170  41.299  0.00  0.00    -0.042 C 
ATOM      4  C   UNL     1      90.203  49.144  42.133  0.00  0.00    -0.053 C 
ATOM      5  C   UNL     1      88.891  48.963  42.857  0.00  0.00    +0.109 C 
ATOM      6  C   UNL     1      87.701  49.617  42.089  0.00  0.00    +0.170 C 
ENDROOT
BRANCH   6   7
ATOM      7  O   UNL     1      87.440  48.943  40.876  0.00  0.00    -0.379 OA
ATOM      8  H   UNL     1      86.482  48.865  40.750  0.00  0.00    +0.000 HD
ENDBRANCH   6   7
BRANCH   5   9
ATOM      9  O   UNL     1      88.659  47.591  43.062  0.00  0.00    -0.385 OA
ATOM     10  H   UNL     1      88.571  47.416  44.011  0.00  0.00    +0.000 HD
ENDBRANCH   5   9
BRANCH   1  11
ATOM     11  O   UNL     1      87.008  51.728  41.086  0.00  0.00    -0.454 OA
BRANCH  11  13
ATOM     12  C   UNL     1      84.974  53.159  41.299  0.00  0.00    +0.033 C 
ATOM     13  C   UNL     1      86.429  52.926  41.520  0.00  0.00    +0.304 C 
ATOM     14  O   UNL     1      87.111  53.789  42.137  0.00  0.00    -0.251 OA
ENDBRANCH  11  13
ENDBRANCH   1  11
BRANCH   6  15
ATOM     15  C   UNL     1      86.424  49.633  42.976  0.00  0.00    +0.128 C 
BRANCH  15  16
ATOM     16  O   UNL     1      86.683  49.162  44.299  0.00  0.00    -0.458 OA
BRANCH  16  17
ATOM     17  C   UNL     1      86.300  49.843  45.461  0.00  0.00    +0.339 C 
ATOM     18  O   UNL     1      86.201  49.223  46.557  0.00  0.00    -0.245 OA
BRANCH  17  19
ATOM     19  C   UNL     1      86.013  51.293  45.400  0.00  0.00    +0.059 A 
ATOM     20  C   UNL     1      84.731  51.747  45.040  0.00  0.00    -0.048 A 
ATOM     21  C   UNL     1      84.460  53.117  44.978  0.00  0.00    -0.061 A 
ATOM     22  C   UNL     1      85.461  54.046  45.271  0.00  0.00    -0.062 A 
ATOM     23  C   UNL     1      86.737  53.606  45.629  0.00  0.00    -0.061 A 
ATOM     24  C   UNL     1      87.016  52.237  45.693  0.00  0.00    -0.048 A 
ENDBRANCH  17  19
ENDBRANCH  16  17
ENDBRANCH  15  16
ENDBRANCH   6  15
BRANCH   2  25
ATOM     25  O   UNL     1      89.862  52.451  40.810  0.00  0.00    -0.453 OA
BRANCH  25  26
ATOM     26  C   UNL     1      89.955  53.218  39.643  0.00  0.00    +0.305 C 
ATOM     27  O   UNL     1      88.974  53.323  38.858  0.00  0.00    -0.251 OA
ATOM     28  C   UNL     1      91.215  53.959  39.352  0.00  0.00    +0.033 C 
ENDBRANCH  25  26
ENDBRANCH   2  25
TORSDOF 10
ENDMDL
MODEL 8
REMARK VINA RESULT:    -7.325      4.005      6.033
REMARK INTER + INTRA:         -12.259
REMARK INTER:                 -11.179
REMARK INTRA:                  -1.080
REMARK UNBOUND:                -1.080
REMARK  Name = 
REMARK  12 active torsions:
REMARK  status: ('A' for Active; 'I' for Inactive)
REMARK    1  A    between atoms: C_1  and  C_2
REMARK    2  A    between atoms: C_2  and  O_4
REMARK    3  A    between atoms: O_4  and  C_5
REMARK    4  A    between atoms: C_6  and  O_23
REMARK    5  A    between atoms: C_9  and  O_22
REMARK    6  A    between atoms: C_10  and  O_11
REMARK    7  A    between atoms: C_10  and  C_12
REMARK    8  A    between atoms: C_12  and  O_13
REMARK    9  A    between atoms: O_13  and  C_14
REMARK   10  A    between atoms: C_14  and  C_16
REMARK   11  A    between atoms: O_23  and  C_24
REMARK   12  A    between atoms: C_24  and  C_26
REMARK                            x       y       z     vdW  Elec       q    Type
REMARK                         _______ _______ _______ _____ _____    ______ ____
ROOT
ATOM      1  C   UNL     1      86.242  52.160  42.321  0.00  0.00    +0.178 C 
ATOM      2  C   UNL     1      87.569  51.680  41.691  0.00  0.00    +0.161 C 
ATOM      3  C   UNL     1      88.550  51.162  42.718  0.00  0.00    -0.042 C 
ATOM      4  C   UNL     1      88.186  50.793  43.955  0.00  0.00    -0.053 C 
ATOM      5  C   UNL     1      86.805  51.053  44.509  0.00  0.00    +0.109 C 
ATOM      6  C   UNL     1      85.731  51.151  43.383  0.00  0.00    +0.170 C 
ENDROOT
BRANCH   6   7
ATOM      7  O   UNL     1      85.540  49.906  42.745  0.00  0.00    -0.379 OA
ATOM      8  H   UNL     1      84.698  49.520  43.033  0.00  0.00    +0.000 HD
ENDBRANCH   6   7
BRANCH   5   9
ATOM      9  O   UNL     1      86.476  50.041  45.427  0.00  0.00    -0.385 OA
ATOM     10  H   UNL     1      87.115  49.316  45.353  0.00  0.00    +0.000 HD
ENDBRANCH   5   9
BRANCH   1  11
ATOM     11  O   UNL     1      85.257  52.314  41.294  0.00  0.00    -0.454 OA
BRANCH  11  13
ATOM     12  C   UNL     1      83.987  54.455  41.490  0.00  0.00    +0.033 C 
ATOM     13  C   UNL     1      84.894  53.544  40.734  0.00  0.00    +0.304 C 
ATOM     14  O   UNL     1      85.361  53.914  39.623  0.00  0.00    -0.251 OA
ENDBRANCH  11  13
ENDBRANCH   1  11
BRANCH   6  15
ATOM     15  C   UNL     1      84.382  51.666  43.961  0.00  0.00    +0.128 C 
BRANCH  15  16
ATOM     16  O   UNL     1      83.470  50.599  44.225  0.00  0.00    -0.458 OA
BRANCH  16  17
ATOM     17  C   UNL     1      82.400  50.259  43.387  0.00  0.00    +0.339 C 
ATOM     18  O   UNL     1      82.000  51.072  42.506  0.00  0.00    -0.245 OA
BRANCH  17  19
ATOM     19  C   UNL     1      81.742  48.944  43.537  0.00  0.00    +0.059 A 
ATOM     20  C   UNL     1      82.500  47.760  43.475  0.00  0.00    -0.048 A 
ATOM     21  C   UNL     1      81.878  46.515  43.612  0.00  0.00    -0.061 A 
ATOM     22  C   UNL     1      80.498  46.438  43.811  0.00  0.00    -0.062 A 
ATOM     23  C   UNL     1      79.736  47.606  43.873  0.00  0.00    -0.061 A 
ATOM     24  C   UNL     1      80.351  48.854  43.735  0.00  0.00    -0.048 A 
ENDBRANCH  17  19
ENDBRANCH  16  17
ENDBRANCH  15  16
ENDBRANCH   6  15
BRANCH   2  25
ATOM     25  O   UNL     1      88.161  52.759  40.966  0.00  0.00    -0.453 OA
BRANCH  25  26
ATOM     26  C   UNL     1      89.091  52.582  39.935  0.00  0.00    +0.305 C 
ATOM     27  O   UNL     1      88.833  51.834  38.953  0.00  0.00    -0.251 OA
ATOM     28  C   UNL     1      90.382  53.325  39.976  0.00  0.00    +0.033 C 
ENDBRANCH  25  26
ENDBRANCH   2  25
TORSDOF 10
ENDMDL
MODEL 9
REMARK VINA RESULT:    -7.307      3.411      7.425
REMARK INTER + INTRA:         -12.231
REMARK INTER:                 -10.993
REMARK INTRA:                  -1.238
REMARK UNBOUND:                -1.080
REMARK  Name = 
REMARK  12 active torsions:
REMARK  status: ('A' for Active; 'I' for Inactive)
REMARK    1  A    between atoms: C_1  and  C_2
REMARK    2  A    between atoms: C_2  and  O_4
REMARK    3  A    between atoms: O_4  and  C_5
REMARK    4  A    between atoms: C_6  and  O_23
REMARK    5  A    between atoms: C_9  and  O_22
REMARK    6  A    between atoms: C_10  and  O_11
REMARK    7  A    between atoms: C_10  and  C_12
REMARK    8  A    between atoms: C_12  and  O_13
REMARK    9  A    between atoms: O_13  and  C_14
REMARK   10  A    between atoms: C_14  and  C_16
REMARK   11  A    between atoms: O_23  and  C_24
REMARK   12  A    between atoms: C_24  and  C_26
REMARK                            x       y       z     vdW  Elec       q    Type
REMARK                         _______ _______ _______ _____ _____    ______ ____
ROOT
ATOM      1  C   UNL     1      87.525  50.088  42.893  0.00  0.00    +0.178 C 
ATOM      2  C   UNL     1      89.039  49.982  42.598  0.00  0.00    +0.161 C 
ATOM      3  C   UNL     1      89.545  51.110  41.728  0.00  0.00    -0.042 C 
ATOM      4  C   UNL     1      88.875  52.260  41.560  0.00  0.00    -0.053 C 
ATOM      5  C   UNL     1      87.461  52.458  42.051  0.00  0.00    +0.109 C 
ATOM      6  C   UNL     1      87.129  51.541  43.268  0.00  0.00    +0.170 C 
ENDROOT
BRANCH   6   7
ATOM      7  O   UNL     1      87.871  51.913  44.410  0.00  0.00    -0.379 OA
ATOM      8  H   UNL     1      88.652  51.344  44.488  0.00  0.00    +0.000 HD
ENDBRANCH   6   7
BRANCH   5   9
ATOM      9  O   UNL     1      87.269  53.812  42.380  0.00  0.00    -0.385 OA
ATOM     10  H   UNL     1      87.693  54.370  41.709  0.00  0.00    +0.000 HD
ENDBRANCH   5   9
BRANCH   1  11
ATOM     11  O   UNL     1      87.188  49.207  43.970  0.00  0.00    -0.454 OA
BRANCH  11  13
ATOM     12  C   UNL     1      86.340  47.310  42.586  0.00  0.00    +0.033 C 
ATOM     13  C   UNL     1      86.330  48.109  43.844  0.00  0.00    +0.304 C 
ATOM     14  O   UNL     1      85.582  47.759  44.798  0.00  0.00    -0.251 OA
ENDBRANCH  11  13
ENDBRANCH   1  11
BRANCH   6  15
ATOM     15  C   UNL     1      85.607  51.584  43.583  0.00  0.00    +0.128 C 
BRANCH  15  16
ATOM     16  O   UNL     1      84.819  51.112  42.490  0.00  0.00    -0.458 OA
BRANCH  16  17
ATOM     17  C   UNL     1      83.476  51.454  42.289  0.00  0.00    +0.339 C 
ATOM     18  O   UNL     1      83.176  52.541  41.719  0.00  0.00    -0.245 OA
BRANCH  17  19
ATOM     19  C   UNL     1      82.411  50.536  42.745  0.00  0.00    +0.059 A 
ATOM     20  C   UNL     1      82.738  49.369  43.461  0.00  0.00    -0.048 A 
ATOM     21  C   UNL     1      81.733  48.498  43.890  0.00  0.00    -0.061 A 
ATOM     22  C   UNL     1      80.393  48.779  43.610  0.00  0.00    -0.062 A 
ATOM     23  C   UNL     1      80.057  49.934  42.900  0.00  0.00    -0.061 A 
ATOM     24  C   UNL     1      81.058  50.809  42.467  0.00  0.00    -0.048 A 
ENDBRANCH  17  19
ENDBRANCH  16  17
ENDBRANCH  15  16
ENDBRANCH   6  15
BRANCH   2  25
ATOM     25  O   UNL     1      89.307  48.732  41.963  0.00  0.00    -0.453 OA
BRANCH  25  26
ATOM     26  C   UNL     1      90.114  47.735  42.523  0.00  0.00    +0.305 C 
ATOM     27  O   UNL     1      89.936  46.520  42.234  0.00  0.00    -0.251 OA
ATOM     28  C   UNL     1      91.229  48.120  43.433  0.00  0.00    +0.033 C 
ENDBRANCH  25  26
ENDBRANCH   2  25
TORSDOF 10
ENDMDL
