MODEL 1
REMARK VINA RESULT:    -8.051      0.000      0.000
REMARK INTER + INTRA:         -13.495
REMARK INTER:                 -11.800
REMARK INTRA:                  -1.695
REMARK UNBOUND:                -1.207
REMARK  Name = 
REMARK  12 active torsions:
REMARK  status: ('A' for Active; 'I' for Inactive)
REMARK    1  A    between atoms: C_1  and  C_2
REMARK    2  A    between atoms: C_2  and  O_4
REMARK    3  A    between atoms: O_4  and  C_5
REMARK    4  A    between atoms: C_6  and  O_23
REMARK    5  A    between atoms: C_9  and  O_22
REMARK    6  A    between atoms: C_10  and  O_11
REMARK    7  A    between atoms: C_10  and  C_12
REMARK    8  A    between atoms: C_12  and  O_13
REMARK    9  A    between atoms: O_13  and  C_14
REMARK   10  A    between atoms: C_14  and  C_16
REMARK   11  A    between atoms: O_23  and  C_24
REMARK   12  A    between atoms: C_24  and  C_26
REMARK                            x       y       z     vdW  Elec       q    Type
REMARK                         _______ _______ _______ _____ _____    ______ ____
ROOT
ATOM      1  C   UNL     1      84.958  55.454  45.423  0.00  0.00    +0.178 C 
ATOM      2  C   UNL     1      84.201  56.206  46.541  0.00  0.00    +0.161 C 
ATOM      3  C   UNL     1      84.557  57.674  46.602  0.00  0.00    -0.042 C 
ATOM      4  C   UNL     1      85.139  58.328  45.586  0.00  0.00    -0.053 C 
ATOM      5  C   UNL     1      85.683  57.622  44.368  0.00  0.00    +0.109 C 
ATOM      6  C   UNL     1      84.955  56.269  44.101  0.00  0.00    +0.170 C 
ENDROOT
BRANCH   6   7
ATOM      7  O   UNL     1      83.611  56.474  43.721  0.00  0.00    -0.379 OA
ATOM      8  H   UNL     1      83.142  55.626  43.717  0.00  0.00    +0.000 HD
ENDBRANCH   6   7
BRANCH   5   9
ATOM      9  O   UNL     1      85.581  58.472  43.254  0.00  0.00    -0.385 OA
ATOM     10  H   UNL     1      86.439  58.893  43.089  0.00  0.00    +0.000 HD
ENDBRANCH   5   9
BRANCH   1  11
ATOM     11  O   UNL     1      84.341  54.183  45.202  0.00  0.00    -0.454 OA
BRANCH  11  13
ATOM     12  C   UNL     1      86.366  52.910  45.918  0.00  0.00    +0.033 C 
ATOM     13  C   UNL     1      84.921  52.958  45.554  0.00  0.00    +0.304 C 
ATOM     14  O   UNL     1      84.229  51.906  45.612  0.00  0.00    -0.251 OA
ENDBRANCH  11  13
ENDBRANCH   1  11
BRANCH   6  15
ATOM     15  C   UNL     1      85.701  55.456  43.005  0.00  0.00    +0.128 C 
BRANCH  15  16
ATOM     16  O   UNL     1      85.138  55.662  41.709  0.00  0.00    -0.458 OA
BRANCH  16  17
ATOM     17  C   UNL     1      84.663  54.631  40.889  0.00  0.00    +0.339 C 
ATOM     18  O   UNL     1      85.153  54.458  39.738  0.00  0.00    -0.245 OA
BRANCH  17  19
ATOM     19  C   UNL     1      83.585  53.745  41.378  0.00  0.00    +0.059 A 
ATOM     20  C   UNL     1      83.891  52.470  41.889  0.00  0.00    -0.048 A 
ATOM     21  C   UNL     1      82.873  51.629  42.348  0.00  0.00    -0.061 A 
ATOM     22  C   UNL     1      81.542  52.049  42.301  0.00  0.00    -0.062 A 
ATOM     23  C   UNL     1      81.226  53.312  41.796  0.00  0.00    -0.061 A 
ATOM     24  C   UNL     1      82.239  54.158  41.334  0.00  0.00    -0.048 A 
ENDBRANCH  17  19
ENDBRANCH  16  17
ENDBRANCH  15  16
ENDBRANCH   6  15
BRANCH   2  25
ATOM     25  O   UNL     1      84.490  55.591  47.797  0.00  0.00    -0.453 OA
BRANCH  25  26
ATOM     26  C   UNL     1      83.618  54.711  48.449  0.00  0.00    +0.305 C 
ATOM     27  O   UNL     1      82.369  54.869  48.379  0.00  0.00    -0.251 OA
ATOM     28  C   UNL     1      84.174  53.546  49.193  0.00  0.00    +0.033 C 
ENDBRANCH  25  26
ENDBRANCH   2  25
TORSDOF 10
ENDMDL
MODEL 2
REMARK VINA RESULT:    -8.000      3.749      5.956
REMARK INTER + INTRA:         -13.417
REMARK INTER:                 -12.224
REMARK INTRA:                  -1.193
REMARK UNBOUND:                -1.207
REMARK  Name = 
REMARK  12 active torsions:
REMARK  status: ('A' for Active; 'I' for Inactive)
REMARK    1  A    between atoms: C_1  and  C_2
REMARK    2  A    between atoms: C_2  and  O_4
REMARK    3  A    between atoms: O_4  and  C_5
REMARK    4  A    between atoms: C_6  and  O_23
REMARK    5  A    between atoms: C_9  and  O_22
REMARK    6  A    between atoms: C_10  and  O_11
REMARK    7  A    between atoms: C_10  and  C_12
REMARK    8  A    between atoms: C_12  and  O_13
REMARK    9  A    between atoms: O_13  and  C_14
REMARK   10  A    between atoms: C_14  and  C_16
REMARK   11  A    between atoms: O_23  and  C_24
REMARK   12  A    between atoms: C_24  and  C_26
REMARK                            x       y       z     vdW  Elec       q    Type
REMARK                         _______ _______ _______ _____ _____    ______ ____
ROOT
ATOM      1  C   UNL     1      85.449  54.521  42.900  0.00  0.00    +0.178 C 
ATOM      2  C   UNL     1      85.966  55.625  43.850  0.00  0.00    +0.161 C 
ATOM      3  C   UNL     1      86.389  55.084  45.198  0.00  0.00    -0.042 C 
ATOM      4  C   UNL     1      86.659  53.788  45.413  0.00  0.00    -0.053 C 
ATOM      5  C   UNL     1      86.368  52.715  44.392  0.00  0.00    +0.109 C 
ATOM      6  C   UNL     1      86.373  53.274  42.936  0.00  0.00    +0.170 C 
ENDROOT
BRANCH   6   7
ATOM      7  O   UNL     1      87.668  53.681  42.546  0.00  0.00    -0.379 OA
ATOM      8  H   UNL     1      87.600  54.338  41.836  0.00  0.00    +0.000 HD
ENDBRANCH   6   7
BRANCH   5   9
ATOM      9  O   UNL     1      87.305  51.676  44.531  0.00  0.00    -0.385 OA
ATOM     10  H   UNL     1      86.842  50.825  44.561  0.00  0.00    +0.000 HD
ENDBRANCH   5   9
BRANCH   1  11
ATOM     11  O   UNL     1      85.389  55.033  41.565  0.00  0.00    -0.454 OA
BRANCH  11  13
ATOM     12  C   UNL     1      82.918  54.707  41.422  0.00  0.00    +0.033 C 
ATOM     13  C   UNL     1      84.205  55.171  40.831  0.00  0.00    +0.304 C 
ATOM     14  O   UNL     1      84.206  55.726  39.698  0.00  0.00    -0.251 OA
ENDBRANCH  11  13
ENDBRANCH   1  11
BRANCH   6  15
ATOM     15  C   UNL     1      85.826  52.211  41.943  0.00  0.00    +0.128 C 
BRANCH  15  16
ATOM     16  O   UNL     1      86.552  50.984  42.017  0.00  0.00    -0.458 OA
BRANCH  16  17
ATOM     17  C   UNL     1      87.682  50.696  41.241  0.00  0.00    +0.339 C 
ATOM     18  O   UNL     1      87.971  51.419  40.246  0.00  0.00    -0.245 OA
BRANCH  17  19
ATOM     19  C   UNL     1      88.537  49.541  41.592  0.00  0.00    +0.059 A 
ATOM     20  C   UNL     1      89.891  49.734  41.920  0.00  0.00    -0.048 A 
ATOM     21  C   UNL     1      90.701  48.644  42.248  0.00  0.00    -0.061 A 
ATOM     22  C   UNL     1      90.171  47.351  42.252  0.00  0.00    -0.062 A 
ATOM     23  C   UNL     1      88.829  47.147  41.928  0.00  0.00    -0.061 A 
ATOM     24  C   UNL     1      88.013  48.234  41.597  0.00  0.00    -0.048 A 
ENDBRANCH  17  19
ENDBRANCH  16  17
ENDBRANCH  15  16
ENDBRANCH   6  15
BRANCH   2  25
ATOM     25  O   UNL     1      84.945  56.607  44.029  0.00  0.00    -0.453 OA
BRANCH  25  26
ATOM     26  C   UNL     1      85.204  57.947  44.338  0.00  0.00    +0.305 C 
ATOM     27  O   UNL     1      85.875  58.673  43.555  0.00  0.00    -0.251 OA
ATOM     28  C   UNL     1      84.637  58.535  45.584  0.00  0.00    +0.033 C 
ENDBRANCH  25  26
ENDBRANCH   2  25
TORSDOF 10
ENDMDL
MODEL 3
REMARK VINA RESULT:    -7.803      4.003      6.791
REMARK INTER + INTRA:         -13.116
REMARK INTER:                 -11.675
REMARK INTRA:                  -1.441
REMARK UNBOUND:                -1.207
REMARK  Name = 
REMARK  12 active torsions:
REMARK  status: ('A' for Active; 'I' for Inactive)
REMARK    1  A    between atoms: C_1  and  C_2
REMARK    2  A    between atoms: C_2  and  O_4
REMARK    3  A    between atoms: O_4  and  C_5
REMARK    4  A    between atoms: C_6  and  O_23
REMARK    5  A    between atoms: C_9  and  O_22
REMARK    6  A    between atoms: C_10  and  O_11
REMARK    7  A    between atoms: C_10  and  C_12
REMARK    8  A    between atoms: C_12  and  O_13
REMARK    9  A    between atoms: O_13  and  C_14
REMARK   10  A    between atoms: C_14  and  C_16
REMARK   11  A    between atoms: O_23  and  C_24
REMARK   12  A    between atoms: C_24  and  C_26
REMARK                            x       y       z     vdW  Elec       q    Type
REMARK                         _______ _______ _______ _____ _____    ______ ____
ROOT
ATOM      1  C   UNL     1      87.871  51.438  42.743  0.00  0.00    +0.178 C 
ATOM      2  C   UNL     1      89.208  50.728  42.432  0.00  0.00    +0.161 C 
ATOM      3  C   UNL     1      89.441  50.547  40.949  0.00  0.00    -0.042 C 
ATOM      4  C   UNL     1      88.785  51.251  40.015  0.00  0.00    -0.053 C 
ATOM      5  C   UNL     1      87.608  52.138  40.340  0.00  0.00    +0.109 C 
ATOM      6  C   UNL     1      87.656  52.659  41.810  0.00  0.00    +0.170 C 
ENDROOT
BRANCH   6   7
ATOM      7  O   UNL     1      88.734  53.551  42.004  0.00  0.00    -0.379 OA
ATOM      8  H   UNL     1      88.890  54.052  41.189  0.00  0.00    +0.000 HD
ENDBRANCH   6   7
BRANCH   5   9
ATOM      9  O   UNL     1      87.570  53.210  39.432  0.00  0.00    -0.385 OA
ATOM     10  H   UNL     1      86.701  53.639  39.475  0.00  0.00    +0.000 HD
ENDBRANCH   5   9
BRANCH   1  11
ATOM     11  O   UNL     1      87.870  51.873  44.107  0.00  0.00    -0.454 OA
BRANCH  11  13
ATOM     12  C   UNL     1      87.560  51.421  46.543  0.00  0.00    +0.033 C 
ATOM     13  C   UNL     1      87.132  51.257  45.125  0.00  0.00    +0.304 C 
ATOM     14  O   UNL     1      86.084  50.606  44.862  0.00  0.00    -0.251 OA
ENDBRANCH  11  13
ENDBRANCH   1  11
BRANCH   6  15
ATOM     15  C   UNL     1      86.316  53.353  42.185  0.00  0.00    +0.128 C 
BRANCH  15  16
ATOM     16  O   UNL     1      86.523  54.633  42.782  0.00  0.00    -0.458 OA
BRANCH  16  17
ATOM     17  C   UNL     1      85.574  55.290  43.575  0.00  0.00    +0.339 C 
ATOM     18  O   UNL     1      84.812  56.160  43.064  0.00  0.00    -0.245 OA
BRANCH  17  19
ATOM     19  C   UNL     1      85.467  54.961  45.012  0.00  0.00    +0.059 A 
ATOM     20  C   UNL     1      86.190  55.701  45.965  0.00  0.00    -0.048 A 
ATOM     21  C   UNL     1      86.093  55.389  47.325  0.00  0.00    -0.061 A 
ATOM     22  C   UNL     1      85.277  54.337  47.747  0.00  0.00    -0.062 A 
ATOM     23  C   UNL     1      84.555  53.596  46.809  0.00  0.00    -0.061 A 
ATOM     24  C   UNL     1      84.648  53.902  45.448  0.00  0.00    -0.048 A 
ENDBRANCH  17  19
ENDBRANCH  16  17
ENDBRANCH  15  16
ENDBRANCH   6  15
BRANCH   2  25
ATOM     25  O   UNL     1      89.223  49.454  43.077  0.00  0.00    -0.453 OA
BRANCH  25  26
ATOM     26  C   UNL     1      90.299  48.562  43.005  0.00  0.00    +0.305 C 
ATOM     27  O   UNL     1      91.388  48.813  43.588  0.00  0.00    -0.251 OA
ATOM     28  C   UNL     1      90.137  47.276  42.270  0.00  0.00    +0.033 C 
ENDBRANCH  25  26
ENDBRANCH   2  25
TORSDOF 10
ENDMDL
MODEL 4
REMARK VINA RESULT:    -7.783      3.817      6.598
REMARK INTER + INTRA:         -13.086
REMARK INTER:                 -11.782
REMARK INTRA:                  -1.304
REMARK UNBOUND:                -1.207
REMARK  Name = 
REMARK  12 active torsions:
REMARK  status: ('A' for Active; 'I' for Inactive)
REMARK    1  A    between atoms: C_1  and  C_2
REMARK    2  A    between atoms: C_2  and  O_4
REMARK    3  A    between atoms: O_4  and  C_5
REMARK    4  A    between atoms: C_6  and  O_23
REMARK    5  A    between atoms: C_9  and  O_22
REMARK    6  A    between atoms: C_10  and  O_11
REMARK    7  A    between atoms: C_10  and  C_12
REMARK    8  A    between atoms: C_12  and  O_13
REMARK    9  A    between atoms: O_13  and  C_14
REMARK   10  A    between atoms: C_14  and  C_16
REMARK   11  A    between atoms: O_23  and  C_24
REMARK   12  A    between atoms: C_24  and  C_26
REMARK                            x       y       z     vdW  Elec       q    Type
REMARK                         _______ _______ _______ _____ _____    ______ ____
ROOT
ATOM      1  C   UNL     1      87.238  51.257  42.138  0.00  0.00    +0.178 C 
ATOM      2  C   UNL     1      88.691  50.754  42.298  0.00  0.00    +0.161 C 
ATOM      3  C   UNL     1      89.475  50.818  41.007  0.00  0.00    -0.042 C 
ATOM      4  C   UNL     1      89.104  51.572  39.962  0.00  0.00    -0.053 C 
ATOM      5  C   UNL     1      87.765  52.265  39.893  0.00  0.00    +0.109 C 
ATOM      6  C   UNL     1      87.188  52.569  41.310  0.00  0.00    +0.170 C 
ENDROOT
BRANCH   6   7
ATOM      7  O   UNL     1      87.964  53.538  41.984  0.00  0.00    -0.379 OA
ATOM      8  H   UNL     1      88.887  53.472  41.693  0.00  0.00    +0.000 HD
ENDBRANCH   6   7
BRANCH   5   9
ATOM      9  O   UNL     1      87.891  53.446  39.142  0.00  0.00    -0.385 OA
ATOM     10  H   UNL     1      87.338  54.139  39.534  0.00  0.00    +0.000 HD
ENDBRANCH   5   9
BRANCH   1  11
ATOM     11  O   UNL     1      86.670  51.486  43.432  0.00  0.00    -0.454 OA
BRANCH  11  13
ATOM     12  C   UNL     1      84.516  51.503  44.694  0.00  0.00    +0.033 C 
ATOM     13  C   UNL     1      85.579  50.775  43.946  0.00  0.00    +0.304 C 
ATOM     14  O   UNL     1      85.461  49.535  43.743  0.00  0.00    -0.251 OA
ENDBRANCH  11  13
ENDBRANCH   1  11
BRANCH   6  15
ATOM     15  C   UNL     1      85.712  53.046  41.207  0.00  0.00    +0.128 C 
BRANCH  15  16
ATOM     16  O   UNL     1      85.605  54.469  41.238  0.00  0.00    -0.458 OA
BRANCH  16  17
ATOM     17  C   UNL     1      84.639  55.166  41.975  0.00  0.00    +0.339 C 
ATOM     18  O   UNL     1      83.455  55.256  41.545  0.00  0.00    -0.245 OA
BRANCH  17  19
ATOM     19  C   UNL     1      85.012  55.795  43.261  0.00  0.00    +0.059 A 
ATOM     20  C   UNL     1      85.744  55.069  44.219  0.00  0.00    -0.048 A 
ATOM     21  C   UNL     1      86.094  55.661  45.437  0.00  0.00    -0.061 A 
ATOM     22  C   UNL     1      85.718  56.978  45.711  0.00  0.00    -0.062 A 
ATOM     23  C   UNL     1      84.992  57.707  44.767  0.00  0.00    -0.061 A 
ATOM     24  C   UNL     1      84.637  57.121  43.548  0.00  0.00    -0.048 A 
ENDBRANCH  17  19
ENDBRANCH  16  17
ENDBRANCH  15  16
ENDBRANCH   6  15
BRANCH   2  25
ATOM     25  O   UNL     1      88.672  49.410  42.780  0.00  0.00    -0.453 OA
BRANCH  25  26
ATOM     26  C   UNL     1      88.684  48.287  41.944  0.00  0.00    +0.305 C 
ATOM     27  O   UNL     1      87.708  48.033  41.188  0.00  0.00    -0.251 OA
ATOM     28  C   UNL     1      89.887  47.409  41.915  0.00  0.00    +0.033 C 
ENDBRANCH  25  26
ENDBRANCH   2  25
TORSDOF 10
ENDMDL
MODEL 5
REMARK VINA RESULT:    -7.630      1.736      5.292
REMARK INTER + INTRA:         -12.851
REMARK INTER:                 -11.156
REMARK INTRA:                  -1.695
REMARK UNBOUND:                -1.207
REMARK  Name = 
REMARK  12 active torsions:
REMARK  status: ('A' for Active; 'I' for Inactive)
REMARK    1  A    between atoms: C_1  and  C_2
REMARK    2  A    between atoms: C_2  and  O_4
REMARK    3  A    between atoms: O_4  and  C_5
REMARK    4  A    between atoms: C_6  and  O_23
REMARK    5  A    between atoms: C_9  and  O_22
REMARK    6  A    between atoms: C_10  and  O_11
REMARK    7  A    between atoms: C_10  and  C_12
REMARK    8  A    between atoms: C_12  and  O_13
REMARK    9  A    between atoms: O_13  and  C_14
REMARK   10  A    between atoms: C_14  and  C_16
REMARK   11  A    between atoms: O_23  and  C_24
REMARK   12  A    between atoms: C_24  and  C_26
REMARK                            x       y       z     vdW  Elec       q    Type
REMARK                         _______ _______ _______ _____ _____    ______ ____
ROOT
ATOM      1  C   UNL     1      84.133  52.808  43.240  0.00  0.00    +0.178 C 
ATOM      2  C   UNL     1      83.108  51.719  42.849  0.00  0.00    +0.161 C 
ATOM      3  C   UNL     1      81.937  52.273  42.070  0.00  0.00    -0.042 C 
ATOM      4  C   UNL     1      81.967  53.464  41.452  0.00  0.00    -0.053 C 
ATOM      5  C   UNL     1      83.089  54.454  41.648  0.00  0.00    +0.109 C 
ATOM      6  C   UNL     1      84.426  53.754  42.045  0.00  0.00    +0.170 C 
ENDROOT
BRANCH   6   7
ATOM      7  O   UNL     1      84.932  52.972  40.984  0.00  0.00    -0.379 OA
ATOM      8  H   UNL     1      85.889  52.862  41.091  0.00  0.00    +0.000 HD
ENDBRANCH   6   7
BRANCH   5   9
ATOM      9  O   UNL     1      83.251  55.210  40.474  0.00  0.00    -0.385 OA
ATOM     10  H   UNL     1      84.196  55.366  40.317  0.00  0.00    +0.000 HD
ENDBRANCH   5   9
BRANCH   1  11
ATOM     11  O   UNL     1      85.349  52.184  43.664  0.00  0.00    -0.454 OA
BRANCH  11  13
ATOM     12  C   UNL     1      87.244  51.969  45.276  0.00  0.00    +0.033 C 
ATOM     13  C   UNL     1      85.793  52.156  44.991  0.00  0.00    +0.304 C 
ATOM     14  O   UNL     1      84.990  52.336  45.947  0.00  0.00    -0.251 OA
ENDBRANCH  11  13
ENDBRANCH   1  11
BRANCH   6  15
ATOM     15  C   UNL     1      85.483  54.808  42.482  0.00  0.00    +0.128 C 
BRANCH  15  16
ATOM     16  O   UNL     1      84.918  56.113  42.612  0.00  0.00    -0.458 OA
BRANCH  16  17
ATOM     17  C   UNL     1      85.205  56.988  43.667  0.00  0.00    +0.339 C 
ATOM     18  O   UNL     1      85.415  58.212  43.436  0.00  0.00    -0.245 OA
BRANCH  17  19
ATOM     19  C   UNL     1      85.262  56.473  45.052  0.00  0.00    +0.059 A 
ATOM     20  C   UNL     1      84.141  56.583  45.895  0.00  0.00    -0.048 A 
ATOM     21  C   UNL     1      84.194  56.100  47.206  0.00  0.00    -0.061 A 
ATOM     22  C   UNL     1      85.362  55.505  47.689  0.00  0.00    -0.062 A 
ATOM     23  C   UNL     1      86.480  55.391  46.861  0.00  0.00    -0.061 A 
ATOM     24  C   UNL     1      86.435  55.873  45.549  0.00  0.00    -0.048 A 
ENDBRANCH  17  19
ENDBRANCH  16  17
ENDBRANCH  15  16
ENDBRANCH   6  15
BRANCH   2  25
ATOM     25  O   UNL     1      82.633  51.076  44.032  0.00  0.00    -0.453 OA
BRANCH  25  26
ATOM     26  C   UNL     1      82.756  49.702  44.270  0.00  0.00    +0.305 C 
ATOM     27  O   UNL     1      83.869  49.197  44.583  0.00  0.00    -0.251 OA
ATOM     28  C   UNL     1      81.546  48.835  44.202  0.00  0.00    +0.033 C 
ENDBRANCH  25  26
ENDBRANCH   2  25
TORSDOF 10
ENDMDL
MODEL 6
REMARK VINA RESULT:    -7.553      2.880      7.229
REMARK INTER + INTRA:         -12.734
REMARK INTER:                 -11.499
REMARK INTRA:                  -1.235
REMARK UNBOUND:                -1.207
REMARK  Name = 
REMARK  12 active torsions:
REMARK  status: ('A' for Active; 'I' for Inactive)
REMARK    1  A    between atoms: C_1  and  C_2
REMARK    2  A    between atoms: C_2  and  O_4
REMARK    3  A    between atoms: O_4  and  C_5
REMARK    4  A    between atoms: C_6  and  O_23
REMARK    5  A    between atoms: C_9  and  O_22
REMARK    6  A    between atoms: C_10  and  O_11
REMARK    7  A    between atoms: C_10  and  C_12
REMARK    8  A    between atoms: C_12  and  O_13
REMARK    9  A    between atoms: O_13  and  C_14
REMARK   10  A    between atoms: C_14  and  C_16
REMARK   11  A    between atoms: O_23  and  C_24
REMARK   12  A    between atoms: C_24  and  C_26
REMARK                            x       y       z     vdW  Elec       q    Type
REMARK                         _______ _______ _______ _____ _____    ______ ____
ROOT
ATOM      1  C   UNL     1      86.456  52.219  42.329  0.00  0.00    +0.178 C 
ATOM      2  C   UNL     1      87.075  51.097  41.465  0.00  0.00    +0.161 C 
ATOM      3  C   UNL     1      88.178  50.350  42.180  0.00  0.00    -0.042 C 
ATOM      4  C   UNL     1      88.336  50.378  43.511  0.00  0.00    -0.053 C 
ATOM      5  C   UNL     1      87.563  51.319  44.403  0.00  0.00    +0.109 C 
ATOM      6  C   UNL     1      86.193  51.727  43.778  0.00  0.00    +0.170 C 
ENDROOT
BRANCH   6   7
ATOM      7  O   UNL     1      85.311  50.626  43.710  0.00  0.00    -0.379 OA
ATOM      8  H   UNL     1      85.319  50.260  42.812  0.00  0.00    +0.000 HD
ENDBRANCH   6   7
BRANCH   5   9
ATOM      9  O   UNL     1      87.379  50.720  45.661  0.00  0.00    -0.385 OA
ATOM     10  H   UNL     1      86.618  50.120  45.626  0.00  0.00    +0.000 HD
ENDBRANCH   5   9
BRANCH   1  11
ATOM     11  O   UNL     1      85.225  52.648  41.740  0.00  0.00    -0.454 OA
BRANCH  11  13
ATOM     12  C   UNL     1      84.596  55.065  41.743  0.00  0.00    +0.033 C 
ATOM     13  C   UNL     1      85.072  53.846  41.030  0.00  0.00    +0.304 C 
ATOM     14  O   UNL     1      85.377  53.918  39.809  0.00  0.00    -0.251 OA
ENDBRANCH  11  13
ENDBRANCH   1  11
BRANCH   6  15
ATOM     15  C   UNL     1      85.544  52.881  44.593  0.00  0.00    +0.128 C 
BRANCH  15  16
ATOM     16  O   UNL     1      86.485  53.525  45.452  0.00  0.00    -0.458 OA
BRANCH  16  17
ATOM     17  C   UNL     1      86.142  54.506  46.392  0.00  0.00    +0.339 C 
ATOM     18  O   UNL     1      86.093  54.219  47.621  0.00  0.00    -0.245 OA
BRANCH  17  19
ATOM     19  C   UNL     1      85.840  55.881  45.938  0.00  0.00    +0.059 A 
ATOM     20  C   UNL     1      86.439  56.391  44.771  0.00  0.00    -0.048 A 
ATOM     21  C   UNL     1      86.157  57.691  44.343  0.00  0.00    -0.061 A 
ATOM     22  C   UNL     1      85.279  58.496  45.072  0.00  0.00    -0.062 A 
ATOM     23  C   UNL     1      84.679  58.001  46.232  0.00  0.00    -0.061 A 
ATOM     24  C   UNL     1      84.957  56.701  46.666  0.00  0.00    -0.048 A 
ENDBRANCH  17  19
ENDBRANCH  16  17
ENDBRANCH  15  16
ENDBRANCH   6  15
BRANCH   2  25
ATOM     25  O   UNL     1      87.586  51.664  40.258  0.00  0.00    -0.453 OA
BRANCH  25  26
ATOM     26  C   UNL     1      88.951  51.835  39.999  0.00  0.00    +0.305 C 
ATOM     27  O   UNL     1      89.529  51.161  39.104  0.00  0.00    -0.251 OA
ATOM     28  C   UNL     1      89.718  52.861  40.760  0.00  0.00    +0.033 C 
ENDBRANCH  25  26
ENDBRANCH   2  25
TORSDOF 10
ENDMDL
MODEL 7
REMARK VINA RESULT:    -7.544      4.021      7.148
REMARK INTER + INTRA:         -12.720
REMARK INTER:                 -11.513
REMARK INTRA:                  -1.207
REMARK UNBOUND:                -1.207
REMARK  Name = 
REMARK  12 active torsions:
REMARK  status: ('A' for Active; 'I' for Inactive)
REMARK    1  A    between atoms: C_1  and  C_2
REMARK    2  A    between atoms: C_2  and  O_4
REMARK    3  A    between atoms: O_4  and  C_5
REMARK    4  A    between atoms: C_6  and  O_23
REMARK    5  A    between atoms: C_9  and  O_22
REMARK    6  A    between atoms: C_10  and  O_11
REMARK    7  A    between atoms: C_10  and  C_12
REMARK    8  A    between atoms: C_12  and  O_13
REMARK    9  A    between atoms: O_13  and  C_14
REMARK   10  A    between atoms: C_14  and  C_16
REMARK   11  A    between atoms: O_23  and  C_24
REMARK   12  A    between atoms: C_24  and  C_26
REMARK                            x       y       z     vdW  Elec       q    Type
REMARK                         _______ _______ _______ _____ _____    ______ ____
ROOT
ATOM      1  C   UNL     1      88.079  51.261  42.469  0.00  0.00    +0.178 C 
ATOM      2  C   UNL     1      88.457  49.888  43.071  0.00  0.00    +0.161 C 
ATOM      3  C   UNL     1      88.224  49.821  44.563  0.00  0.00    -0.042 C 
ATOM      4  C   UNL     1      87.429  50.681  45.218  0.00  0.00    -0.053 C 
ATOM      5  C   UNL     1      86.859  51.919  44.569  0.00  0.00    +0.109 C 
ATOM      6  C   UNL     1      86.718  51.759  43.024  0.00  0.00    +0.170 C 
ENDROOT
BRANCH   6   7
ATOM      7  O   UNL     1      85.736  50.799  42.694  0.00  0.00    -0.379 OA
ATOM      8  H   UNL     1      84.871  51.100  43.011  0.00  0.00    +0.000 HD
ENDBRANCH   6   7
BRANCH   5   9
ATOM      9  O   UNL     1      85.617  52.220  45.155  0.00  0.00    -0.385 OA
ATOM     10  H   UNL     1      85.398  53.150  44.988  0.00  0.00    +0.000 HD
ENDBRANCH   5   9
BRANCH   1  11
ATOM     11  O   UNL     1      88.003  51.149  41.044  0.00  0.00    -0.454 OA
BRANCH  11  13
ATOM     12  C   UNL     1      89.887  52.747  40.681  0.00  0.00    +0.033 C 
ATOM     13  C   UNL     1      88.908  51.750  40.162  0.00  0.00    +0.304 C 
ATOM     14  O   UNL     1      88.939  51.425  38.944  0.00  0.00    -0.251 OA
ENDBRANCH  11  13
ENDBRANCH   1  11
BRANCH   6  15
ATOM     15  C   UNL     1      86.373  53.124  42.365  0.00  0.00    +0.128 C 
BRANCH  15  16
ATOM     16  O   UNL     1      86.400  54.197  43.307  0.00  0.00    -0.458 OA
BRANCH  16  17
ATOM     17  C   UNL     1      85.662  55.379  43.168  0.00  0.00    +0.339 C 
ATOM     18  O   UNL     1      85.145  55.677  42.055  0.00  0.00    -0.245 OA
BRANCH  17  19
ATOM     19  C   UNL     1      85.490  56.276  44.331  0.00  0.00    +0.059 A 
ATOM     20  C   UNL     1      85.813  55.829  45.625  0.00  0.00    -0.048 A 
ATOM     21  C   UNL     1      85.647  56.674  46.727  0.00  0.00    -0.061 A 
ATOM     22  C   UNL     1      85.158  57.971  46.549  0.00  0.00    -0.062 A 
ATOM     23  C   UNL     1      84.835  58.425  45.269  0.00  0.00    -0.061 A 
ATOM     24  C   UNL     1      84.997  57.584  44.163  0.00  0.00    -0.048 A 
ENDBRANCH  17  19
ENDBRANCH  16  17
ENDBRANCH  15  16
ENDBRANCH   6  15
BRANCH   2  25
ATOM     25  O   UNL     1      89.830  49.615  42.789  0.00  0.00    -0.453 OA
BRANCH  25  26
ATOM     26  C   UNL     1      90.377  48.326  42.776  0.00  0.00    +0.305 C 
ATOM     27  O   UNL     1      90.108  47.519  41.845  0.00  0.00    -0.251 OA
ATOM     28  C   UNL     1      91.326  47.921  43.851  0.00  0.00    +0.033 C 
ENDBRANCH  25  26
ENDBRANCH   2  25
TORSDOF 10
ENDMDL
MODEL 8
REMARK VINA RESULT:    -7.512      4.017      6.346
REMARK INTER + INTRA:         -12.672
REMARK INTER:                 -11.367
REMARK INTRA:                  -1.305
REMARK UNBOUND:                -1.207
REMARK  Name = 
REMARK  12 active torsions:
REMARK  status: ('A' for Active; 'I' for Inactive)
REMARK    1  A    between atoms: C_1  and  C_2
REMARK    2  A    between atoms: C_2  and  O_4
REMARK    3  A    between atoms: O_4  and  C_5
REMARK    4  A    between atoms: C_6  and  O_23
REMARK    5  A    between atoms: C_9  and  O_22
REMARK    6  A    between atoms: C_10  and  O_11
REMARK    7  A    between atoms: C_10  and  C_12
REMARK    8  A    between atoms: C_12  and  O_13
REMARK    9  A    between atoms: O_13  and  C_14
REMARK   10  A    between atoms: C_14  and  C_16
REMARK   11  A    between atoms: O_23  and  C_24
REMARK   12  A    between atoms: C_24  and  C_26
REMARK                            x       y       z     vdW  Elec       q    Type
REMARK                         _______ _______ _______ _____ _____    ______ ____
ROOT
ATOM      1  C   UNL     1      87.782  51.358  42.537  0.00  0.00    +0.178 C 
ATOM      2  C   UNL     1      89.176  50.803  42.165  0.00  0.00    +0.161 C 
ATOM      3  C   UNL     1      89.418  50.785  40.673  0.00  0.00    -0.042 C 
ATOM      4  C   UNL     1      88.698  51.513  39.807  0.00  0.00    -0.053 C 
ATOM      5  C   UNL     1      87.448  52.257  40.211  0.00  0.00    +0.109 C 
ATOM      6  C   UNL     1      87.455  52.638  41.723  0.00  0.00    +0.170 C 
ENDROOT
BRANCH   6   7
ATOM      7  O   UNL     1      88.450  53.600  42.006  0.00  0.00    -0.379 OA
ATOM      8  H   UNL     1      89.193  53.486  41.393  0.00  0.00    +0.000 HD
ENDBRANCH   6   7
BRANCH   5   9
ATOM      9  O   UNL     1      87.310  53.403  39.408  0.00  0.00    -0.385 OA
ATOM     10  H   UNL     1      87.608  54.182  39.902  0.00  0.00    +0.000 HD
ENDBRANCH   5   9
BRANCH   1  11
ATOM     11  O   UNL     1      87.749  51.659  43.936  0.00  0.00    -0.454 OA
BRANCH  11  13
ATOM     12  C   UNL     1      86.617  51.559  46.159  0.00  0.00    +0.033 C 
ATOM     13  C   UNL     1      87.031  50.916  44.880  0.00  0.00    +0.304 C 
ATOM     14  O   UNL     1      86.690  49.725  44.644  0.00  0.00    -0.251 OA
ENDBRANCH  11  13
ENDBRANCH   1  11
BRANCH   6  15
ATOM     15  C   UNL     1      86.060  53.171  42.157  0.00  0.00    +0.128 C 
BRANCH  15  16
ATOM     16  O   UNL     1      84.997  52.511  41.469  0.00  0.00    -0.458 OA
BRANCH  16  17
ATOM     17  C   UNL     1      83.641  52.687  41.773  0.00  0.00    +0.339 C 
ATOM     18  O   UNL     1      83.038  53.735  41.404  0.00  0.00    -0.245 OA
BRANCH  17  19
ATOM     19  C   UNL     1      82.917  51.640  42.527  0.00  0.00    +0.059 A 
ATOM     20  C   UNL     1      81.578  51.341  42.216  0.00  0.00    -0.048 A 
ATOM     21  C   UNL     1      80.891  50.355  42.930  0.00  0.00    -0.061 A 
ATOM     22  C   UNL     1      81.530  49.660  43.959  0.00  0.00    -0.062 A 
ATOM     23  C   UNL     1      82.859  49.949  44.276  0.00  0.00    -0.061 A 
ATOM     24  C   UNL     1      83.552  50.935  43.567  0.00  0.00    -0.048 A 
ENDBRANCH  17  19
ENDBRANCH  16  17
ENDBRANCH  15  16
ENDBRANCH   6  15
BRANCH   2  25
ATOM     25  O   UNL     1      89.308  49.480  42.687  0.00  0.00    -0.453 OA
BRANCH  25  26
ATOM     26  C   UNL     1      89.036  48.324  41.945  0.00  0.00    +0.305 C 
ATOM     27  O   UNL     1      87.887  48.116  41.469  0.00  0.00    -0.251 OA
ATOM     28  C   UNL     1      90.132  47.352  41.676  0.00  0.00    +0.033 C 
ENDBRANCH  25  26
ENDBRANCH   2  25
TORSDOF 10
ENDMDL
MODEL 9
REMARK VINA RESULT:    -7.484      4.707      8.060
REMARK INTER + INTRA:         -12.629
REMARK INTER:                 -11.075
REMARK INTRA:                  -1.554
REMARK UNBOUND:                -1.207
REMARK  Name = 
REMARK  12 active torsions:
REMARK  status: ('A' for Active; 'I' for Inactive)
REMARK    1  A    between atoms: C_1  and  C_2
REMARK    2  A    between atoms: C_2  and  O_4
REMARK    3  A    between atoms: O_4  and  C_5
REMARK    4  A    between atoms: C_6  and  O_23
REMARK    5  A    between atoms: C_9  and  O_22
REMARK    6  A    between atoms: C_10  and  O_11
REMARK    7  A    between atoms: C_10  and  C_12
REMARK    8  A    between atoms: C_12  and  O_13
REMARK    9  A    between atoms: O_13  and  C_14
REMARK   10  A    between atoms: C_14  and  C_16
REMARK   11  A    between atoms: O_23  and  C_24
REMARK   12  A    between atoms: C_24  and  C_26
REMARK                            x       y       z     vdW  Elec       q    Type
REMARK                         _______ _______ _______ _____ _____    ______ ____
ROOT
ATOM      1  C   UNL     1      86.479  48.733  43.174  0.00  0.00    +0.178 C 
ATOM      2  C   UNL     1      86.786  47.221  43.258  0.00  0.00    +0.161 C 
ATOM      3  C   UNL     1      87.833  46.781  42.259  0.00  0.00    -0.042 C 
ATOM      4  C   UNL     1      88.672  47.636  41.656  0.00  0.00    -0.053 C 
ATOM      5  C   UNL     1      88.519  49.135  41.756  0.00  0.00    +0.109 C 
ATOM      6  C   UNL     1      87.786  49.563  43.064  0.00  0.00    +0.170 C 
ENDROOT
BRANCH   6   7
ATOM      7  O   UNL     1      88.572  49.291  44.206  0.00  0.00    -0.379 OA
ATOM      8  H   UNL     1      88.866  48.368  44.183  0.00  0.00    +0.000 HD
ENDBRANCH   6   7
BRANCH   5   9
ATOM      9  O   UNL     1      89.786  49.738  41.673  0.00  0.00    -0.385 OA
ATOM     10  H   UNL     1      89.924  50.078  40.775  0.00  0.00    +0.000 HD
ENDBRANCH   5   9
BRANCH   1  11
ATOM     11  O   UNL     1      85.754  49.135  44.341  0.00  0.00    -0.454 OA
BRANCH  11  13
ATOM     12  C   UNL     1      83.917  50.826  44.307  0.00  0.00    +0.033 C 
ATOM     13  C   UNL     1      84.382  49.411  44.353  0.00  0.00    +0.304 C 
ATOM     14  O   UNL     1      83.534  48.477  44.355  0.00  0.00    -0.251 OA
ENDBRANCH  11  13
ENDBRANCH   1  11
BRANCH   6  15
ATOM     15  C   UNL     1      87.422  51.074  43.015  0.00  0.00    +0.128 C 
BRANCH  15  16
ATOM     16  O   UNL     1      87.818  51.760  44.203  0.00  0.00    -0.458 OA
BRANCH  16  17
ATOM     17  C   UNL     1      86.954  52.545  44.978  0.00  0.00    +0.339 C 
ATOM     18  O   UNL     1      86.371  53.542  44.465  0.00  0.00    -0.245 OA
BRANCH  17  19
ATOM     19  C   UNL     1      86.727  52.202  46.398  0.00  0.00    +0.059 A 
ATOM     20  C   UNL     1      87.285  51.030  46.942  0.00  0.00    -0.048 A 
ATOM     21  C   UNL     1      87.068  50.701  48.283  0.00  0.00    -0.061 A 
ATOM     22  C   UNL     1      86.294  51.535  49.094  0.00  0.00    -0.062 A 
ATOM     23  C   UNL     1      85.736  52.700  48.565  0.00  0.00    -0.061 A 
ATOM     24  C   UNL     1      85.948  53.034  47.223  0.00  0.00    -0.048 A 
ENDBRANCH  17  19
ENDBRANCH  16  17
ENDBRANCH  15  16
ENDBRANCH   6  15
BRANCH   2  25
ATOM     25  O   UNL     1      85.581  46.485  43.042  0.00  0.00    -0.453 OA
BRANCH  25  26
ATOM     26  C   UNL     1      85.177  45.409  43.840  0.00  0.00    +0.305 C 
ATOM     27  O   UNL     1      84.957  45.564  45.072  0.00  0.00    -0.251 OA
ATOM     28  C   UNL     1      84.956  44.075  43.214  0.00  0.00    +0.033 C 
ENDBRANCH  25  26
ENDBRANCH   2  25
TORSDOF 10
ENDMDL
