MODEL 1
REMARK VINA RESULT:    -8.974      0.000      0.000
REMARK INTER + INTRA:         -14.376
REMARK INTER:                 -12.105
REMARK INTRA:                  -2.272
REMARK UNBOUND:                -1.206
REMARK  Name = 
REMARK  9 active torsions:
REMARK  status: ('A' for Active; 'I' for Inactive)
REMARK    1  A    between atoms: C_2  and  C_3
REMARK    2  A    between atoms: C_2  and  O_9
REMARK    3  A    between atoms: O_9  and  C_10
REMARK    4  A    between atoms: C_10  and  C_11
REMARK    5  A    between atoms: C_15  and  O_28
REMARK    6  A    between atoms: C_16  and  O_19
REMARK    7  A    between atoms: C_17  and  O_18
REMARK    8  A    between atoms: O_19  and  C_20
REMARK    9  A    between atoms: C_20  and  C_22
REMARK                            x       y       z     vdW  Elec       q    Type
REMARK                         _______ _______ _______ _____ _____    ______ ____
ROOT
ATOM      1  C   UNL     1      85.142  56.582  43.459  0.00  0.00    +0.160 C 
ATOM      2  O   UNL     1      85.348  57.975  43.453  0.00  0.00    -0.357 OA
ATOM      3  C   UNL     1      84.422  57.480  44.402  0.00  0.00    +0.113 C 
ATOM      4  C   UNL     1      84.991  57.565  45.829  0.00  0.00    +0.092 C 
ATOM      5  C   UNL     1      85.286  56.168  46.440  0.00  0.00    +0.113 C 
ATOM      6  C   UNL     1      85.772  55.111  45.398  0.00  0.00    +0.159 C 
ATOM      7  C   UNL     1      86.285  55.761  44.097  0.00  0.00    +0.129 C 
ATOM      8 CL   UNL     1      83.847  58.464  46.866  0.00  0.00    -0.116 Cl
ENDROOT
BRANCH   7   9
ATOM      9  O   UNL     1      86.788  54.796  43.205  0.00  0.00    -0.385 OA
ATOM     10  H   UNL     1      86.893  53.950  43.669  0.00  0.00    +0.000 HD
ENDBRANCH   7   9
BRANCH   5  11
ATOM     11  O   UNL     1      86.245  56.311  47.459  0.00  0.00    -0.386 OA
ATOM     12  H   UNL     1      86.752  55.488  47.543  0.00  0.00    +0.000 HD
ENDBRANCH   5  11
BRANCH   1  13
ATOM     13  C   UNL     1      84.321  56.067  42.267  0.00  0.00    +0.127 C 
BRANCH  13  14
ATOM     14  O   UNL     1      84.258  54.643  42.274  0.00  0.00    -0.458 OA
BRANCH  14  16
ATOM     15  O   UNL     1      82.253  54.389  41.158  0.00  0.00    -0.245 OA
ATOM     16  C   UNL     1      83.102  53.917  41.965  0.00  0.00    +0.339 C 
BRANCH  16  17
ATOM     17  C   UNL     1      82.875  52.597  42.590  0.00  0.00    +0.059 A 
ATOM     18  C   UNL     1      83.729  52.139  43.610  0.00  0.00    -0.048 A 
ATOM     19  C   UNL     1      83.519  50.889  44.202  0.00  0.00    -0.061 A 
ATOM     20  C   UNL     1      82.457  50.085  43.782  0.00  0.00    -0.062 A 
ATOM     21  C   UNL     1      81.603  50.528  42.770  0.00  0.00    -0.061 A 
ATOM     22  C   UNL     1      81.809  51.777  42.174  0.00  0.00    -0.048 A 
ENDBRANCH  16  17
ENDBRANCH  14  16
ENDBRANCH  13  14
ENDBRANCH   1  13
BRANCH   6  23
ATOM     23  O   UNL     1      86.798  54.277  45.941  0.00  0.00    -0.452 OA
BRANCH  23  24
ATOM     24  C   UNL     1      86.543  53.072  46.610  0.00  0.00    +0.340 C 
ATOM     25  O   UNL     1      86.093  53.085  47.789  0.00  0.00    -0.245 OA
BRANCH  24  26
ATOM     26  C   UNL     1      86.803  51.785  45.928  0.00  0.00    +0.059 A 
ATOM     27  C   UNL     1      87.455  51.762  44.682  0.00  0.00    -0.048 A 
ATOM     28  C   UNL     1      87.703  50.546  44.036  0.00  0.00    -0.061 A 
ATOM     29  C   UNL     1      87.303  49.344  44.626  0.00  0.00    -0.062 A 
ATOM     30  C   UNL     1      86.654  49.356  45.862  0.00  0.00    -0.061 A 
ATOM     31  C   UNL     1      86.404  50.569  46.513  0.00  0.00    -0.048 A 
ENDBRANCH  24  26
ENDBRANCH  23  24
ENDBRANCH   6  23
TORSDOF 9
ENDMDL
MODEL 2
REMARK VINA RESULT:    -8.965      4.628      7.303
REMARK INTER + INTRA:         -14.363
REMARK INTER:                 -12.206
REMARK INTRA:                  -2.157
REMARK UNBOUND:                -1.206
REMARK  Name = 
REMARK  9 active torsions:
REMARK  status: ('A' for Active; 'I' for Inactive)
REMARK    1  A    between atoms: C_2  and  C_3
REMARK    2  A    between atoms: C_2  and  O_9
REMARK    3  A    between atoms: O_9  and  C_10
REMARK    4  A    between atoms: C_10  and  C_11
REMARK    5  A    between atoms: C_15  and  O_28
REMARK    6  A    between atoms: C_16  and  O_19
REMARK    7  A    between atoms: C_17  and  O_18
REMARK    8  A    between atoms: O_19  and  C_20
REMARK    9  A    between atoms: C_20  and  C_22
REMARK                            x       y       z     vdW  Elec       q    Type
REMARK                         _______ _______ _______ _____ _____    ______ ____
ROOT
ATOM      1  C   UNL     1      84.342  50.602  43.871  0.00  0.00    +0.160 C 
ATOM      2  O   UNL     1      83.460  51.494  44.513  0.00  0.00    -0.357 OA
ATOM      3  C   UNL     1      82.927  50.749  43.434  0.00  0.00    +0.113 C 
ATOM      4  C   UNL     1      81.945  49.675  43.932  0.00  0.00    +0.092 C 
ATOM      5  C   UNL     1      82.485  48.232  43.735  0.00  0.00    +0.113 C 
ATOM      6  C   UNL     1      84.033  48.107  43.905  0.00  0.00    +0.159 C 
ATOM      7  C   UNL     1      84.640  49.308  44.659  0.00  0.00    +0.129 C 
ATOM      8 CL   UNL     1      80.381  49.870  43.090  0.00  0.00    -0.116 Cl
ENDROOT
BRANCH   7   9
ATOM      9  O   UNL     1      86.021  49.136  44.868  0.00  0.00    -0.385 OA
ATOM     10  H   UNL     1      86.411  49.975  45.161  0.00  0.00    +0.000 HD
ENDBRANCH   7   9
BRANCH   5  11
ATOM     11  O   UNL     1      81.834  47.376  44.641  0.00  0.00    -0.386 OA
ATOM     12  H   UNL     1      82.034  46.454  44.415  0.00  0.00    +0.000 HD
ENDBRANCH   5  11
BRANCH   1  13
ATOM     13  C   UNL     1      85.391  51.291  42.985  0.00  0.00    +0.127 C 
BRANCH  13  14
ATOM     14  O   UNL     1      86.174  50.326  42.286  0.00  0.00    -0.458 OA
BRANCH  14  16
ATOM     15  O   UNL     1      87.543  51.497  40.844  0.00  0.00    -0.245 OA
ATOM     16  C   UNL     1      87.427  50.602  41.727  0.00  0.00    +0.339 C 
BRANCH  16  17
ATOM     17  C   UNL     1      88.613  49.839  42.169  0.00  0.00    +0.059 A 
ATOM     18  C   UNL     1      89.534  49.348  41.225  0.00  0.00    -0.048 A 
ATOM     19  C   UNL     1      90.655  48.623  41.640  0.00  0.00    -0.061 A 
ATOM     20  C   UNL     1      90.870  48.380  42.999  0.00  0.00    -0.062 A 
ATOM     21  C   UNL     1      89.962  48.862  43.946  0.00  0.00    -0.061 A 
ATOM     22  C   UNL     1      88.839  49.587  43.536  0.00  0.00    -0.048 A 
ENDBRANCH  16  17
ENDBRANCH  14  16
ENDBRANCH  13  14
ENDBRANCH   1  13
BRANCH   6  23
ATOM     23  O   UNL     1      84.387  46.900  44.584  0.00  0.00    -0.452 OA
BRANCH  23  24
ATOM     24  C   UNL     1      84.669  45.696  43.924  0.00  0.00    +0.340 C 
ATOM     25  O   UNL     1      83.742  44.874  43.682  0.00  0.00    -0.245 OA
BRANCH  24  26
ATOM     26  C   UNL     1      86.057  45.392  43.513  0.00  0.00    +0.059 A 
ATOM     27  C   UNL     1      86.658  44.177  43.887  0.00  0.00    -0.048 A 
ATOM     28  C   UNL     1      87.969  43.887  43.498  0.00  0.00    -0.061 A 
ATOM     29  C   UNL     1      88.694  44.806  42.734  0.00  0.00    -0.062 A 
ATOM     30  C   UNL     1      88.107  46.016  42.357  0.00  0.00    -0.061 A 
ATOM     31  C   UNL     1      86.795  46.311  42.743  0.00  0.00    -0.048 A 
ENDBRANCH  24  26
ENDBRANCH  23  24
ENDBRANCH   6  23
TORSDOF 9
ENDMDL
MODEL 3
REMARK VINA RESULT:    -8.943      3.093      5.614
REMARK INTER + INTRA:         -14.331
REMARK INTER:                 -13.080
REMARK INTRA:                  -1.250
REMARK UNBOUND:                -1.206
REMARK  Name = 
REMARK  9 active torsions:
REMARK  status: ('A' for Active; 'I' for Inactive)
REMARK    1  A    between atoms: C_2  and  C_3
REMARK    2  A    between atoms: C_2  and  O_9
REMARK    3  A    between atoms: O_9  and  C_10
REMARK    4  A    between atoms: C_10  and  C_11
REMARK    5  A    between atoms: C_15  and  O_28
REMARK    6  A    between atoms: C_16  and  O_19
REMARK    7  A    between atoms: C_17  and  O_18
REMARK    8  A    between atoms: O_19  and  C_20
REMARK    9  A    between atoms: C_20  and  C_22
REMARK                            x       y       z     vdW  Elec       q    Type
REMARK                         _______ _______ _______ _____ _____    ______ ____
ROOT
ATOM      1  C   UNL     1      86.027  53.037  41.723  0.00  0.00    +0.160 C 
ATOM      2  O   UNL     1      86.310  53.409  40.394  0.00  0.00    -0.357 OA
ATOM      3  C   UNL     1      84.963  53.536  40.810  0.00  0.00    +0.113 C 
ATOM      4  C   UNL     1      84.568  55.014  40.969  0.00  0.00    +0.092 C 
ATOM      5  C   UNL     1      84.322  55.412  42.450  0.00  0.00    +0.113 C 
ATOM      6  C   UNL     1      85.246  54.670  43.467  0.00  0.00    +0.159 C 
ATOM      7  C   UNL     1      86.487  54.053  42.792  0.00  0.00    +0.129 C 
ATOM      8 CL   UNL     1      83.111  55.343  39.990  0.00  0.00    -0.116 Cl
ENDROOT
BRANCH   7   9
ATOM      9  O   UNL     1      87.342  53.457  43.737  0.00  0.00    -0.385 OA
ATOM     10  H   UNL     1      87.568  54.105  44.423  0.00  0.00    +0.000 HD
ENDBRANCH   7   9
BRANCH   5  11
ATOM     11  O   UNL     1      84.488  56.803  42.580  0.00  0.00    -0.386 OA
ATOM     12  H   UNL     1      83.851  57.259  42.008  0.00  0.00    +0.000 HD
ENDBRANCH   5  11
BRANCH   1  13
ATOM     13  C   UNL     1      86.045  51.520  41.963  0.00  0.00    +0.127 C 
BRANCH  13  14
ATOM     14  O   UNL     1      87.354  51.079  42.315  0.00  0.00    -0.458 OA
BRANCH  14  16
ATOM     15  O   UNL     1      88.314  50.750  40.242  0.00  0.00    -0.245 OA
ATOM     16  C   UNL     1      88.197  50.379  41.443  0.00  0.00    +0.339 C 
BRANCH  16  17
ATOM     17  C   UNL     1      88.945  49.202  41.932  0.00  0.00    +0.059 A 
ATOM     18  C   UNL     1      90.146  49.372  42.646  0.00  0.00    -0.048 A 
ATOM     19  C   UNL     1      90.858  48.260  43.108  0.00  0.00    -0.061 A 
ATOM     20  C   UNL     1      90.381  46.970  42.862  0.00  0.00    -0.062 A 
ATOM     21  C   UNL     1      89.191  46.789  42.153  0.00  0.00    -0.061 A 
ATOM     22  C   UNL     1      88.475  47.898  41.689  0.00  0.00    -0.048 A 
ENDBRANCH  16  17
ENDBRANCH  14  16
ENDBRANCH  13  14
ENDBRANCH   1  13
BRANCH   6  23
ATOM     23  O   UNL     1      85.669  55.541  44.519  0.00  0.00    -0.452 OA
BRANCH  23  24
ATOM     24  C   UNL     1      84.892  55.822  45.650  0.00  0.00    +0.340 C 
ATOM     25  O   UNL     1      84.216  56.886  45.706  0.00  0.00    -0.245 OA
BRANCH  24  26
ATOM     26  C   UNL     1      84.867  54.866  46.779  0.00  0.00    +0.059 A 
ATOM     27  C   UNL     1      85.841  53.857  46.875  0.00  0.00    -0.048 A 
ATOM     28  C   UNL     1      85.821  52.953  47.942  0.00  0.00    -0.061 A 
ATOM     29  C   UNL     1      84.829  53.046  48.921  0.00  0.00    -0.062 A 
ATOM     30  C   UNL     1      83.857  54.044  48.836  0.00  0.00    -0.061 A 
ATOM     31  C   UNL     1      83.872  54.952  47.772  0.00  0.00    -0.048 A 
ENDBRANCH  24  26
ENDBRANCH  23  24
ENDBRANCH   6  23
TORSDOF 9
ENDMDL
MODEL 4
REMARK VINA RESULT:    -8.851      1.880      2.941
REMARK INTER + INTRA:         -14.196
REMARK INTER:                 -12.397
REMARK INTRA:                  -1.799
REMARK UNBOUND:                -1.206
REMARK  Name = 
REMARK  9 active torsions:
REMARK  status: ('A' for Active; 'I' for Inactive)
REMARK    1  A    between atoms: C_2  and  C_3
REMARK    2  A    between atoms: C_2  and  O_9
REMARK    3  A    between atoms: O_9  and  C_10
REMARK    4  A    between atoms: C_10  and  C_11
REMARK    5  A    between atoms: C_15  and  O_28
REMARK    6  A    between atoms: C_16  and  O_19
REMARK    7  A    between atoms: C_17  and  O_18
REMARK    8  A    between atoms: O_19  and  C_20
REMARK    9  A    between atoms: C_20  and  C_22
REMARK                            x       y       z     vdW  Elec       q    Type
REMARK                         _______ _______ _______ _____ _____    ______ ____
ROOT
ATOM      1  C   UNL     1      84.679  54.412  41.383  0.00  0.00    +0.160 C 
ATOM      2  O   UNL     1      84.945  55.700  40.877  0.00  0.00    -0.357 OA
ATOM      3  C   UNL     1      84.234  55.638  42.099  0.00  0.00    +0.113 C 
ATOM      4  C   UNL     1      85.112  56.095  43.277  0.00  0.00    +0.092 C 
ATOM      5  C   UNL     1      85.470  54.933  44.243  0.00  0.00    +0.113 C 
ATOM      6  C   UNL     1      85.658  53.555  43.534  0.00  0.00    +0.159 C 
ATOM      7  C   UNL     1      85.895  53.701  42.017  0.00  0.00    +0.129 C 
ATOM      8 CL   UNL     1      84.277  57.402  44.163  0.00  0.00    -0.116 Cl
ENDROOT
BRANCH   7   9
ATOM      9  O   UNL     1      86.137  52.454  41.413  0.00  0.00    -0.385 OA
ATOM     10  H   UNL     1      86.332  52.582  40.471  0.00  0.00    +0.000 HD
ENDBRANCH   7   9
BRANCH   5  11
ATOM     11  O   UNL     1      86.640  55.272  44.947  0.00  0.00    -0.386 OA
ATOM     12  H   UNL     1      86.419  55.884  45.666  0.00  0.00    +0.000 HD
ENDBRANCH   5  11
BRANCH   1  13
ATOM     13  C   UNL     1      83.587  53.653  40.614  0.00  0.00    +0.127 C 
BRANCH  13  14
ATOM     14  O   UNL     1      83.233  52.452  41.294  0.00  0.00    -0.458 OA
BRANCH  14  16
ATOM     15  O   UNL     1      81.207  53.230  42.083  0.00  0.00    -0.245 OA
ATOM     16  C   UNL     1      82.072  52.310  42.065  0.00  0.00    +0.339 C 
BRANCH  16  17
ATOM     17  C   UNL     1      81.866  51.083  42.863  0.00  0.00    +0.059 A 
ATOM     18  C   UNL     1      80.602  50.465  42.900  0.00  0.00    -0.048 A 
ATOM     19  C   UNL     1      80.402  49.306  43.655  0.00  0.00    -0.061 A 
ATOM     20  C   UNL     1      81.459  48.752  44.382  0.00  0.00    -0.062 A 
ATOM     21  C   UNL     1      82.718  49.357  44.354  0.00  0.00    -0.061 A 
ATOM     22  C   UNL     1      82.923  50.517  43.600  0.00  0.00    -0.048 A 
ENDBRANCH  16  17
ENDBRANCH  14  16
ENDBRANCH  13  14
ENDBRANCH   1  13
BRANCH   6  23
ATOM     23  O   UNL     1      86.739  52.816  44.108  0.00  0.00    -0.452 OA
BRANCH  23  24
ATOM     24  C   UNL     1      86.577  51.579  44.746  0.00  0.00    +0.340 C 
ATOM     25  O   UNL     1      86.447  50.526  44.063  0.00  0.00    -0.245 OA
BRANCH  24  26
ATOM     26  C   UNL     1      86.559  51.513  46.224  0.00  0.00    +0.059 A 
ATOM     27  C   UNL     1      87.307  50.531  46.899  0.00  0.00    -0.048 A 
ATOM     28  C   UNL     1      87.293  50.467  48.296  0.00  0.00    -0.061 A 
ATOM     29  C   UNL     1      86.534  51.380  49.032  0.00  0.00    -0.062 A 
ATOM     30  C   UNL     1      85.787  52.358  48.373  0.00  0.00    -0.061 A 
ATOM     31  C   UNL     1      85.798  52.428  46.975  0.00  0.00    -0.048 A 
ENDBRANCH  24  26
ENDBRANCH  23  24
ENDBRANCH   6  23
TORSDOF 9
ENDMDL
MODEL 5
REMARK VINA RESULT:    -8.779      2.453      5.832
REMARK INTER + INTRA:         -14.090
REMARK INTER:                 -11.457
REMARK INTRA:                  -2.633
REMARK UNBOUND:                -1.206
REMARK  Name = 
REMARK  9 active torsions:
REMARK  status: ('A' for Active; 'I' for Inactive)
REMARK    1  A    between atoms: C_2  and  C_3
REMARK    2  A    between atoms: C_2  and  O_9
REMARK    3  A    between atoms: O_9  and  C_10
REMARK    4  A    between atoms: C_10  and  C_11
REMARK    5  A    between atoms: C_15  and  O_28
REMARK    6  A    between atoms: C_16  and  O_19
REMARK    7  A    between atoms: C_17  and  O_18
REMARK    8  A    between atoms: O_19  and  C_20
REMARK    9  A    between atoms: C_20  and  C_22
REMARK                            x       y       z     vdW  Elec       q    Type
REMARK                         _______ _______ _______ _____ _____    ______ ____
ROOT
ATOM      1  C   UNL     1      86.074  52.267  42.737  0.00  0.00    +0.160 C 
ATOM      2  O   UNL     1      85.725  51.374  41.705  0.00  0.00    -0.357 OA
ATOM      3  C   UNL     1      84.695  51.722  42.611  0.00  0.00    +0.113 C 
ATOM      4  C   UNL     1      83.657  52.642  41.946  0.00  0.00    +0.092 C 
ATOM      5  C   UNL     1      83.681  54.085  42.520  0.00  0.00    +0.113 C 
ATOM      6  C   UNL     1      85.103  54.578  42.937  0.00  0.00    +0.159 C 
ATOM      7  C   UNL     1      86.227  53.740  42.294  0.00  0.00    +0.129 C 
ATOM      8 CL   UNL     1      82.030  51.928  42.135  0.00  0.00    -0.116 Cl
ENDROOT
BRANCH   7   9
ATOM      9  O   UNL     1      87.497  54.249  42.622  0.00  0.00    -0.385 OA
ATOM     10  H   UNL     1      88.182  53.703  42.203  0.00  0.00    +0.000 HD
ENDBRANCH   7   9
BRANCH   5  11
ATOM     11  O   UNL     1      83.131  54.962  41.568  0.00  0.00    -0.386 OA
ATOM     12  H   UNL     1      83.443  55.864  41.740  0.00  0.00    +0.000 HD
ENDBRANCH   5  11
BRANCH   1  13
ATOM     13  C   UNL     1      86.944  51.641  43.837  0.00  0.00    +0.127 C 
BRANCH  13  14
ATOM     14  O   UNL     1      86.998  52.488  44.982  0.00  0.00    -0.458 OA
BRANCH  14  16
ATOM     15  O   UNL     1      87.871  51.287  46.749  0.00  0.00    -0.245 OA
ATOM     16  C   UNL     1      86.944  52.017  46.299  0.00  0.00    +0.339 C 
BRANCH  16  17
ATOM     17  C   UNL     1      85.795  52.371  47.160  0.00  0.00    +0.059 A 
ATOM     18  C   UNL     1      85.930  52.364  48.560  0.00  0.00    -0.048 A 
ATOM     19  C   UNL     1      84.845  52.696  49.377  0.00  0.00    -0.061 A 
ATOM     20  C   UNL     1      83.616  53.036  48.807  0.00  0.00    -0.062 A 
ATOM     21  C   UNL     1      83.470  53.044  47.418  0.00  0.00    -0.061 A 
ATOM     22  C   UNL     1      84.552  52.713  46.596  0.00  0.00    -0.048 A 
ENDBRANCH  16  17
ENDBRANCH  14  16
ENDBRANCH  13  14
ENDBRANCH   1  13
BRANCH   6  23
ATOM     23  O   UNL     1      85.296  55.955  42.603  0.00  0.00    -0.452 OA
BRANCH  23  24
ATOM     24  C   UNL     1      85.315  56.985  43.553  0.00  0.00    +0.340 C 
ATOM     25  O   UNL     1      85.337  58.190  43.180  0.00  0.00    -0.245 OA
BRANCH  24  26
ATOM     26  C   UNL     1      85.309  56.654  44.995  0.00  0.00    +0.059 A 
ATOM     27  C   UNL     1      84.153  56.866  45.767  0.00  0.00    -0.048 A 
ATOM     28  C   UNL     1      84.145  56.552  47.130  0.00  0.00    -0.061 A 
ATOM     29  C   UNL     1      85.289  56.026  47.735  0.00  0.00    -0.062 A 
ATOM     30  C   UNL     1      86.443  55.812  46.979  0.00  0.00    -0.061 A 
ATOM     31  C   UNL     1      86.457  56.123  45.615  0.00  0.00    -0.048 A 
ENDBRANCH  24  26
ENDBRANCH  23  24
ENDBRANCH   6  23
TORSDOF 9
ENDMDL
MODEL 6
REMARK VINA RESULT:    -8.676      2.592      4.618
REMARK INTER + INTRA:         -13.939
REMARK INTER:                 -12.509
REMARK INTRA:                  -1.430
REMARK UNBOUND:                -1.206
REMARK  Name = 
REMARK  9 active torsions:
REMARK  status: ('A' for Active; 'I' for Inactive)
REMARK    1  A    between atoms: C_2  and  C_3
REMARK    2  A    between atoms: C_2  and  O_9
REMARK    3  A    between atoms: O_9  and  C_10
REMARK    4  A    between atoms: C_10  and  C_11
REMARK    5  A    between atoms: C_15  and  O_28
REMARK    6  A    between atoms: C_16  and  O_19
REMARK    7  A    between atoms: C_17  and  O_18
REMARK    8  A    between atoms: O_19  and  C_20
REMARK    9  A    between atoms: C_20  and  C_22
REMARK                            x       y       z     vdW  Elec       q    Type
REMARK                         _______ _______ _______ _____ _____    ______ ____
ROOT
ATOM      1  C   UNL     1      85.843  52.899  42.005  0.00  0.00    +0.160 C 
ATOM      2  O   UNL     1      86.146  53.083  40.642  0.00  0.00    -0.357 OA
ATOM      3  C   UNL     1      84.824  53.395  41.040  0.00  0.00    +0.113 C 
ATOM      4  C   UNL     1      84.584  54.914  41.025  0.00  0.00    +0.092 C 
ATOM      5  C   UNL     1      84.397  55.506  42.449  0.00  0.00    +0.113 C 
ATOM      6  C   UNL     1      85.253  54.797  43.546  0.00  0.00    +0.159 C 
ATOM      7  C   UNL     1      86.417  53.981  42.947  0.00  0.00    +0.129 C 
ATOM      8 CL   UNL     1      83.155  55.275  40.014  0.00  0.00    -0.116 Cl
ENDROOT
BRANCH   7   9
ATOM      9  O   UNL     1      87.218  53.415  43.956  0.00  0.00    -0.385 OA
ATOM     10  H   UNL     1      87.827  54.088  44.302  0.00  0.00    +0.000 HD
ENDBRANCH   7   9
BRANCH   5  11
ATOM     11  O   UNL     1      84.705  56.878  42.415  0.00  0.00    -0.386 OA
ATOM     12  H   UNL     1      85.001  57.121  41.523  0.00  0.00    +0.000 HD
ENDBRANCH   5  11
BRANCH   1  13
ATOM     13  C   UNL     1      85.708  51.427  42.423  0.00  0.00    +0.127 C 
BRANCH  13  14
ATOM     14  O   UNL     1      85.138  51.321  43.725  0.00  0.00    -0.458 OA
BRANCH  14  16
ATOM     15  O   UNL     1      84.939  49.292  44.808  0.00  0.00    -0.245 OA
ATOM     16  C   UNL     1      84.386  50.221  44.155  0.00  0.00    +0.339 C 
BRANCH  16  17
ATOM     17  C   UNL     1      82.944  50.148  43.837  0.00  0.00    +0.059 A 
ATOM     18  C   UNL     1      82.320  51.192  43.130  0.00  0.00    -0.048 A 
ATOM     19  C   UNL     1      80.956  51.126  42.830  0.00  0.00    -0.061 A 
ATOM     20  C   UNL     1      80.201  50.022  43.234  0.00  0.00    -0.062 A 
ATOM     21  C   UNL     1      80.810  48.980  43.938  0.00  0.00    -0.061 A 
ATOM     22  C   UNL     1      82.174  49.041  44.240  0.00  0.00    -0.048 A 
ENDBRANCH  16  17
ENDBRANCH  14  16
ENDBRANCH  13  14
ENDBRANCH   1  13
BRANCH   6  23
ATOM     23  O   UNL     1      85.776  55.737  44.488  0.00  0.00    -0.452 OA
BRANCH  23  24
ATOM     24  C   UNL     1      85.019  56.289  45.530  0.00  0.00    +0.340 C 
ATOM     25  O   UNL     1      84.494  57.429  45.397  0.00  0.00    -0.245 OA
BRANCH  24  26
ATOM     26  C   UNL     1      84.839  55.531  46.788  0.00  0.00    +0.059 A 
ATOM     27  C   UNL     1      85.796  54.579  47.184  0.00  0.00    -0.048 A 
ATOM     28  C   UNL     1      85.629  53.862  48.374  0.00  0.00    -0.061 A 
ATOM     29  C   UNL     1      84.507  54.086  49.176  0.00  0.00    -0.062 A 
ATOM     30  C   UNL     1      83.551  55.028  48.792  0.00  0.00    -0.061 A 
ATOM     31  C   UNL     1      83.713  55.750  47.604  0.00  0.00    -0.048 A 
ENDBRANCH  24  26
ENDBRANCH  23  24
ENDBRANCH   6  23
TORSDOF 9
ENDMDL
MODEL 7
REMARK VINA RESULT:    -8.663      3.035      5.396
REMARK INTER + INTRA:         -13.921
REMARK INTER:                 -11.053
REMARK INTRA:                  -2.868
REMARK UNBOUND:                -1.206
REMARK  Name = 
REMARK  9 active torsions:
REMARK  status: ('A' for Active; 'I' for Inactive)
REMARK    1  A    between atoms: C_2  and  C_3
REMARK    2  A    between atoms: C_2  and  O_9
REMARK    3  A    between atoms: O_9  and  C_10
REMARK    4  A    between atoms: C_10  and  C_11
REMARK    5  A    between atoms: C_15  and  O_28
REMARK    6  A    between atoms: C_16  and  O_19
REMARK    7  A    between atoms: C_17  and  O_18
REMARK    8  A    between atoms: O_19  and  C_20
REMARK    9  A    between atoms: C_20  and  C_22
REMARK                            x       y       z     vdW  Elec       q    Type
REMARK                         _______ _______ _______ _____ _____    ______ ____
ROOT
ATOM      1  C   UNL     1      85.829  52.776  41.440  0.00  0.00    +0.160 C 
ATOM      2  O   UNL     1      86.300  52.328  40.190  0.00  0.00    -0.357 OA
ATOM      3  C   UNL     1      87.258  52.915  41.051  0.00  0.00    +0.113 C 
ATOM      4  C   UNL     1      88.223  51.856  41.611  0.00  0.00    +0.092 C 
ATOM      5  C   UNL     1      88.038  51.624  43.136  0.00  0.00    +0.113 C 
ATOM      6  C   UNL     1      86.561  51.764  43.623  0.00  0.00    +0.159 C 
ATOM      7  C   UNL     1      85.548  51.654  42.465  0.00  0.00    +0.129 C 
ATOM      8 CL   UNL     1      89.905  52.346  41.260  0.00  0.00    -0.116 Cl
ENDROOT
BRANCH   7   9
ATOM      9  O   UNL     1      84.223  51.705  42.937  0.00  0.00    -0.385 OA
ATOM     10  H   UNL     1      84.222  51.962  43.873  0.00  0.00    +0.000 HD
ENDBRANCH   7   9
BRANCH   5  11
ATOM     11  O   UNL     1      88.531  50.349  43.465  0.00  0.00    -0.386 OA
ATOM     12  H   UNL     1      88.317  49.726  42.753  0.00  0.00    +0.000 HD
ENDBRANCH   5  11
BRANCH   1  13
ATOM     13  C   UNL     1      84.988  54.059  41.368  0.00  0.00    +0.127 C 
BRANCH  13  14
ATOM     14  O   UNL     1      84.576  54.467  42.670  0.00  0.00    -0.458 OA
BRANCH  14  16
ATOM     15  O   UNL     1      84.720  56.764  42.489  0.00  0.00    -0.245 OA
ATOM     16  C   UNL     1      84.844  55.733  43.207  0.00  0.00    +0.339 C 
BRANCH  16  17
ATOM     17  C   UNL     1      85.277  55.857  44.615  0.00  0.00    +0.059 A 
ATOM     18  C   UNL     1      84.520  56.618  45.525  0.00  0.00    -0.048 A 
ATOM     19  C   UNL     1      84.928  56.740  46.856  0.00  0.00    -0.061 A 
ATOM     20  C   UNL     1      86.094  56.107  47.293  0.00  0.00    -0.062 A 
ATOM     21  C   UNL     1      86.854  55.350  46.399  0.00  0.00    -0.061 A 
ATOM     22  C   UNL     1      86.450  55.225  45.065  0.00  0.00    -0.048 A 
ENDBRANCH  16  17
ENDBRANCH  14  16
ENDBRANCH  13  14
ENDBRANCH   1  13
BRANCH   6  23
ATOM     23  O   UNL     1      86.245  50.786  44.616  0.00  0.00    -0.452 OA
BRANCH  23  24
ATOM     24  C   UNL     1      86.624  50.899  45.961  0.00  0.00    +0.340 C 
ATOM     25  O   UNL     1      87.630  50.270  46.390  0.00  0.00    -0.245 OA
BRANCH  24  26
ATOM     26  C   UNL     1      85.839  51.757  46.875  0.00  0.00    +0.059 A 
ATOM     27  C   UNL     1      84.658  52.377  46.426  0.00  0.00    -0.048 A 
ATOM     28  C   UNL     1      83.914  53.188  47.288  0.00  0.00    -0.061 A 
ATOM     29  C   UNL     1      84.339  53.389  48.604  0.00  0.00    -0.062 A 
ATOM     30  C   UNL     1      85.509  52.779  49.060  0.00  0.00    -0.061 A 
ATOM     31  C   UNL     1      86.258  51.966  48.202  0.00  0.00    -0.048 A 
ENDBRANCH  24  26
ENDBRANCH  23  24
ENDBRANCH   6  23
TORSDOF 9
ENDMDL
MODEL 8
REMARK VINA RESULT:    -8.604      4.088      7.057
REMARK INTER + INTRA:         -13.834
REMARK INTER:                 -12.628
REMARK INTRA:                  -1.206
REMARK UNBOUND:                -1.206
REMARK  Name = 
REMARK  9 active torsions:
REMARK  status: ('A' for Active; 'I' for Inactive)
REMARK    1  A    between atoms: C_2  and  C_3
REMARK    2  A    between atoms: C_2  and  O_9
REMARK    3  A    between atoms: O_9  and  C_10
REMARK    4  A    between atoms: C_10  and  C_11
REMARK    5  A    between atoms: C_15  and  O_28
REMARK    6  A    between atoms: C_16  and  O_19
REMARK    7  A    between atoms: C_17  and  O_18
REMARK    8  A    between atoms: O_19  and  C_20
REMARK    9  A    between atoms: C_20  and  C_22
REMARK                            x       y       z     vdW  Elec       q    Type
REMARK                         _______ _______ _______ _____ _____    ______ ____
ROOT
ATOM      1  C   UNL     1      87.067  51.269  44.633  0.00  0.00    +0.160 C 
ATOM      2  O   UNL     1      86.629  52.531  44.186  0.00  0.00    -0.357 OA
ATOM      3  C   UNL     1      87.932  52.141  43.793  0.00  0.00    +0.113 C 
ATOM      4  C   UNL     1      87.983  51.807  42.292  0.00  0.00    +0.092 C 
ATOM      5  C   UNL     1      88.217  50.295  42.023  0.00  0.00    +0.113 C 
ATOM      6  C   UNL     1      87.550  49.354  43.077  0.00  0.00    +0.159 C 
ATOM      7  C   UNL     1      86.448  50.066  43.887  0.00  0.00    +0.129 C 
ATOM      8 CL   UNL     1      89.266  52.778  41.516  0.00  0.00    -0.116 Cl
ENDROOT
BRANCH   7   9
ATOM      9  O   UNL     1      85.810  49.180  44.774  0.00  0.00    -0.385 OA
ATOM     10  H   UNL     1      84.965  49.561  45.062  0.00  0.00    +0.000 HD
ENDBRANCH   7   9
BRANCH   5  11
ATOM     11  O   UNL     1      87.742  49.984  40.737  0.00  0.00    -0.386 OA
ATOM     12  H   UNL     1      87.554  49.034  40.683  0.00  0.00    +0.000 HD
ENDBRANCH   5  11
BRANCH   1  13
ATOM     13  C   UNL     1      87.415  51.223  46.129  0.00  0.00    +0.127 C 
BRANCH  13  14
ATOM     14  O   UNL     1      86.231  51.212  46.922  0.00  0.00    -0.458 OA
BRANCH  14  16
ATOM     15  O   UNL     1      86.446  51.544  49.197  0.00  0.00    -0.245 OA
ATOM     16  C   UNL     1      86.064  51.986  48.077  0.00  0.00    +0.339 C 
BRANCH  16  17
ATOM     17  C   UNL     1      85.433  53.319  47.982  0.00  0.00    +0.059 A 
ATOM     18  C   UNL     1      84.174  53.552  48.567  0.00  0.00    -0.048 A 
ATOM     19  C   UNL     1      83.574  54.811  48.477  0.00  0.00    -0.061 A 
ATOM     20  C   UNL     1      84.220  55.850  47.803  0.00  0.00    -0.062 A 
ATOM     21  C   UNL     1      85.470  55.631  47.217  0.00  0.00    -0.061 A 
ATOM     22  C   UNL     1      86.075  54.373  47.305  0.00  0.00    -0.048 A 
ENDBRANCH  16  17
ENDBRANCH  14  16
ENDBRANCH  13  14
ENDBRANCH   1  13
BRANCH   6  23
ATOM     23  O   UNL     1      86.999  48.188  42.460  0.00  0.00    -0.452 OA
BRANCH  23  24
ATOM     24  C   UNL     1      87.749  47.041  42.167  0.00  0.00    +0.340 C 
ATOM     25  O   UNL     1      88.661  47.086  41.296  0.00  0.00    -0.245 OA
BRANCH  24  26
ATOM     26  C   UNL     1      87.466  45.777  42.882  0.00  0.00    +0.059 A 
ATOM     27  C   UNL     1      86.294  45.643  43.649  0.00  0.00    -0.048 A 
ATOM     28  C   UNL     1      86.024  44.449  44.325  0.00  0.00    -0.061 A 
ATOM     29  C   UNL     1      86.919  43.379  44.244  0.00  0.00    -0.062 A 
ATOM     30  C   UNL     1      88.085  43.502  43.487  0.00  0.00    -0.061 A 
ATOM     31  C   UNL     1      88.361  44.693  42.807  0.00  0.00    -0.048 A 
ENDBRANCH  24  26
ENDBRANCH  23  24
ENDBRANCH   6  23
TORSDOF 9
ENDMDL
MODEL 9
REMARK VINA RESULT:    -8.560      2.853      5.893
REMARK INTER + INTRA:         -13.768
REMARK INTER:                 -12.475
REMARK INTRA:                  -1.294
REMARK UNBOUND:                -1.206
REMARK  Name = 
REMARK  9 active torsions:
REMARK  status: ('A' for Active; 'I' for Inactive)
REMARK    1  A    between atoms: C_2  and  C_3
REMARK    2  A    between atoms: C_2  and  O_9
REMARK    3  A    between atoms: O_9  and  C_10
REMARK    4  A    between atoms: C_10  and  C_11
REMARK    5  A    between atoms: C_15  and  O_28
REMARK    6  A    between atoms: C_16  and  O_19
REMARK    7  A    between atoms: C_17  and  O_18
REMARK    8  A    between atoms: O_19  and  C_20
REMARK    9  A    between atoms: C_20  and  C_22
REMARK                            x       y       z     vdW  Elec       q    Type
REMARK                         _______ _______ _______ _____ _____    ______ ____
ROOT
ATOM      1  C   UNL     1      85.014  54.479  43.036  0.00  0.00    +0.160 C 
ATOM      2  O   UNL     1      84.573  55.815  42.957  0.00  0.00    -0.357 OA
ATOM      3  C   UNL     1      84.522  55.063  41.759  0.00  0.00    +0.113 C 
ATOM      4  C   UNL     1      83.071  54.731  41.373  0.00  0.00    +0.092 C 
ATOM      5  C   UNL     1      82.748  53.217  41.503  0.00  0.00    +0.113 C 
ATOM      6  C   UNL     1      83.493  52.510  42.679  0.00  0.00    +0.159 C 
ATOM      7  C   UNL     1      84.026  53.511  43.724  0.00  0.00    +0.129 C 
ATOM      8 CL   UNL     1      82.763  55.288  39.704  0.00  0.00    -0.116 Cl
ENDROOT
BRANCH   7   9
ATOM      9  O   UNL     1      84.625  52.847  44.811  0.00  0.00    -0.385 OA
ATOM     10  H   UNL     1      84.405  51.903  44.774  0.00  0.00    +0.000 HD
ENDBRANCH   7   9
BRANCH   5  11
ATOM     11  O   UNL     1      81.358  53.060  41.654  0.00  0.00    -0.386 OA
ATOM     12  H   UNL     1      80.962  52.845  40.796  0.00  0.00    +0.000 HD
ENDBRANCH   5  11
BRANCH   1  13
ATOM     13  C   UNL     1      86.538  54.332  43.161  0.00  0.00    +0.127 C 
BRANCH  13  14
ATOM     14  O   UNL     1      86.935  52.982  42.933  0.00  0.00    -0.458 OA
BRANCH  14  16
ATOM     15  O   UNL     1      88.795  53.467  41.655  0.00  0.00    -0.245 OA
ATOM     16  C   UNL     1      88.147  52.621  42.332  0.00  0.00    +0.339 C 
BRANCH  16  17
ATOM     17  C   UNL     1      88.662  51.244  42.487  0.00  0.00    +0.059 A 
ATOM     18  C   UNL     1      88.212  50.433  43.545  0.00  0.00    -0.048 A 
ATOM     19  C   UNL     1      88.699  49.131  43.696  0.00  0.00    -0.061 A 
ATOM     20  C   UNL     1      89.641  48.626  42.796  0.00  0.00    -0.062 A 
ATOM     21  C   UNL     1      90.096  49.422  41.742  0.00  0.00    -0.061 A 
ATOM     22  C   UNL     1      89.612  50.725  41.587  0.00  0.00    -0.048 A 
ENDBRANCH  16  17
ENDBRANCH  14  16
ENDBRANCH  13  14
ENDBRANCH   1  13
BRANCH   6  23
ATOM     23  O   UNL     1      82.650  51.556  43.331  0.00  0.00    -0.452 OA
BRANCH  23  24
ATOM     24  C   UNL     1      83.041  50.239  43.605  0.00  0.00    +0.340 C 
ATOM     25  O   UNL     1      84.265  49.954  43.729  0.00  0.00    -0.245 OA
BRANCH  24  26
ATOM     26  C   UNL     1      82.015  49.183  43.748  0.00  0.00    +0.059 A 
ATOM     27  C   UNL     1      80.653  49.525  43.829  0.00  0.00    -0.048 A 
ATOM     28  C   UNL     1      79.680  48.529  43.962  0.00  0.00    -0.061 A 
ATOM     29  C   UNL     1      80.057  47.184  44.017  0.00  0.00    -0.062 A 
ATOM     30  C   UNL     1      81.406  46.834  43.939  0.00  0.00    -0.061 A 
ATOM     31  C   UNL     1      82.383  47.826  43.804  0.00  0.00    -0.048 A 
ENDBRANCH  24  26
ENDBRANCH  23  24
ENDBRANCH   6  23
TORSDOF 9
ENDMDL
