MODEL 1
REMARK VINA RESULT:    -9.127      0.000      0.000
REMARK INTER + INTRA:         -14.574
REMARK INTER:                 -12.471
REMARK INTRA:                  -2.104
REMARK UNBOUND:                -1.179
REMARK  Name = 
REMARK  9 active torsions:
REMARK  status: ('A' for Active; 'I' for Inactive)
REMARK    1  A    between atoms: C_2  and  C_3
REMARK    2  A    between atoms: C_2  and  O_9
REMARK    3  A    between atoms: O_9  and  C_10
REMARK    4  A    between atoms: C_10  and  C_11
REMARK    5  A    between atoms: C_15  and  O_28
REMARK    6  A    between atoms: C_16  and  O_19
REMARK    7  A    between atoms: C_17  and  O_18
REMARK    8  A    between atoms: O_19  and  C_20
REMARK    9  A    between atoms: C_20  and  C_22
REMARK                            x       y       z     vdW  Elec       q    Type
REMARK                         _______ _______ _______ _____ _____    ______ ____
ROOT
ATOM      1  C   UNL     1      84.538  50.716  43.461  0.00  0.00    +0.160 C 
ATOM      2  O   UNL     1      83.644  51.625  44.059  0.00  0.00    -0.357 OA
ATOM      3  C   UNL     1      83.127  50.838  43.002  0.00  0.00    +0.113 C 
ATOM      4  C   UNL     1      82.146  49.777  43.529  0.00  0.00    +0.092 C 
ATOM      5  C   UNL     1      82.697  48.331  43.393  0.00  0.00    +0.113 C 
ATOM      6  C   UNL     1      84.243  48.222  43.585  0.00  0.00    +0.159 C 
ATOM      7  C   UNL     1      84.834  49.453  44.301  0.00  0.00    +0.129 C 
ATOM      8 CL   UNL     1      80.591  49.931  42.663  0.00  0.00    -0.116 Cl
ENDROOT
BRANCH   7   9
ATOM      9  O   UNL     1      86.214  49.298  44.531  0.00  0.00    -0.385 OA
ATOM     10  H   UNL     1      86.665  49.120  43.690  0.00  0.00    +0.000 HD
ENDBRANCH   7   9
BRANCH   5  11
ATOM     11  O   UNL     1      82.040  47.505  44.322  0.00  0.00    -0.386 OA
ATOM     12  H   UNL     1      82.632  47.324  45.069  0.00  0.00    +0.000 HD
ENDBRANCH   5  11
BRANCH   1  13
ATOM     13  C   UNL     1      85.593  51.377  42.562  0.00  0.00    +0.127 C 
BRANCH  13  14
ATOM     14  O   UNL     1      86.379  50.391  41.896  0.00  0.00    -0.458 OA
BRANCH  14  16
ATOM     15  O   UNL     1      87.801  51.497  40.452  0.00  0.00    -0.245 OA
ATOM     16  C   UNL     1      87.651  50.640  41.368  0.00  0.00    +0.339 C 
BRANCH  16  17
ATOM     17  C   UNL     1      88.819  49.894  41.882  0.00  0.00    +0.059 A 
ATOM     18  C   UNL     1      89.789  49.394  40.993  0.00  0.00    -0.048 A 
ATOM     19  C   UNL     1      90.893  48.685  41.476  0.00  0.00    -0.061 A 
ATOM     20  C   UNL     1      91.041  48.467  42.848  0.00  0.00    -0.062 A 
ATOM     21  C   UNL     1      90.085  48.958  43.740  0.00  0.00    -0.061 A 
ATOM     22  C   UNL     1      88.978  49.667  43.262  0.00  0.00    -0.048 A 
ENDBRANCH  16  17
ENDBRANCH  14  16
ENDBRANCH  13  14
ENDBRANCH   1  13
BRANCH   6  23
ATOM     23  O   UNL     1      84.595  47.043  44.312  0.00  0.00    -0.452 OA
BRANCH  23  24
ATOM     24  C   UNL     1      84.868  45.811  43.703  0.00  0.00    +0.340 C 
ATOM     25  O   UNL     1      83.935  44.988  43.493  0.00  0.00    -0.245 OA
BRANCH  24  26
ATOM     26  C   UNL     1      86.254  45.479  43.307  0.00  0.00    +0.059 A 
ATOM     27  C   UNL     1      86.829  44.255  43.694  0.00  0.00    -0.048 A 
ATOM     28  C   UNL     1      88.138  43.938  43.319  0.00  0.00    -0.061 A 
ATOM     29  C   UNL     1      88.887  44.839  42.557  0.00  0.00    -0.062 A 
ATOM     30  C   UNL     1      88.327  46.057  42.168  0.00  0.00    -0.061 A 
ATOM     31  C   UNL     1      87.017  46.379  42.539  0.00  0.00    -0.048 A 
ENDBRANCH  24  26
ENDBRANCH  23  24
ENDBRANCH   6  23
TORSDOF 9
ENDMDL
MODEL 2
REMARK VINA RESULT:    -9.067      3.877      7.661
REMARK INTER + INTRA:         -14.486
REMARK INTER:                 -12.167
REMARK INTRA:                  -2.319
REMARK UNBOUND:                -1.179
REMARK  Name = 
REMARK  9 active torsions:
REMARK  status: ('A' for Active; 'I' for Inactive)
REMARK    1  A    between atoms: C_2  and  C_3
REMARK    2  A    between atoms: C_2  and  O_9
REMARK    3  A    between atoms: O_9  and  C_10
REMARK    4  A    between atoms: C_10  and  C_11
REMARK    5  A    between atoms: C_15  and  O_28
REMARK    6  A    between atoms: C_16  and  O_19
REMARK    7  A    between atoms: C_17  and  O_18
REMARK    8  A    between atoms: O_19  and  C_20
REMARK    9  A    between atoms: C_20  and  C_22
REMARK                            x       y       z     vdW  Elec       q    Type
REMARK                         _______ _______ _______ _____ _____    ______ ____
ROOT
ATOM      1  C   UNL     1      84.946  49.899  43.899  0.00  0.00    +0.160 C 
ATOM      2  O   UNL     1      84.569  48.629  43.419  0.00  0.00    -0.357 OA
ATOM      3  C   UNL     1      83.535  49.431  43.958  0.00  0.00    +0.113 C 
ATOM      4  C   UNL     1      82.599  49.947  42.851  0.00  0.00    +0.092 C 
ATOM      5  C   UNL     1      82.713  51.482  42.638  0.00  0.00    +0.113 C 
ATOM      6  C   UNL     1      84.152  52.047  42.861  0.00  0.00    +0.159 C 
ATOM      7  C   UNL     1      85.232  50.947  42.800  0.00  0.00    +0.129 C 
ATOM      8 CL   UNL     1      80.915  49.502  43.247  0.00  0.00    -0.116 Cl
ENDROOT
BRANCH   7   9
ATOM      9  O   UNL     1      86.524  51.489  42.926  0.00  0.00    -0.385 OA
ATOM     10  H   UNL     1      86.859  51.734  42.049  0.00  0.00    +0.000 HD
ENDBRANCH   7   9
BRANCH   5  11
ATOM     11  O   UNL     1      82.273  51.795  41.340  0.00  0.00    -0.386 OA
ATOM     12  H   UNL     1      83.038  51.882  40.751  0.00  0.00    +0.000 HD
ENDBRANCH   5  11
BRANCH   1  13
ATOM     13  C   UNL     1      85.720  49.861  45.225  0.00  0.00    +0.127 C 
BRANCH  13  14
ATOM     14  O   UNL     1      86.158  51.167  45.592  0.00  0.00    -0.458 OA
BRANCH  14  16
ATOM     15  O   UNL     1      86.934  51.013  47.760  0.00  0.00    -0.245 OA
ATOM     16  C   UNL     1      86.221  51.621  46.915  0.00  0.00    +0.339 C 
BRANCH  16  17
ATOM     17  C   UNL     1      85.444  52.812  47.320  0.00  0.00    +0.059 A 
ATOM     18  C   UNL     1      85.034  53.753  46.357  0.00  0.00    -0.048 A 
ATOM     19  C   UNL     1      84.301  54.881  46.737  0.00  0.00    -0.061 A 
ATOM     20  C   UNL     1      83.972  55.084  48.079  0.00  0.00    -0.062 A 
ATOM     21  C   UNL     1      84.375  54.158  49.044  0.00  0.00    -0.061 A 
ATOM     22  C   UNL     1      85.108  53.027  48.669  0.00  0.00    -0.048 A 
ENDBRANCH  16  17
ENDBRANCH  14  16
ENDBRANCH  13  14
ENDBRANCH   1  13
BRANCH   6  23
ATOM     23  O   UNL     1      84.466  53.064  41.907  0.00  0.00    -0.452 OA
BRANCH  23  24
ATOM     24  C   UNL     1      84.029  54.391  42.020  0.00  0.00    +0.340 C 
ATOM     25  O   UNL     1      82.978  54.764  41.430  0.00  0.00    -0.245 OA
BRANCH  24  26
ATOM     26  C   UNL     1      84.806  55.353  42.833  0.00  0.00    +0.059 A 
ATOM     27  C   UNL     1      84.234  56.578  43.220  0.00  0.00    -0.048 A 
ATOM     28  C   UNL     1      84.966  57.488  43.990  0.00  0.00    -0.061 A 
ATOM     29  C   UNL     1      86.273  57.185  44.379  0.00  0.00    -0.062 A 
ATOM     30  C   UNL     1      86.851  55.972  44.000  0.00  0.00    -0.061 A 
ATOM     31  C   UNL     1      86.124  55.058  43.230  0.00  0.00    -0.048 A 
ENDBRANCH  24  26
ENDBRANCH  23  24
ENDBRANCH   6  23
TORSDOF 9
ENDMDL
MODEL 3
REMARK VINA RESULT:    -9.061      3.820      7.191
REMARK INTER + INTRA:         -14.478
REMARK INTER:                 -13.033
REMARK INTRA:                  -1.445
REMARK UNBOUND:                -1.179
REMARK  Name = 
REMARK  9 active torsions:
REMARK  status: ('A' for Active; 'I' for Inactive)
REMARK    1  A    between atoms: C_2  and  C_3
REMARK    2  A    between atoms: C_2  and  O_9
REMARK    3  A    between atoms: O_9  and  C_10
REMARK    4  A    between atoms: C_10  and  C_11
REMARK    5  A    between atoms: C_15  and  O_28
REMARK    6  A    between atoms: C_16  and  O_19
REMARK    7  A    between atoms: C_17  and  O_18
REMARK    8  A    between atoms: O_19  and  C_20
REMARK    9  A    between atoms: C_20  and  C_22
REMARK                            x       y       z     vdW  Elec       q    Type
REMARK                         _______ _______ _______ _____ _____    ______ ____
ROOT
ATOM      1  C   UNL     1      86.136  52.229  42.482  0.00  0.00    +0.160 C 
ATOM      2  O   UNL     1      85.894  51.437  41.342  0.00  0.00    -0.357 OA
ATOM      3  C   UNL     1      84.772  51.736  42.151  0.00  0.00    +0.113 C 
ATOM      4  C   UNL     1      83.836  52.738  41.454  0.00  0.00    +0.092 C 
ATOM      5  C   UNL     1      83.818  54.126  42.151  0.00  0.00    +0.113 C 
ATOM      6  C   UNL     1      85.191  54.541  42.770  0.00  0.00    +0.159 C 
ATOM      7  C   UNL     1      86.367  53.729  42.190  0.00  0.00    +0.129 C 
ATOM      8 CL   UNL     1      82.185  52.057  41.392  0.00  0.00    -0.116 Cl
ENDROOT
BRANCH   7   9
ATOM      9  O   UNL     1      87.599  54.172  42.705  0.00  0.00    -0.385 OA
ATOM     10  H   UNL     1      87.458  54.966  43.244  0.00  0.00    +0.000 HD
ENDBRANCH   7   9
BRANCH   5  11
ATOM     11  O   UNL     1      83.400  55.095  41.223  0.00  0.00    -0.386 OA
ATOM     12  H   UNL     1      82.450  55.258  41.331  0.00  0.00    +0.000 HD
ENDBRANCH   5  11
BRANCH   1  13
ATOM     13  C   UNL     1      86.860  51.487  43.615  0.00  0.00    +0.127 C 
BRANCH  13  14
ATOM     14  O   UNL     1      88.274  51.578  43.457  0.00  0.00    -0.458 OA
BRANCH  14  16
ATOM     15  O   UNL     1      89.341  51.852  41.429  0.00  0.00    -0.245 OA
ATOM     16  C   UNL     1      88.964  51.073  42.349  0.00  0.00    +0.339 C 
BRANCH  16  17
ATOM     17  C   UNL     1      89.246  49.625  42.256  0.00  0.00    +0.059 A 
ATOM     18  C   UNL     1      90.412  49.091  42.835  0.00  0.00    -0.048 A 
ATOM     19  C   UNL     1      90.682  47.722  42.747  0.00  0.00    -0.061 A 
ATOM     20  C   UNL     1      89.795  46.873  42.080  0.00  0.00    -0.062 A 
ATOM     21  C   UNL     1      88.635  47.392  41.500  0.00  0.00    -0.061 A 
ATOM     22  C   UNL     1      88.360  48.761  41.585  0.00  0.00    -0.048 A 
ENDBRANCH  16  17
ENDBRANCH  14  16
ENDBRANCH  13  14
ENDBRANCH   1  13
BRANCH   6  23
ATOM     23  O   UNL     1      85.447  55.935  42.583  0.00  0.00    -0.452 OA
BRANCH  23  24
ATOM     24  C   UNL     1      85.472  56.864  43.632  0.00  0.00    +0.340 C 
ATOM     25  O   UNL     1      85.630  58.091  43.386  0.00  0.00    -0.245 OA
BRANCH  24  26
ATOM     26  C   UNL     1      85.311  56.400  45.027  0.00  0.00    +0.059 A 
ATOM     27  C   UNL     1      86.405  55.857  45.724  0.00  0.00    -0.048 A 
ATOM     28  C   UNL     1      86.257  55.419  47.044  0.00  0.00    -0.061 A 
ATOM     29  C   UNL     1      85.016  55.517  47.680  0.00  0.00    -0.062 A 
ATOM     30  C   UNL     1      83.923  56.054  46.997  0.00  0.00    -0.061 A 
ATOM     31  C   UNL     1      84.066  56.494  45.677  0.00  0.00    -0.048 A 
ENDBRANCH  24  26
ENDBRANCH  23  24
ENDBRANCH   6  23
TORSDOF 9
ENDMDL
MODEL 4
REMARK VINA RESULT:    -8.966      4.252      6.915
REMARK INTER + INTRA:         -14.338
REMARK INTER:                 -12.024
REMARK INTRA:                  -2.314
REMARK UNBOUND:                -1.179
REMARK  Name = 
REMARK  9 active torsions:
REMARK  status: ('A' for Active; 'I' for Inactive)
REMARK    1  A    between atoms: C_2  and  C_3
REMARK    2  A    between atoms: C_2  and  O_9
REMARK    3  A    between atoms: O_9  and  C_10
REMARK    4  A    between atoms: C_10  and  C_11
REMARK    5  A    between atoms: C_15  and  O_28
REMARK    6  A    between atoms: C_16  and  O_19
REMARK    7  A    between atoms: C_17  and  O_18
REMARK    8  A    between atoms: O_19  and  C_20
REMARK    9  A    between atoms: C_20  and  C_22
REMARK                            x       y       z     vdW  Elec       q    Type
REMARK                         _______ _______ _______ _____ _____    ______ ____
ROOT
ATOM      1  C   UNL     1      85.222  56.318  43.167  0.00  0.00    +0.160 C 
ATOM      2  O   UNL     1      85.414  57.713  43.213  0.00  0.00    -0.357 OA
ATOM      3  C   UNL     1      84.486  57.175  44.137  0.00  0.00    +0.113 C 
ATOM      4  C   UNL     1      85.043  57.213  45.570  0.00  0.00    +0.092 C 
ATOM      5  C   UNL     1      85.348  55.798  46.132  0.00  0.00    +0.113 C 
ATOM      6  C   UNL     1      85.853  54.784  45.057  0.00  0.00    +0.159 C 
ATOM      7  C   UNL     1      86.368  55.486  43.784  0.00  0.00    +0.129 C 
ATOM      8 CL   UNL     1      83.883  58.063  46.630  0.00  0.00    -0.116 Cl
ENDROOT
BRANCH   7   9
ATOM      9  O   UNL     1      86.888  54.559  42.862  0.00  0.00    -0.385 OA
ATOM     10  H   UNL     1      87.634  54.958  42.386  0.00  0.00    +0.000 HD
ENDBRANCH   7   9
BRANCH   5  11
ATOM     11  O   UNL     1      86.298  55.913  47.163  0.00  0.00    -0.386 OA
ATOM     12  H   UNL     1      85.870  55.747  48.017  0.00  0.00    +0.000 HD
ENDBRANCH   5  11
BRANCH   1  13
ATOM     13  C   UNL     1      84.415  55.839  41.951  0.00  0.00    +0.127 C 
BRANCH  13  14
ATOM     14  O   UNL     1      83.700  54.645  42.258  0.00  0.00    -0.458 OA
BRANCH  14  16
ATOM     15  O   UNL     1      84.913  53.290  40.836  0.00  0.00    -0.245 OA
ATOM     16  C   UNL     1      84.013  53.393  41.716  0.00  0.00    +0.339 C 
BRANCH  16  17
ATOM     17  C   UNL     1      83.282  52.191  42.172  0.00  0.00    +0.059 A 
ATOM     18  C   UNL     1      83.899  51.275  43.045  0.00  0.00    -0.048 A 
ATOM     19  C   UNL     1      83.211  50.137  43.477  0.00  0.00    -0.061 A 
ATOM     20  C   UNL     1      81.905  49.900  43.042  0.00  0.00    -0.062 A 
ATOM     21  C   UNL     1      81.283  50.801  42.175  0.00  0.00    -0.061 A 
ATOM     22  C   UNL     1      81.967  51.941  41.740  0.00  0.00    -0.048 A 
ENDBRANCH  16  17
ENDBRANCH  14  16
ENDBRANCH  13  14
ENDBRANCH   1  13
BRANCH   6  23
ATOM     23  O   UNL     1      86.883  53.941  45.577  0.00  0.00    -0.452 OA
BRANCH  23  24
ATOM     24  C   UNL     1      86.637  52.701  46.181  0.00  0.00    +0.340 C 
ATOM     25  O   UNL     1      86.270  52.646  47.387  0.00  0.00    -0.245 OA
BRANCH  24  26
ATOM     26  C   UNL     1      86.809  51.457  45.399  0.00  0.00    +0.059 A 
ATOM     27  C   UNL     1      86.189  50.266  45.817  0.00  0.00    -0.048 A 
ATOM     28  C   UNL     1      86.349  49.089  45.079  0.00  0.00    -0.061 A 
ATOM     29  C   UNL     1      87.128  49.089  43.919  0.00  0.00    -0.062 A 
ATOM     30  C   UNL     1      87.749  50.266  43.495  0.00  0.00    -0.061 A 
ATOM     31  C   UNL     1      87.592  51.447  44.229  0.00  0.00    -0.048 A 
ENDBRANCH  24  26
ENDBRANCH  23  24
ENDBRANCH   6  23
TORSDOF 9
ENDMDL
MODEL 5
REMARK VINA RESULT:    -8.863      3.777      6.800
REMARK INTER + INTRA:         -14.187
REMARK INTER:                 -12.917
REMARK INTRA:                  -1.270
REMARK UNBOUND:                -1.179
REMARK  Name = 
REMARK  9 active torsions:
REMARK  status: ('A' for Active; 'I' for Inactive)
REMARK    1  A    between atoms: C_2  and  C_3
REMARK    2  A    between atoms: C_2  and  O_9
REMARK    3  A    between atoms: O_9  and  C_10
REMARK    4  A    between atoms: C_10  and  C_11
REMARK    5  A    between atoms: C_15  and  O_28
REMARK    6  A    between atoms: C_16  and  O_19
REMARK    7  A    between atoms: C_17  and  O_18
REMARK    8  A    between atoms: O_19  and  C_20
REMARK    9  A    between atoms: C_20  and  C_22
REMARK                            x       y       z     vdW  Elec       q    Type
REMARK                         _______ _______ _______ _____ _____    ______ ____
ROOT
ATOM      1  C   UNL     1      86.174  52.865  41.479  0.00  0.00    +0.160 C 
ATOM      2  O   UNL     1      86.458  53.273  40.161  0.00  0.00    -0.357 OA
ATOM      3  C   UNL     1      85.108  53.374  40.573  0.00  0.00    +0.113 C 
ATOM      4  C   UNL     1      84.694  54.843  40.766  0.00  0.00    +0.092 C 
ATOM      5  C   UNL     1      84.437  55.202  42.255  0.00  0.00    +0.113 C 
ATOM      6  C   UNL     1      85.365  54.446  43.259  0.00  0.00    +0.159 C 
ATOM      7  C   UNL     1      86.617  53.860  42.575  0.00  0.00    +0.129 C 
ATOM      8 CL   UNL     1      83.237  55.178  39.788  0.00  0.00    -0.116 Cl
ENDROOT
BRANCH   7   9
ATOM      9  O   UNL     1      87.474  53.252  43.509  0.00  0.00    -0.385 OA
ATOM     10  H   UNL     1      88.021  52.587  43.062  0.00  0.00    +0.000 HD
ENDBRANCH   7   9
BRANCH   5  11
ATOM     11  O   UNL     1      84.585  56.591  42.420  0.00  0.00    -0.386 OA
ATOM     12  H   UNL     1      85.498  56.845  42.215  0.00  0.00    +0.000 HD
ENDBRANCH   5  11
BRANCH   1  13
ATOM     13  C   UNL     1      86.208  51.343  41.683  0.00  0.00    +0.127 C 
BRANCH  13  14
ATOM     14  O   UNL     1      87.291  50.761  40.961  0.00  0.00    -0.458 OA
BRANCH  14  16
ATOM     15  O   UNL     1      89.312  51.625  41.667  0.00  0.00    -0.245 OA
ATOM     16  C   UNL     1      88.581  50.612  41.485  0.00  0.00    +0.339 C 
BRANCH  16  17
ATOM     17  C   UNL     1      89.087  49.264  41.820  0.00  0.00    +0.059 A 
ATOM     18  C   UNL     1      90.301  49.114  42.515  0.00  0.00    -0.048 A 
ATOM     19  C   UNL     1      90.783  47.840  42.830  0.00  0.00    -0.061 A 
ATOM     20  C   UNL     1      90.062  46.704  42.455  0.00  0.00    -0.062 A 
ATOM     21  C   UNL     1      88.856  46.840  41.764  0.00  0.00    -0.061 A 
ATOM     22  C   UNL     1      88.369  48.112  41.446  0.00  0.00    -0.048 A 
ENDBRANCH  16  17
ENDBRANCH  14  16
ENDBRANCH  13  14
ENDBRANCH   1  13
BRANCH   6  23
ATOM     23  O   UNL     1      85.773  55.297  44.333  0.00  0.00    -0.452 OA
BRANCH  23  24
ATOM     24  C   UNL     1      84.986  55.543  45.466  0.00  0.00    +0.340 C 
ATOM     25  O   UNL     1      84.212  56.539  45.495  0.00  0.00    -0.245 OA
BRANCH  24  26
ATOM     26  C   UNL     1      85.066  54.630  46.627  0.00  0.00    +0.059 A 
ATOM     27  C   UNL     1      85.886  53.489  46.577  0.00  0.00    -0.048 A 
ATOM     28  C   UNL     1      85.965  52.625  47.675  0.00  0.00    -0.061 A 
ATOM     29  C   UNL     1      85.226  52.891  48.830  0.00  0.00    -0.062 A 
ATOM     30  C   UNL     1      84.407  54.020  48.891  0.00  0.00    -0.061 A 
ATOM     31  C   UNL     1      84.325  54.888  47.797  0.00  0.00    -0.048 A 
ENDBRANCH  24  26
ENDBRANCH  23  24
ENDBRANCH   6  23
TORSDOF 9
ENDMDL
MODEL 6
REMARK VINA RESULT:    -8.836      3.933      7.150
REMARK INTER + INTRA:         -14.147
REMARK INTER:                 -12.968
REMARK INTRA:                  -1.179
REMARK UNBOUND:                -1.179
REMARK  Name = 
REMARK  9 active torsions:
REMARK  status: ('A' for Active; 'I' for Inactive)
REMARK    1  A    between atoms: C_2  and  C_3
REMARK    2  A    between atoms: C_2  and  O_9
REMARK    3  A    between atoms: O_9  and  C_10
REMARK    4  A    between atoms: C_10  and  C_11
REMARK    5  A    between atoms: C_15  and  O_28
REMARK    6  A    between atoms: C_16  and  O_19
REMARK    7  A    between atoms: C_17  and  O_18
REMARK    8  A    between atoms: O_19  and  C_20
REMARK    9  A    between atoms: C_20  and  C_22
REMARK                            x       y       z     vdW  Elec       q    Type
REMARK                         _______ _______ _______ _____ _____    ______ ____
ROOT
ATOM      1  C   UNL     1      85.996  49.742  44.237  0.00  0.00    +0.160 C 
ATOM      2  O   UNL     1      85.607  48.855  45.260  0.00  0.00    -0.357 OA
ATOM      3  C   UNL     1      86.839  49.527  45.444  0.00  0.00    +0.113 C 
ATOM      4  C   UNL     1      86.732  50.591  46.549  0.00  0.00    +0.092 C 
ATOM      5  C   UNL     1      86.835  52.040  45.998  0.00  0.00    +0.113 C 
ATOM      6  C   UNL     1      86.203  52.224  44.581  0.00  0.00    +0.159 C 
ATOM      7  C   UNL     1      85.230  51.084  44.219  0.00  0.00    +0.129 C 
ATOM      8 CL   UNL     1      88.003  50.303  47.771  0.00  0.00    -0.116 Cl
ENDROOT
BRANCH   7   9
ATOM      9  O   UNL     1      84.615  51.311  42.973  0.00  0.00    -0.385 OA
ATOM     10  H   UNL     1      84.476  52.263  42.850  0.00  0.00    +0.000 HD
ENDBRANCH   7   9
BRANCH   5  11
ATOM     11  O   UNL     1      86.225  52.918  46.911  0.00  0.00    -0.386 OA
ATOM     12  H   UNL     1      86.845  53.119  47.629  0.00  0.00    +0.000 HD
ENDBRANCH   5  11
BRANCH   1  13
ATOM     13  C   UNL     1      86.473  49.045  42.954  0.00  0.00    +0.127 C 
BRANCH  13  14
ATOM     14  O   UNL     1      87.056  49.986  42.056  0.00  0.00    -0.458 OA
BRANCH  14  16
ATOM     15  O   UNL     1      88.639  50.498  40.455  0.00  0.00    -0.245 OA
ATOM     16  C   UNL     1      88.318  49.820  41.470  0.00  0.00    +0.339 C 
BRANCH  16  17
ATOM     17  C   UNL     1      89.270  48.844  42.041  0.00  0.00    +0.059 A 
ATOM     18  C   UNL     1      90.227  49.257  42.987  0.00  0.00    -0.048 A 
ATOM     19  C   UNL     1      91.131  48.336  43.527  0.00  0.00    -0.061 A 
ATOM     20  C   UNL     1      91.090  46.998  43.129  0.00  0.00    -0.062 A 
ATOM     21  C   UNL     1      90.146  46.577  42.190  0.00  0.00    -0.061 A 
ATOM     22  C   UNL     1      89.239  47.493  41.647  0.00  0.00    -0.048 A 
ENDBRANCH  16  17
ENDBRANCH  14  16
ENDBRANCH  13  14
ENDBRANCH   1  13
BRANCH   6  23
ATOM     23  O   UNL     1      85.519  53.475  44.475  0.00  0.00    -0.452 OA
BRANCH  23  24
ATOM     24  C   UNL     1      86.116  54.643  43.983  0.00  0.00    +0.340 C 
ATOM     25  O   UNL     1      86.954  54.578  43.042  0.00  0.00    -0.245 OA
BRANCH  24  26
ATOM     26  C   UNL     1      85.761  55.953  44.572  0.00  0.00    +0.059 A 
ATOM     27  C   UNL     1      84.915  56.020  45.693  0.00  0.00    -0.048 A 
ATOM     28  C   UNL     1      84.578  57.257  46.253  0.00  0.00    -0.061 A 
ATOM     29  C   UNL     1      85.082  58.437  45.700  0.00  0.00    -0.062 A 
ATOM     30  C   UNL     1      85.922  58.383  44.586  0.00  0.00    -0.061 A 
ATOM     31  C   UNL     1      86.263  57.148  44.022  0.00  0.00    -0.048 A 
ENDBRANCH  24  26
ENDBRANCH  23  24
ENDBRANCH   6  23
TORSDOF 9
ENDMDL
MODEL 7
REMARK VINA RESULT:    -8.796      3.507      6.548
REMARK INTER + INTRA:         -14.088
REMARK INTER:                 -12.301
REMARK INTRA:                  -1.787
REMARK UNBOUND:                -1.179
REMARK  Name = 
REMARK  9 active torsions:
REMARK  status: ('A' for Active; 'I' for Inactive)
REMARK    1  A    between atoms: C_2  and  C_3
REMARK    2  A    between atoms: C_2  and  O_9
REMARK    3  A    between atoms: O_9  and  C_10
REMARK    4  A    between atoms: C_10  and  C_11
REMARK    5  A    between atoms: C_15  and  O_28
REMARK    6  A    between atoms: C_16  and  O_19
REMARK    7  A    between atoms: C_17  and  O_18
REMARK    8  A    between atoms: O_19  and  C_20
REMARK    9  A    between atoms: C_20  and  C_22
REMARK                            x       y       z     vdW  Elec       q    Type
REMARK                         _______ _______ _______ _____ _____    ______ ____
ROOT
ATOM      1  C   UNL     1      84.762  55.559  42.589  0.00  0.00    +0.160 C 
ATOM      2  O   UNL     1      84.863  56.958  42.728  0.00  0.00    -0.357 OA
ATOM      3  C   UNL     1      84.190  56.270  43.765  0.00  0.00    +0.113 C 
ATOM      4  C   UNL     1      85.032  56.244  45.052  0.00  0.00    +0.092 C 
ATOM      5  C   UNL     1      85.545  54.821  45.404  0.00  0.00    +0.113 C 
ATOM      6  C   UNL     1      85.880  53.942  44.157  0.00  0.00    +0.159 C 
ATOM      7  C   UNL     1      86.067  54.784  42.878  0.00  0.00    +0.129 C 
ATOM      8 CL   UNL     1      84.065  56.904  46.402  0.00  0.00    -0.116 Cl
ENDROOT
BRANCH   7   9
ATOM      9  O   UNL     1      86.443  53.981  41.786  0.00  0.00    -0.385 OA
ATOM     10  H   UNL     1      85.658  53.544  41.419  0.00  0.00    +0.000 HD
ENDBRANCH   7   9
BRANCH   5  11
ATOM     11  O   UNL     1      86.680  54.937  46.226  0.00  0.00    -0.386 OA
ATOM     12  H   UNL     1      86.477  54.591  47.109  0.00  0.00    +0.000 HD
ENDBRANCH   5  11
BRANCH   1  13
ATOM     13  C   UNL     1      83.752  55.109  41.523  0.00  0.00    +0.127 C 
BRANCH  13  14
ATOM     14  O   UNL     1      83.656  53.687  41.487  0.00  0.00    -0.458 OA
BRANCH  14  16
ATOM     15  O   UNL     1      81.381  53.471  41.161  0.00  0.00    -0.245 OA
ATOM     16  C   UNL     1      82.451  52.988  41.626  0.00  0.00    +0.339 C 
BRANCH  16  17
ATOM     17  C   UNL     1      82.434  51.685  42.324  0.00  0.00    +0.059 A 
ATOM     18  C   UNL     1      81.276  50.885  42.304  0.00  0.00    -0.048 A 
ATOM     19  C   UNL     1      81.256  49.653  42.965  0.00  0.00    -0.061 A 
ATOM     20  C   UNL     1      82.387  49.208  43.653  0.00  0.00    -0.062 A 
ATOM     21  C   UNL     1      83.542  49.994  43.681  0.00  0.00    -0.061 A 
ATOM     22  C   UNL     1      83.567  51.227  43.022  0.00  0.00    -0.048 A 
ENDBRANCH  16  17
ENDBRANCH  14  16
ENDBRANCH  13  14
ENDBRANCH   1  13
BRANCH   6  23
ATOM     23  O   UNL     1      87.053  53.154  44.375  0.00  0.00    -0.452 OA
BRANCH  23  24
ATOM     24  C   UNL     1      87.034  51.759  44.499  0.00  0.00    +0.340 C 
ATOM     25  O   UNL     1      86.311  51.211  45.377  0.00  0.00    -0.245 OA
BRANCH  24  26
ATOM     26  C   UNL     1      87.866  50.930  43.598  0.00  0.00    +0.059 A 
ATOM     27  C   UNL     1      88.626  51.534  42.581  0.00  0.00    -0.048 A 
ATOM     28  C   UNL     1      89.414  50.753  41.729  0.00  0.00    -0.061 A 
ATOM     29  C   UNL     1      89.450  49.365  41.883  0.00  0.00    -0.062 A 
ATOM     30  C   UNL     1      88.698  48.755  42.889  0.00  0.00    -0.061 A 
ATOM     31  C   UNL     1      87.909  49.531  43.745  0.00  0.00    -0.048 A 
ENDBRANCH  24  26
ENDBRANCH  23  24
ENDBRANCH   6  23
TORSDOF 9
ENDMDL
MODEL 8
REMARK VINA RESULT:    -8.790      4.426      7.253
REMARK INTER + INTRA:         -14.080
REMARK INTER:                 -11.363
REMARK INTRA:                  -2.717
REMARK UNBOUND:                -1.179
REMARK  Name = 
REMARK  9 active torsions:
REMARK  status: ('A' for Active; 'I' for Inactive)
REMARK    1  A    between atoms: C_2  and  C_3
REMARK    2  A    between atoms: C_2  and  O_9
REMARK    3  A    between atoms: O_9  and  C_10
REMARK    4  A    between atoms: C_10  and  C_11
REMARK    5  A    between atoms: C_15  and  O_28
REMARK    6  A    between atoms: C_16  and  O_19
REMARK    7  A    between atoms: C_17  and  O_18
REMARK    8  A    between atoms: O_19  and  C_20
REMARK    9  A    between atoms: C_20  and  C_22
REMARK                            x       y       z     vdW  Elec       q    Type
REMARK                         _______ _______ _______ _____ _____    ______ ____
ROOT
ATOM      1  C   UNL     1      86.254  52.249  41.361  0.00  0.00    +0.160 C 
ATOM      2  O   UNL     1      86.759  51.686  40.173  0.00  0.00    -0.357 OA
ATOM      3  C   UNL     1      87.697  52.341  41.007  0.00  0.00    +0.113 C 
ATOM      4  C   UNL     1      88.632  51.331  41.692  0.00  0.00    +0.092 C 
ATOM      5  C   UNL     1      88.397  51.240  43.225  0.00  0.00    +0.113 C 
ATOM      6  C   UNL     1      86.906  51.435  43.649  0.00  0.00    +0.159 C 
ATOM      7  C   UNL     1      85.929  51.228  42.474  0.00  0.00    +0.129 C 
ATOM      8 CL   UNL     1      90.329  51.774  41.352  0.00  0.00    -0.116 Cl
ENDROOT
BRANCH   7   9
ATOM      9  O   UNL     1      84.591  51.332  42.896  0.00  0.00    -0.385 OA
ATOM     10  H   UNL     1      84.500  52.085  43.501  0.00  0.00    +0.000 HD
ENDBRANCH   7   9
BRANCH   5  11
ATOM     11  O   UNL     1      88.866  49.996  43.684  0.00  0.00    -0.386 OA
ATOM     12  H   UNL     1      88.524  49.831  44.576  0.00  0.00    +0.000 HD
ENDBRANCH   5  11
BRANCH   1  13
ATOM     13  C   UNL     1      85.429  53.526  41.146  0.00  0.00    +0.127 C 
BRANCH  13  14
ATOM     14  O   UNL     1      84.952  54.035  42.389  0.00  0.00    -0.458 OA
BRANCH  14  16
ATOM     15  O   UNL     1      84.931  56.299  41.936  0.00  0.00    -0.245 OA
ATOM     16  C   UNL     1      85.083  55.373  42.781  0.00  0.00    +0.339 C 
BRANCH  16  17
ATOM     17  C   UNL     1      85.405  55.698  44.186  0.00  0.00    +0.059 A 
ATOM     18  C   UNL     1      86.562  55.169  44.789  0.00  0.00    -0.048 A 
ATOM     19  C   UNL     1      86.868  55.473  46.119  0.00  0.00    -0.061 A 
ATOM     20  C   UNL     1      86.025  56.304  46.861  0.00  0.00    -0.062 A 
ATOM     21  C   UNL     1      84.874  56.834  46.274  0.00  0.00    -0.061 A 
ATOM     22  C   UNL     1      84.563  56.533  44.944  0.00  0.00    -0.048 A 
ENDBRANCH  16  17
ENDBRANCH  14  16
ENDBRANCH  13  14
ENDBRANCH   1  13
BRANCH   6  23
ATOM     23  O   UNL     1      86.549  50.553  44.716  0.00  0.00    -0.452 OA
BRANCH  23  24
ATOM     24  C   UNL     1      86.823  50.821  46.064  0.00  0.00    +0.340 C 
ATOM     25  O   UNL     1      87.820  50.287  46.626  0.00  0.00    -0.245 OA
BRANCH  24  26
ATOM     26  C   UNL     1      85.940  51.730  46.827  0.00  0.00    +0.059 A 
ATOM     27  C   UNL     1      84.867  52.376  46.188  0.00  0.00    -0.048 A 
ATOM     28  C   UNL     1      84.029  53.235  46.906  0.00  0.00    -0.061 A 
ATOM     29  C   UNL     1      84.255  53.458  48.267  0.00  0.00    -0.062 A 
ATOM     30  C   UNL     1      85.318  52.823  48.912  0.00  0.00    -0.061 A 
ATOM     31  C   UNL     1      86.158  51.961  48.198  0.00  0.00    -0.048 A 
ENDBRANCH  24  26
ENDBRANCH  23  24
ENDBRANCH   6  23
TORSDOF 9
ENDMDL
MODEL 9
REMARK VINA RESULT:    -8.779      2.400      5.969
REMARK INTER + INTRA:         -14.064
REMARK INTER:                 -12.152
REMARK INTRA:                  -1.913
REMARK UNBOUND:                -1.179
REMARK  Name = 
REMARK  9 active torsions:
REMARK  status: ('A' for Active; 'I' for Inactive)
REMARK    1  A    between atoms: C_2  and  C_3
REMARK    2  A    between atoms: C_2  and  O_9
REMARK    3  A    between atoms: O_9  and  C_10
REMARK    4  A    between atoms: C_10  and  C_11
REMARK    5  A    between atoms: C_15  and  O_28
REMARK    6  A    between atoms: C_16  and  O_19
REMARK    7  A    between atoms: C_17  and  O_18
REMARK    8  A    between atoms: O_19  and  C_20
REMARK    9  A    between atoms: C_20  and  C_22
REMARK                            x       y       z     vdW  Elec       q    Type
REMARK                         _______ _______ _______ _____ _____    ______ ____
ROOT
ATOM      1  C   UNL     1      89.453  50.152  41.787  0.00  0.00    +0.160 C 
ATOM      2  O   UNL     1      90.349  51.175  41.419  0.00  0.00    -0.357 OA
ATOM      3  C   UNL     1      89.228  50.988  40.576  0.00  0.00    +0.113 C 
ATOM      4  C   UNL     1      88.223  52.143  40.723  0.00  0.00    +0.092 C 
ATOM      5  C   UNL     1      86.896  51.701  41.400  0.00  0.00    +0.113 C 
ATOM      6  C   UNL     1      87.080  50.596  42.489  0.00  0.00    +0.159 C 
ATOM      7  C   UNL     1      88.537  50.493  42.983  0.00  0.00    +0.129 C 
ATOM      8 CL   UNL     1      87.891  52.844  39.113  0.00  0.00    -0.116 Cl
ENDROOT
BRANCH   7   9
ATOM      9  O   UNL     1      88.662  49.546  44.016  0.00  0.00    -0.385 OA
ATOM     10  H   UNL     1      87.991  49.719  44.697  0.00  0.00    +0.000 HD
ENDBRANCH   7   9
BRANCH   5  11
ATOM     11  O   UNL     1      86.276  52.830  41.965  0.00  0.00    -0.386 OA
ATOM     12  H   UNL     1      86.843  53.196  42.661  0.00  0.00    +0.000 HD
ENDBRANCH   5  11
BRANCH   1  13
ATOM     13  C   UNL     1      89.986  48.734  41.532  0.00  0.00    +0.127 C 
BRANCH  13  14
ATOM     14  O   UNL     1      88.911  47.807  41.402  0.00  0.00    -0.458 OA
BRANCH  14  16
ATOM     15  O   UNL     1      89.900  46.081  42.574  0.00  0.00    -0.245 OA
ATOM     16  C   UNL     1      88.850  46.590  42.092  0.00  0.00    +0.339 C 
BRANCH  16  17
ATOM     17  C   UNL     1      87.552  45.899  42.248  0.00  0.00    +0.059 A 
ATOM     18  C   UNL     1      87.482  44.495  42.169  0.00  0.00    -0.048 A 
ATOM     19  C   UNL     1      86.256  43.839  42.314  0.00  0.00    -0.061 A 
ATOM     20  C   UNL     1      85.089  44.574  42.538  0.00  0.00    -0.062 A 
ATOM     21  C   UNL     1      85.146  45.967  42.617  0.00  0.00    -0.061 A 
ATOM     22  C   UNL     1      86.370  46.629  42.472  0.00  0.00    -0.048 A 
ENDBRANCH  16  17
ENDBRANCH  14  16
ENDBRANCH  13  14
ENDBRANCH   1  13
BRANCH   6  23
ATOM     23  O   UNL     1      86.219  50.820  43.608  0.00  0.00    -0.452 OA
BRANCH  23  24
ATOM     24  C   UNL     1      85.270  49.890  44.052  0.00  0.00    +0.340 C 
ATOM     25  O   UNL     1      85.599  48.994  44.878  0.00  0.00    -0.245 OA
BRANCH  24  26
ATOM     26  C   UNL     1      83.881  49.962  43.549  0.00  0.00    +0.059 A 
ATOM     27  C   UNL     1      83.041  48.836  43.620  0.00  0.00    -0.048 A 
ATOM     28  C   UNL     1      81.727  48.902  43.146  0.00  0.00    -0.061 A 
ATOM     29  C   UNL     1      81.239  50.090  42.596  0.00  0.00    -0.062 A 
ATOM     30  C   UNL     1      82.064  51.214  42.519  0.00  0.00    -0.061 A 
ATOM     31  C   UNL     1      83.379  51.154  42.992  0.00  0.00    -0.048 A 
ENDBRANCH  24  26
ENDBRANCH  23  24
ENDBRANCH   6  23
TORSDOF 9
ENDMDL
