MODEL 1
REMARK VINA RESULT:   -10.104      0.000      0.000
REMARK INTER + INTRA:         -13.951
REMARK INTER:                 -12.941
REMARK INTRA:                  -1.010
REMARK UNBOUND:                -0.599
REMARK  Name = 
REMARK  12 active torsions:
REMARK  status: ('A' for Active; 'I' for Inactive)
REMARK    1  A    between atoms: O_1  and  C_2
REMARK    2  A    between atoms: C_5  and  C_29
REMARK    3  A    between atoms: C_14  and  C_28
REMARK    4  A    between atoms: C_18  and  C_19
REMARK    5  A    between atoms: C_19  and  C_20
REMARK    6  A    between atoms: C_19  and  C_27
REMARK    7  A    between atoms: C_20  and  C_21
REMARK    8  A    between atoms: C_21  and  C_22
REMARK    9  A    between atoms: C_22  and  C_23
REMARK   10  A    between atoms: C_22  and  C_26
REMARK   11  A    between atoms: C_23  and  C_24
REMARK   12  A    between atoms: C_23  and  C_25
REMARK                            x       y       z     vdW  Elec       q    Type
REMARK                         _______ _______ _______ _____ _____    ______ ____
ROOT
ATOM      1  C   UNL     1      85.462  56.371  46.103  0.00  0.00    +0.056 C 
ATOM      2  C   UNL     1      86.210  55.302  46.928  0.00  0.00    -0.026 C 
ATOM      3  C   UNL     1      85.515  53.938  46.873  0.00  0.00    -0.044 C 
ATOM      4  C   UNL     1      85.469  53.345  45.423  0.00  0.00    -0.022 C 
ATOM      5  C   UNL     1      85.208  54.494  44.356  0.00  0.00    -0.029 C 
ATOM      6  C   UNL     1      84.588  55.760  44.984  0.00  0.00    -0.023 C 
ATOM      7  C   UNL     1      86.447  54.852  43.525  0.00  0.00    -0.031 C 
ATOM      8  C   UNL     1      87.019  53.618  42.907  0.00  0.00    -0.084 C 
ATOM      9  C   UNL     1      87.202  52.511  43.650  0.00  0.00    -0.066 C 
ATOM     10  C   UNL     1      86.829  52.553  45.138  0.00  0.00    -0.014 C 
ATOM     11  C   UNL     1      86.917  51.149  45.839  0.00  0.00    -0.045 C 
ATOM     12  C   UNL     1      88.041  50.227  45.320  0.00  0.00    -0.046 C 
ATOM     13  C   UNL     1      87.985  50.093  43.777  0.00  0.00    -0.022 C 
ATOM     14  C   UNL     1      88.244  51.497  43.222  0.00  0.00    -0.014 C 
ATOM     15  C   UNL     1      88.550  51.286  41.745  0.00  0.00    -0.046 C 
ATOM     16  C   UNL     1      89.324  49.958  41.713  0.00  0.00    -0.049 C 
ATOM     17  C   UNL     1      89.171  49.319  43.120  0.00  0.00    -0.032 C 
ATOM     18  C   UNL     1      86.604  49.543  43.318  0.00  0.00    -0.059 C 
ATOM     19  C   UNL     1      84.239  52.395  45.361  0.00  0.00    -0.059 C 
ENDROOT
BRANCH   1  20
ATOM     20  O   UNL     1      84.656  57.139  46.960  0.00  0.00    -0.392 OA
ATOM     21  H   UNL     1      83.723  56.924  46.806  0.00  0.00    +0.000 HD
ENDBRANCH   1  20
BRANCH  17  22
ATOM     22  C   UNL     1      89.243  47.745  43.102  0.00  0.00    -0.041 C 
ATOM     23  C   UNL     1      90.653  47.117  43.126  0.00  0.00    -0.062 C 
BRANCH  22  24
ATOM     24  C   UNL     1      88.416  47.071  41.974  0.00  0.00    -0.050 C 
BRANCH  24  25
ATOM     25  C   UNL     1      88.319  45.529  42.016  0.00  0.00    -0.050 C 
BRANCH  25  26
ATOM     26  C   UNL     1      87.439  44.948  43.158  0.00  0.00    -0.042 C 
ATOM     27  C   UNL     1      87.460  43.409  43.148  0.00  0.00    -0.062 C 
BRANCH  26  28
ATOM     28  C   UNL     1      85.974  45.490  43.132  0.00  0.00    -0.044 C 
ATOM     29  C   UNL     1      84.956  44.381  42.819  0.00  0.00    -0.062 C 
ATOM     30  C   UNL     1      85.567  46.235  44.414  0.00  0.00    -0.062 C 
ENDBRANCH  26  28
ENDBRANCH  25  26
ENDBRANCH  24  25
ENDBRANCH  22  24
ENDBRANCH  17  22
TORSDOF 6
ENDMDL
MODEL 2
REMARK VINA RESULT:    -9.673      3.467      8.299
REMARK INTER + INTRA:         -13.381
REMARK INTER:                 -12.834
REMARK INTRA:                  -0.548
REMARK UNBOUND:                -0.599
REMARK  Name = 
REMARK  12 active torsions:
REMARK  status: ('A' for Active; 'I' for Inactive)
REMARK    1  A    between atoms: O_1  and  C_2
REMARK    2  A    between atoms: C_5  and  C_29
REMARK    3  A    between atoms: C_14  and  C_28
REMARK    4  A    between atoms: C_18  and  C_19
REMARK    5  A    between atoms: C_19  and  C_20
REMARK    6  A    between atoms: C_19  and  C_27
REMARK    7  A    between atoms: C_20  and  C_21
REMARK    8  A    between atoms: C_21  and  C_22
REMARK    9  A    between atoms: C_22  and  C_23
REMARK   10  A    between atoms: C_22  and  C_26
REMARK   11  A    between atoms: C_23  and  C_24
REMARK   12  A    between atoms: C_23  and  C_25
REMARK                            x       y       z     vdW  Elec       q    Type
REMARK                         _______ _______ _______ _____ _____    ______ ____
ROOT
ATOM      1  C   UNL     1      89.465  50.800  40.648  0.00  0.00    +0.056 C 
ATOM      2  C   UNL     1      89.320  52.233  41.204  0.00  0.00    -0.026 C 
ATOM      3  C   UNL     1      87.854  52.641  41.378  0.00  0.00    -0.044 C 
ATOM      4  C   UNL     1      87.100  51.745  42.420  0.00  0.00    -0.022 C 
ATOM      5  C   UNL     1      87.570  50.231  42.300  0.00  0.00    -0.029 C 
ATOM      6  C   UNL     1      88.230  49.918  40.940  0.00  0.00    -0.023 C 
ATOM      7  C   UNL     1      88.471  49.775  43.456  0.00  0.00    -0.031 C 
ATOM      8  C   UNL     1      87.806  50.065  44.763  0.00  0.00    -0.084 C 
ATOM      9  C   UNL     1      87.253  51.270  44.988  0.00  0.00    -0.066 C 
ATOM     10  C   UNL     1      87.337  52.336  43.888  0.00  0.00    -0.014 C 
ATOM     11  C   UNL     1      86.495  53.625  44.206  0.00  0.00    -0.045 C 
ATOM     12  C   UNL     1      86.435  54.016  45.699  0.00  0.00    -0.046 C 
ATOM     13  C   UNL     1      85.997  52.815  46.573  0.00  0.00    -0.022 C 
ATOM     14  C   UNL     1      87.092  51.755  46.415  0.00  0.00    -0.014 C 
ATOM     15  C   UNL     1      86.842  50.761  47.541  0.00  0.00    -0.046 C 
ATOM     16  C   UNL     1      86.354  51.635  48.707  0.00  0.00    -0.049 C 
ATOM     17  C   UNL     1      86.060  53.041  48.117  0.00  0.00    -0.032 C 
ATOM     18  C   UNL     1      84.610  52.275  46.120  0.00  0.00    -0.059 C 
ATOM     19  C   UNL     1      85.593  51.772  42.036  0.00  0.00    -0.059 C 
ENDROOT
BRANCH   1  20
ATOM     20  O   UNL     1      89.681  50.860  39.262  0.00  0.00    -0.392 OA
ATOM     21  H   UNL     1      90.100  50.038  38.963  0.00  0.00    +0.000 HD
ENDBRANCH   1  20
BRANCH  17  22
ATOM     22  C   UNL     1      84.941  53.826  48.901  0.00  0.00    -0.041 C 
ATOM     23  C   UNL     1      83.755  52.992  49.432  0.00  0.00    -0.062 C 
BRANCH  22  24
ATOM     24  C   UNL     1      84.384  55.071  48.161  0.00  0.00    -0.050 C 
BRANCH  24  25
ATOM     25  C   UNL     1      85.426  56.085  47.636  0.00  0.00    -0.050 C 
BRANCH  25  26
ATOM     26  C   UNL     1      84.857  57.224  46.744  0.00  0.00    -0.042 C 
ATOM     27  C   UNL     1      83.326  57.324  46.880  0.00  0.00    -0.062 C 
BRANCH  26  28
ATOM     28  C   UNL     1      85.281  57.094  45.247  0.00  0.00    -0.044 C 
ATOM     29  C   UNL     1      84.139  56.549  44.371  0.00  0.00    -0.062 C 
ATOM     30  C   UNL     1      85.834  58.395  44.645  0.00  0.00    -0.062 C 
ENDBRANCH  26  28
ENDBRANCH  25  26
ENDBRANCH  24  25
ENDBRANCH  22  24
ENDBRANCH  17  22
TORSDOF 6
ENDMDL
MODEL 3
REMARK VINA RESULT:    -9.186      1.740      3.637
REMARK INTER + INTRA:         -12.738
REMARK INTER:                 -11.249
REMARK INTRA:                  -1.489
REMARK UNBOUND:                -0.599
REMARK  Name = 
REMARK  12 active torsions:
REMARK  status: ('A' for Active; 'I' for Inactive)
REMARK    1  A    between atoms: O_1  and  C_2
REMARK    2  A    between atoms: C_5  and  C_29
REMARK    3  A    between atoms: C_14  and  C_28
REMARK    4  A    between atoms: C_18  and  C_19
REMARK    5  A    between atoms: C_19  and  C_20
REMARK    6  A    between atoms: C_19  and  C_27
REMARK    7  A    between atoms: C_20  and  C_21
REMARK    8  A    between atoms: C_21  and  C_22
REMARK    9  A    between atoms: C_22  and  C_23
REMARK   10  A    between atoms: C_22  and  C_26
REMARK   11  A    between atoms: C_23  and  C_24
REMARK   12  A    between atoms: C_23  and  C_25
REMARK                            x       y       z     vdW  Elec       q    Type
REMARK                         _______ _______ _______ _____ _____    ______ ____
ROOT
ATOM      1  C   UNL     1      84.704  57.787  45.769  0.00  0.00    +0.056 C 
ATOM      2  C   UNL     1      83.610  56.715  45.572  0.00  0.00    -0.026 C 
ATOM      3  C   UNL     1      83.676  56.070  44.184  0.00  0.00    -0.044 C 
ATOM      4  C   UNL     1      85.019  55.300  43.942  0.00  0.00    -0.022 C 
ATOM      5  C   UNL     1      86.240  56.085  44.592  0.00  0.00    -0.029 C 
ATOM      6  C   UNL     1      85.923  57.575  44.844  0.00  0.00    -0.023 C 
ATOM      7  C   UNL     1      86.786  55.425  45.865  0.00  0.00    -0.031 C 
ATOM      8  C   UNL     1      87.108  53.990  45.595  0.00  0.00    -0.084 C 
ATOM      9  C   UNL     1      86.224  53.208  44.950  0.00  0.00    -0.066 C 
ATOM     10  C   UNL     1      84.882  53.814  44.518  0.00  0.00    -0.014 C 
ATOM     11  C   UNL     1      84.027  52.850  43.617  0.00  0.00    -0.045 C 
ATOM     12  C   UNL     1      84.157  51.350  43.956  0.00  0.00    -0.046 C 
ATOM     13  C   UNL     1      85.644  50.917  44.008  0.00  0.00    -0.022 C 
ATOM     14  C   UNL     1      86.275  51.707  45.158  0.00  0.00    -0.014 C 
ATOM     15  C   UNL     1      87.603  51.014  45.431  0.00  0.00    -0.046 C 
ATOM     16  C   UNL     1      87.301  49.527  45.189  0.00  0.00    -0.049 C 
ATOM     17  C   UNL     1      85.909  49.460  44.504  0.00  0.00    -0.032 C 
ATOM     18  C   UNL     1      86.355  51.210  42.655  0.00  0.00    -0.059 C 
ATOM     19  C   UNL     1      85.266  55.290  42.407  0.00  0.00    -0.059 C 
ENDROOT
BRANCH   1  20
ATOM     20  O   UNL     1      84.155  59.059  45.537  0.00  0.00    -0.392 OA
ATOM     21  H   UNL     1      84.548  59.440  44.737  0.00  0.00    +0.000 HD
ENDBRANCH   1  20
BRANCH  17  22
ATOM     22  C   UNL     1      85.733  48.205  43.568  0.00  0.00    -0.041 C 
ATOM     23  C   UNL     1      84.687  47.157  44.004  0.00  0.00    -0.062 C 
BRANCH  22  24
ATOM     24  C   UNL     1      87.054  47.473  43.211  0.00  0.00    -0.050 C 
BRANCH  24  25
ATOM     25  C   UNL     1      87.777  47.940  41.928  0.00  0.00    -0.050 C 
BRANCH  25  26
ATOM     26  C   UNL     1      89.248  47.459  41.778  0.00  0.00    -0.042 C 
ATOM     27  C   UNL     1      89.485  46.148  42.551  0.00  0.00    -0.062 C 
BRANCH  26  28
ATOM     28  C   UNL     1      90.290  48.549  42.187  0.00  0.00    -0.044 C 
ATOM     29  C   UNL     1      89.732  49.972  42.012  0.00  0.00    -0.062 C 
ATOM     30  C   UNL     1      90.848  48.370  43.608  0.00  0.00    -0.062 C 
ENDBRANCH  26  28
ENDBRANCH  25  26
ENDBRANCH  24  25
ENDBRANCH  22  24
ENDBRANCH  17  22
TORSDOF 6
ENDMDL
MODEL 4
REMARK VINA RESULT:    -8.877      3.065      8.294
REMARK INTER + INTRA:         -12.330
REMARK INTER:                 -11.395
REMARK INTRA:                  -0.935
REMARK UNBOUND:                -0.599
REMARK  Name = 
REMARK  12 active torsions:
REMARK  status: ('A' for Active; 'I' for Inactive)
REMARK    1  A    between atoms: O_1  and  C_2
REMARK    2  A    between atoms: C_5  and  C_29
REMARK    3  A    between atoms: C_14  and  C_28
REMARK    4  A    between atoms: C_18  and  C_19
REMARK    5  A    between atoms: C_19  and  C_20
REMARK    6  A    between atoms: C_19  and  C_27
REMARK    7  A    between atoms: C_20  and  C_21
REMARK    8  A    between atoms: C_21  and  C_22
REMARK    9  A    between atoms: C_22  and  C_23
REMARK   10  A    between atoms: C_22  and  C_26
REMARK   11  A    between atoms: C_23  and  C_24
REMARK   12  A    between atoms: C_23  and  C_25
REMARK                            x       y       z     vdW  Elec       q    Type
REMARK                         _______ _______ _______ _____ _____    ______ ____
ROOT
ATOM      1  C   UNL     1      89.775  48.976  42.593  0.00  0.00    +0.056 C 
ATOM      2  C   UNL     1      89.763  50.516  42.489  0.00  0.00    -0.026 C 
ATOM      3  C   UNL     1      88.361  51.067  42.211  0.00  0.00    -0.044 C 
ATOM      4  C   UNL     1      87.350  50.750  43.365  0.00  0.00    -0.022 C 
ATOM      5  C   UNL     1      87.609  49.296  43.953  0.00  0.00    -0.029 C 
ATOM      6  C   UNL     1      88.398  48.392  42.981  0.00  0.00    -0.023 C 
ATOM      7  C   UNL     1      88.267  49.302  45.340  0.00  0.00    -0.031 C 
ATOM      8  C   UNL     1      87.477  50.163  46.272  0.00  0.00    -0.084 C 
ATOM      9  C   UNL     1      87.078  51.389  45.888  0.00  0.00    -0.066 C 
ATOM     10  C   UNL     1      87.465  51.884  44.488  0.00  0.00    -0.014 C 
ATOM     11  C   UNL     1      86.782  53.246  44.100  0.00  0.00    -0.045 C 
ATOM     12  C   UNL     1      86.575  54.231  45.271  0.00  0.00    -0.046 C 
ATOM     13  C   UNL     1      85.852  53.545  46.456  0.00  0.00    -0.022 C 
ATOM     14  C   UNL     1      86.793  52.439  46.943  0.00  0.00    -0.014 C 
ATOM     15  C   UNL     1      86.251  52.031  48.306  0.00  0.00    -0.046 C 
ATOM     16  C   UNL     1      85.738  53.349  48.910  0.00  0.00    -0.049 C 
ATOM     17  C   UNL     1      85.734  54.394  47.762  0.00  0.00    -0.032 C 
ATOM     18  C   UNL     1      84.477  52.969  46.010  0.00  0.00    -0.059 C 
ATOM     19  C   UNL     1      85.930  50.725  42.731  0.00  0.00    -0.059 C 
ENDROOT
BRANCH   1  20
ATOM     20  O   UNL     1      90.186  48.431  41.366  0.00  0.00    -0.392 OA
ATOM     21  H   UNL     1      89.907  49.014  40.643  0.00  0.00    +0.000 HD
ENDBRANCH   1  20
BRANCH  17  22
ATOM     22  C   UNL     1      84.642  55.515  47.943  0.00  0.00    -0.041 C 
ATOM     23  C   UNL     1      83.180  55.042  48.079  0.00  0.00    -0.062 C 
BRANCH  22  24
ATOM     24  C   UNL     1      84.702  56.653  46.889  0.00  0.00    -0.050 C 
BRANCH  24  25
ATOM     25  C   UNL     1      83.831  56.470  45.626  0.00  0.00    -0.050 C 
BRANCH  25  26
ATOM     26  C   UNL     1      84.611  56.387  44.284  0.00  0.00    -0.042 C 
ATOM     27  C   UNL     1      85.232  57.748  43.916  0.00  0.00    -0.062 C 
BRANCH  26  28
ATOM     28  C   UNL     1      83.746  55.828  43.110  0.00  0.00    -0.044 C 
ATOM     29  C   UNL     1      84.427  56.034  41.746  0.00  0.00    -0.062 C 
ATOM     30  C   UNL     1      83.345  54.354  43.284  0.00  0.00    -0.062 C 
ENDBRANCH  26  28
ENDBRANCH  25  26
ENDBRANCH  24  25
ENDBRANCH  22  24
ENDBRANCH  17  22
TORSDOF 6
ENDMDL
MODEL 5
REMARK VINA RESULT:    -8.715      1.600      3.398
REMARK INTER + INTRA:         -12.116
REMARK INTER:                 -11.726
REMARK INTRA:                  -0.391
REMARK UNBOUND:                -0.599
REMARK  Name = 
REMARK  12 active torsions:
REMARK  status: ('A' for Active; 'I' for Inactive)
REMARK    1  A    between atoms: O_1  and  C_2
REMARK    2  A    between atoms: C_5  and  C_29
REMARK    3  A    between atoms: C_14  and  C_28
REMARK    4  A    between atoms: C_18  and  C_19
REMARK    5  A    between atoms: C_19  and  C_20
REMARK    6  A    between atoms: C_19  and  C_27
REMARK    7  A    between atoms: C_20  and  C_21
REMARK    8  A    between atoms: C_21  and  C_22
REMARK    9  A    between atoms: C_22  and  C_23
REMARK   10  A    between atoms: C_22  and  C_26
REMARK   11  A    between atoms: C_23  and  C_24
REMARK   12  A    between atoms: C_23  and  C_25
REMARK                            x       y       z     vdW  Elec       q    Type
REMARK                         _______ _______ _______ _____ _____    ______ ____
ROOT
ATOM      1  C   UNL     1      84.159  57.755  46.525  0.00  0.00    +0.056 C 
ATOM      2  C   UNL     1      83.483  56.787  45.530  0.00  0.00    -0.026 C 
ATOM      3  C   UNL     1      84.445  56.323  44.431  0.00  0.00    -0.044 C 
ATOM      4  C   UNL     1      85.659  55.510  44.998  0.00  0.00    -0.022 C 
ATOM      5  C   UNL     1      86.152  56.127  46.378  0.00  0.00    -0.029 C 
ATOM      6  C   UNL     1      85.695  57.589  46.573  0.00  0.00    -0.023 C 
ATOM      7  C   UNL     1      85.780  55.276  47.599  0.00  0.00    -0.031 C 
ATOM      8  C   UNL     1      86.251  53.871  47.402  0.00  0.00    -0.084 C 
ATOM      9  C   UNL     1      86.013  53.235  46.241  0.00  0.00    -0.066 C 
ATOM     10  C   UNL     1      85.237  53.973  45.141  0.00  0.00    -0.014 C 
ATOM     11  C   UNL     1      85.192  53.188  43.780  0.00  0.00    -0.045 C 
ATOM     12  C   UNL     1      85.128  51.651  43.912  0.00  0.00    -0.046 C 
ATOM     13  C   UNL     1      86.251  51.124  44.840  0.00  0.00    -0.022 C 
ATOM     14  C   UNL     1      85.972  51.719  46.223  0.00  0.00    -0.014 C 
ATOM     15  C   UNL     1      86.841  50.916  47.181  0.00  0.00    -0.046 C 
ATOM     16  C   UNL     1      86.817  49.494  46.599  0.00  0.00    -0.049 C 
ATOM     17  C   UNL     1      86.189  49.602  45.183  0.00  0.00    -0.032 C 
ATOM     18  C   UNL     1      87.652  51.544  44.309  0.00  0.00    -0.059 C 
ATOM     19  C   UNL     1      86.831  55.682  43.991  0.00  0.00    -0.059 C 
ENDROOT
BRANCH   1  20
ATOM     20  O   UNL     1      83.841  59.077  46.175  0.00  0.00    -0.392 OA
ATOM     21  H   UNL     1      84.518  59.425  45.574  0.00  0.00    +0.000 HD
ENDBRANCH   1  20
BRANCH  17  22
ATOM     22  C   UNL     1      86.698  48.491  44.188  0.00  0.00    -0.041 C 
ATOM     23  C   UNL     1      86.985  48.939  42.739  0.00  0.00    -0.062 C 
BRANCH  22  24
ATOM     24  C   UNL     1      85.827  47.207  44.150  0.00  0.00    -0.050 C 
BRANCH  24  25
ATOM     25  C   UNL     1      85.871  46.382  42.844  0.00  0.00    -0.050 C 
BRANCH  25  26
ATOM     26  C   UNL     1      85.955  44.841  43.031  0.00  0.00    -0.042 C 
ATOM     27  C   UNL     1      85.675  44.443  44.492  0.00  0.00    -0.062 C 
BRANCH  26  28
ATOM     28  C   UNL     1      87.308  44.240  42.534  0.00  0.00    -0.044 C 
ATOM     29  C   UNL     1      88.442  45.279  42.560  0.00  0.00    -0.062 C 
ATOM     30  C   UNL     1      87.736  42.971  43.288  0.00  0.00    -0.062 C 
ENDBRANCH  26  28
ENDBRANCH  25  26
ENDBRANCH  24  25
ENDBRANCH  22  24
ENDBRANCH  17  22
TORSDOF 6
ENDMDL
MODEL 6
REMARK VINA RESULT:    -8.715      3.072      8.440
REMARK INTER + INTRA:         -12.116
REMARK INTER:                 -10.909
REMARK INTRA:                  -1.207
REMARK UNBOUND:                -0.599
REMARK  Name = 
REMARK  12 active torsions:
REMARK  status: ('A' for Active; 'I' for Inactive)
REMARK    1  A    between atoms: O_1  and  C_2
REMARK    2  A    between atoms: C_5  and  C_29
REMARK    3  A    between atoms: C_14  and  C_28
REMARK    4  A    between atoms: C_18  and  C_19
REMARK    5  A    between atoms: C_19  and  C_20
REMARK    6  A    between atoms: C_19  and  C_27
REMARK    7  A    between atoms: C_20  and  C_21
REMARK    8  A    between atoms: C_21  and  C_22
REMARK    9  A    between atoms: C_22  and  C_23
REMARK   10  A    between atoms: C_22  and  C_26
REMARK   11  A    between atoms: C_23  and  C_24
REMARK   12  A    between atoms: C_23  and  C_25
REMARK                            x       y       z     vdW  Elec       q    Type
REMARK                         _______ _______ _______ _____ _____    ______ ____
ROOT
ATOM      1  C   UNL     1      90.209  47.112  43.434  0.00  0.00    +0.056 C 
ATOM      2  C   UNL     1      90.474  48.554  43.917  0.00  0.00    -0.026 C 
ATOM      3  C   UNL     1      90.307  49.581  42.791  0.00  0.00    -0.044 C 
ATOM      4  C   UNL     1      88.844  49.624  42.229  0.00  0.00    -0.022 C 
ATOM      5  C   UNL     1      88.224  48.161  42.168  0.00  0.00    -0.029 C 
ATOM      6  C   UNL     1      89.303  47.056  42.184  0.00  0.00    -0.023 C 
ATOM      7  C   UNL     1      87.164  47.898  43.245  0.00  0.00    -0.031 C 
ATOM      8  C   UNL     1      86.117  48.964  43.199  0.00  0.00    -0.084 C 
ATOM      9  C   UNL     1      86.473  50.259  43.135  0.00  0.00    -0.066 C 
ATOM     10  C   UNL     1      87.967  50.613  43.129  0.00  0.00    -0.014 C 
ATOM     11  C   UNL     1      88.242  52.138  42.865  0.00  0.00    -0.045 C 
ATOM     12  C   UNL     1      87.191  53.105  43.453  0.00  0.00    -0.046 C 
ATOM     13  C   UNL     1      85.758  52.699  43.025  0.00  0.00    -0.022 C 
ATOM     14  C   UNL     1      85.510  51.317  43.636  0.00  0.00    -0.014 C 
ATOM     15  C   UNL     1      84.006  51.101  43.524  0.00  0.00    -0.046 C 
ATOM     16  C   UNL     1      83.414  52.500  43.755  0.00  0.00    -0.049 C 
ATOM     17  C   UNL     1      84.597  53.503  43.691  0.00  0.00    -0.032 C 
ATOM     18  C   UNL     1      85.631  52.669  41.474  0.00  0.00    -0.059 C 
ATOM     19  C   UNL     1      88.937  50.127  40.761  0.00  0.00    -0.059 C 
ENDROOT
BRANCH   1  20
ATOM     20  O   UNL     1      91.433  46.484  43.154  0.00  0.00    -0.392 OA
ATOM     21  H   UNL     1      91.430  46.161  42.240  0.00  0.00    +0.000 HD
ENDBRANCH   1  20
BRANCH  17  22
ATOM     22  C   UNL     1      84.175  54.938  43.199  0.00  0.00    -0.041 C 
ATOM     23  C   UNL     1      83.393  55.012  41.870  0.00  0.00    -0.062 C 
BRANCH  22  24
ATOM     24  C   UNL     1      85.329  55.975  43.157  0.00  0.00    -0.050 C 
BRANCH  24  25
ATOM     25  C   UNL     1      85.986  56.332  44.510  0.00  0.00    -0.050 C 
BRANCH  25  26
ATOM     26  C   UNL     1      84.997  56.621  45.674  0.00  0.00    -0.042 C 
ATOM     27  C   UNL     1      84.800  58.136  45.874  0.00  0.00    -0.062 C 
BRANCH  26  28
ATOM     28  C   UNL     1      85.410  55.927  47.012  0.00  0.00    -0.044 C 
ATOM     29  C   UNL     1      84.207  55.719  47.947  0.00  0.00    -0.062 C 
ATOM     30  C   UNL     1      86.163  54.602  46.814  0.00  0.00    -0.062 C 
ENDBRANCH  26  28
ENDBRANCH  25  26
ENDBRANCH  24  25
ENDBRANCH  22  24
ENDBRANCH  17  22
TORSDOF 6
ENDMDL
MODEL 7
REMARK VINA RESULT:    -8.516      2.842      8.024
REMARK INTER + INTRA:         -11.853
REMARK INTER:                 -10.796
REMARK INTRA:                  -1.057
REMARK UNBOUND:                -0.599
REMARK  Name = 
REMARK  12 active torsions:
REMARK  status: ('A' for Active; 'I' for Inactive)
REMARK    1  A    between atoms: O_1  and  C_2
REMARK    2  A    between atoms: C_5  and  C_29
REMARK    3  A    between atoms: C_14  and  C_28
REMARK    4  A    between atoms: C_18  and  C_19
REMARK    5  A    between atoms: C_19  and  C_20
REMARK    6  A    between atoms: C_19  and  C_27
REMARK    7  A    between atoms: C_20  and  C_21
REMARK    8  A    between atoms: C_21  and  C_22
REMARK    9  A    between atoms: C_22  and  C_23
REMARK   10  A    between atoms: C_22  and  C_26
REMARK   11  A    between atoms: C_23  and  C_24
REMARK   12  A    between atoms: C_23  and  C_25
REMARK                            x       y       z     vdW  Elec       q    Type
REMARK                         _______ _______ _______ _____ _____    ______ ____
ROOT
ATOM      1  C   UNL     1      86.735  46.802  42.691  0.00  0.00    +0.056 C 
ATOM      2  C   UNL     1      85.594  47.326  43.588  0.00  0.00    -0.026 C 
ATOM      3  C   UNL     1      86.118  48.134  44.780  0.00  0.00    -0.044 C 
ATOM      4  C   UNL     1      86.887  49.426  44.339  0.00  0.00    -0.022 C 
ATOM      5  C   UNL     1      87.751  49.147  43.034  0.00  0.00    -0.029 C 
ATOM      6  C   UNL     1      88.026  47.644  42.813  0.00  0.00    -0.023 C 
ATOM      7  C   UNL     1      87.169  49.783  41.764  0.00  0.00    -0.031 C 
ATOM      8  C   UNL     1      86.930  51.241  41.990  0.00  0.00    -0.084 C 
ATOM      9  C   UNL     1      86.308  51.660  43.106  0.00  0.00    -0.066 C 
ATOM     10  C   UNL     1      85.836  50.613  44.124  0.00  0.00    -0.014 C 
ATOM     11  C   UNL     1      85.295  51.244  45.458  0.00  0.00    -0.045 C 
ATOM     12  C   UNL     1      84.560  52.592  45.294  0.00  0.00    -0.046 C 
ATOM     13  C   UNL     1      85.416  53.601  44.490  0.00  0.00    -0.022 C 
ATOM     14  C   UNL     1      85.586  52.993  43.094  0.00  0.00    -0.014 C 
ATOM     15  C   UNL     1      86.096  54.136  42.226  0.00  0.00    -0.046 C 
ATOM     16  C   UNL     1      85.371  55.373  42.778  0.00  0.00    -0.049 C 
ATOM     17  C   UNL     1      84.711  54.943  44.116  0.00  0.00    -0.032 C 
ATOM     18  C   UNL     1      86.790  53.837  45.181  0.00  0.00    -0.059 C 
ATOM     19  C   UNL     1      87.896  49.764  45.473  0.00  0.00    -0.059 C 
ENDROOT
BRANCH   1  20
ATOM     20  O   UNL     1      87.013  45.467  43.025  0.00  0.00    -0.392 OA
ATOM     21  H   UNL     1      87.373  45.426  43.925  0.00  0.00    +0.000 HD
ENDBRANCH   1  20
BRANCH  17  22
ATOM     22  C   UNL     1      84.554  56.127  45.144  0.00  0.00    -0.041 C 
ATOM     23  C   UNL     1      84.393  57.542  44.549  0.00  0.00    -0.062 C 
BRANCH  22  24
ATOM     24  C   UNL     1      85.640  56.172  46.251  0.00  0.00    -0.050 C 
BRANCH  24  25
ATOM     25  C   UNL     1      85.159  55.930  47.700  0.00  0.00    -0.050 C 
BRANCH  25  26
ATOM     26  C   UNL     1      84.132  54.776  47.876  0.00  0.00    -0.042 C 
ATOM     27  C   UNL     1      82.721  55.326  48.157  0.00  0.00    -0.062 C 
BRANCH  26  28
ATOM     28  C   UNL     1      84.560  53.741  48.965  0.00  0.00    -0.044 C 
ATOM     29  C   UNL     1      83.467  52.689  49.218  0.00  0.00    -0.062 C 
ATOM     30  C   UNL     1      85.901  53.051  48.671  0.00  0.00    -0.062 C 
ENDBRANCH  26  28
ENDBRANCH  25  26
ENDBRANCH  24  25
ENDBRANCH  22  24
ENDBRANCH  17  22
TORSDOF 6
ENDMDL
MODEL 8
REMARK VINA RESULT:    -8.315      3.134      8.481
REMARK INTER + INTRA:         -11.588
REMARK INTER:                 -10.513
REMARK INTRA:                  -1.074
REMARK UNBOUND:                -0.599
REMARK  Name = 
REMARK  12 active torsions:
REMARK  status: ('A' for Active; 'I' for Inactive)
REMARK    1  A    between atoms: O_1  and  C_2
REMARK    2  A    between atoms: C_5  and  C_29
REMARK    3  A    between atoms: C_14  and  C_28
REMARK    4  A    between atoms: C_18  and  C_19
REMARK    5  A    between atoms: C_19  and  C_20
REMARK    6  A    between atoms: C_19  and  C_27
REMARK    7  A    between atoms: C_20  and  C_21
REMARK    8  A    between atoms: C_21  and  C_22
REMARK    9  A    between atoms: C_22  and  C_23
REMARK   10  A    between atoms: C_22  and  C_26
REMARK   11  A    between atoms: C_23  and  C_24
REMARK   12  A    between atoms: C_23  and  C_25
REMARK                            x       y       z     vdW  Elec       q    Type
REMARK                         _______ _______ _______ _____ _____    ______ ____
ROOT
ATOM      1  C   UNL     1      88.985  46.488  42.397  0.00  0.00    +0.056 C 
ATOM      2  C   UNL     1      87.475  46.609  42.692  0.00  0.00    -0.026 C 
ATOM      3  C   UNL     1      87.188  47.555  43.863  0.00  0.00    -0.044 C 
ATOM      4  C   UNL     1      87.644  49.026  43.574  0.00  0.00    -0.022 C 
ATOM      5  C   UNL     1      89.012  49.039  42.763  0.00  0.00    -0.029 C 
ATOM      6  C   UNL     1      89.791  47.711  42.888  0.00  0.00    -0.023 C 
ATOM      7  C   UNL     1      88.849  49.435  41.290  0.00  0.00    -0.031 C 
ATOM      8  C   UNL     1      88.114  50.732  41.190  0.00  0.00    -0.084 C 
ATOM      9  C   UNL     1      86.990  50.929  41.902  0.00  0.00    -0.066 C 
ATOM     10  C   UNL     1      86.475  49.793  42.796  0.00  0.00    -0.014 C 
ATOM     11  C   UNL     1      85.267  50.219  43.708  0.00  0.00    -0.045 C 
ATOM     12  C   UNL     1      84.300  51.244  43.076  0.00  0.00    -0.046 C 
ATOM     13  C   UNL     1      85.068  52.474  42.531  0.00  0.00    -0.022 C 
ATOM     14  C   UNL     1      85.976  51.946  41.416  0.00  0.00    -0.014 C 
ATOM     15  C   UNL     1      86.433  53.186  40.660  0.00  0.00    -0.046 C 
ATOM     16  C   UNL     1      85.209  54.115  40.700  0.00  0.00    -0.049 C 
ATOM     17  C   UNL     1      84.215  53.502  41.722  0.00  0.00    -0.032 C 
ATOM     18  C   UNL     1      85.890  53.159  43.661  0.00  0.00    -0.059 C 
ATOM     19  C   UNL     1      87.938  49.689  44.949  0.00  0.00    -0.059 C 
ENDROOT
BRANCH   1  20
ATOM     20  O   UNL     1      89.485  45.324  43.003  0.00  0.00    -0.392 OA
ATOM     21  H   UNL     1      90.159  44.924  42.431  0.00  0.00    +0.000 HD
ENDBRANCH   1  20
BRANCH  17  22
ATOM     22  C   UNL     1      83.299  54.574  42.424  0.00  0.00    -0.041 C 
ATOM     23  C   UNL     1      81.812  54.591  42.009  0.00  0.00    -0.062 C 
BRANCH  22  24
ATOM     24  C   UNL     1      83.847  56.026  42.375  0.00  0.00    -0.050 C 
BRANCH  24  25
ATOM     25  C   UNL     1      84.913  56.397  43.430  0.00  0.00    -0.050 C 
BRANCH  25  26
ATOM     26  C   UNL     1      84.358  56.953  44.771  0.00  0.00    -0.042 C 
ATOM     27  C   UNL     1      84.921  58.355  45.067  0.00  0.00    -0.062 C 
BRANCH  26  28
ATOM     28  C   UNL     1      84.594  55.986  45.975  0.00  0.00    -0.044 C 
ATOM     29  C   UNL     1      86.091  55.812  46.288  0.00  0.00    -0.062 C 
ATOM     30  C   UNL     1      83.831  56.385  47.248  0.00  0.00    -0.062 C 
ENDBRANCH  26  28
ENDBRANCH  25  26
ENDBRANCH  24  25
ENDBRANCH  22  24
ENDBRANCH  17  22
TORSDOF 6
ENDMDL
MODEL 9
REMARK VINA RESULT:    -7.867      1.853      3.474
REMARK INTER + INTRA:         -10.996
REMARK INTER:                 -10.397
REMARK INTRA:                  -0.599
REMARK UNBOUND:                -0.599
REMARK  Name = 
REMARK  12 active torsions:
REMARK  status: ('A' for Active; 'I' for Inactive)
REMARK    1  A    between atoms: O_1  and  C_2
REMARK    2  A    between atoms: C_5  and  C_29
REMARK    3  A    between atoms: C_14  and  C_28
REMARK    4  A    between atoms: C_18  and  C_19
REMARK    5  A    between atoms: C_19  and  C_20
REMARK    6  A    between atoms: C_19  and  C_27
REMARK    7  A    between atoms: C_20  and  C_21
REMARK    8  A    between atoms: C_21  and  C_22
REMARK    9  A    between atoms: C_22  and  C_23
REMARK   10  A    between atoms: C_22  and  C_26
REMARK   11  A    between atoms: C_23  and  C_24
REMARK   12  A    between atoms: C_23  and  C_25
REMARK                            x       y       z     vdW  Elec       q    Type
REMARK                         _______ _______ _______ _____ _____    ______ ____
ROOT
ATOM      1  C   UNL     1      84.148  57.770  46.168  0.00  0.00    +0.056 C 
ATOM      2  C   UNL     1      83.608  56.794  45.101  0.00  0.00    -0.026 C 
ATOM      3  C   UNL     1      84.697  56.347  44.120  0.00  0.00    -0.044 C 
ATOM      4  C   UNL     1      85.850  55.552  44.823  0.00  0.00    -0.022 C 
ATOM      5  C   UNL     1      86.170  56.174  46.251  0.00  0.00    -0.029 C 
ATOM      6  C   UNL     1      85.671  57.628  46.392  0.00  0.00    -0.023 C 
ATOM      7  C   UNL     1      85.674  55.314  47.421  0.00  0.00    -0.031 C 
ATOM      8  C   UNL     1      86.186  53.918  47.278  0.00  0.00    -0.084 C 
ATOM      9  C   UNL     1      86.094  53.280  46.098  0.00  0.00    -0.066 C 
ATOM     10  C   UNL     1      85.439  54.008  44.916  0.00  0.00    -0.014 C 
ATOM     11  C   UNL     1      85.563  53.226  43.559  0.00  0.00    -0.045 C 
ATOM     12  C   UNL     1      85.509  51.688  43.682  0.00  0.00    -0.046 C 
ATOM     13  C   UNL     1      86.526  51.176  44.733  0.00  0.00    -0.022 C 
ATOM     14  C   UNL     1      86.079  51.765  46.075  0.00  0.00    -0.014 C 
ATOM     15  C   UNL     1      86.845  50.972  47.126  0.00  0.00    -0.046 C 
ATOM     16  C   UNL     1      86.910  49.552  46.545  0.00  0.00    -0.049 C 
ATOM     17  C   UNL     1      86.449  49.653  45.066  0.00  0.00    -0.032 C 
ATOM     18  C   UNL     1      87.972  51.620  44.368  0.00  0.00    -0.059 C 
ATOM     19  C   UNL     1      87.128  55.745  43.959  0.00  0.00    -0.059 C 
ENDROOT
BRANCH   1  20
ATOM     20  O   UNL     1      83.852  59.088  45.784  0.00  0.00    -0.392 OA
ATOM     21  H   UNL     1      84.027  59.197  44.836  0.00  0.00    +0.000 HD
ENDBRANCH   1  20
BRANCH  17  22
ATOM     22  C   UNL     1      87.086  48.552  44.136  0.00  0.00    -0.041 C 
ATOM     23  C   UNL     1      88.494  48.850  43.578  0.00  0.00    -0.062 C 
BRANCH  22  24
ATOM     24  C   UNL     1      86.176  48.083  42.970  0.00  0.00    -0.050 C 
BRANCH  24  25
ATOM     25  C   UNL     1      85.529  46.687  43.119  0.00  0.00    -0.050 C 
BRANCH  25  26
ATOM     26  C   UNL     1      84.267  46.630  44.024  0.00  0.00    -0.042 C 
ATOM     27  C   UNL     1      83.812  45.177  44.255  0.00  0.00    -0.062 C 
BRANCH  26  28
ATOM     28  C   UNL     1      83.092  47.508  43.486  0.00  0.00    -0.044 C 
ATOM     29  C   UNL     1      81.744  46.771  43.558  0.00  0.00    -0.062 C 
ATOM     30  C   UNL     1      82.982  48.881  44.170  0.00  0.00    -0.062 C 
ENDBRANCH  26  28
ENDBRANCH  25  26
ENDBRANCH  24  25
ENDBRANCH  22  24
ENDBRANCH  17  22
TORSDOF 6
ENDMDL
