MODEL 1
REMARK VINA RESULT:   -10.269      0.000      0.000
REMARK INTER + INTRA:         -13.356
REMARK INTER:                 -12.633
REMARK INTRA:                  -0.723
REMARK UNBOUND:                -0.386
REMARK  Name = 
REMARK  11 active torsions:
REMARK  status: ('A' for Active; 'I' for Inactive)
REMARK    1  A    between atoms: O_1  and  C_2
REMARK    2  A    between atoms: C_5  and  C_29
REMARK    3  A    between atoms: C_13  and  C_27
REMARK    4  A    between atoms: C_17  and  C_18
REMARK    5  A    between atoms: C_18  and  C_19
REMARK    6  A    between atoms: C_18  and  C_26
REMARK    7  A    between atoms: C_20  and  C_21
REMARK    8  A    between atoms: C_21  and  C_22
REMARK    9  A    between atoms: C_21  and  C_25
REMARK   10  A    between atoms: C_22  and  C_23
REMARK   11  A    between atoms: C_22  and  C_24
REMARK                            x       y       z     vdW  Elec       q    Type
REMARK                         _______ _______ _______ _____ _____    ______ ____
ROOT
ATOM      1  C   UNL     1      89.519  51.573  39.980  0.00  0.00    +0.059 C 
ATOM      2  C   UNL     1      89.746  52.867  40.760  0.00  0.00    -0.026 C 
ATOM      3  C   UNL     1      88.515  53.233  41.597  0.00  0.00    -0.041 C 
ATOM      4  C   UNL     1      87.886  52.048  42.427  0.00  0.00    -0.004 C 
ATOM      5  C   UNL     1      88.656  50.732  42.235  0.00  0.00    -0.061 C 
ATOM      6  C   UNL     1      88.589  49.772  43.171  0.00  0.00    -0.062 C 
ATOM      7  C   UNL     1      87.970  50.005  44.481  0.00  0.00    -0.062 C 
ATOM      8  C   UNL     1      87.587  51.230  44.862  0.00  0.00    -0.062 C 
ATOM      9  C   UNL     1      87.874  52.433  43.963  0.00  0.00    -0.010 C 
ATOM     10  C   UNL     1      86.952  53.658  44.298  0.00  0.00    -0.045 C 
ATOM     11  C   UNL     1      86.701  53.880  45.807  0.00  0.00    -0.046 C 
ATOM     12  C   UNL     1      86.202  52.581  46.489  0.00  0.00    -0.022 C 
ATOM     13  C   UNL     1      87.309  51.536  46.315  0.00  0.00    -0.014 C 
ATOM     14  C   UNL     1      86.950  50.423  47.294  0.00  0.00    -0.046 C 
ATOM     15  C   UNL     1      86.338  51.163  48.496  0.00  0.00    -0.049 C 
ATOM     16  C   UNL     1      86.122  52.631  48.043  0.00  0.00    -0.029 C 
ATOM     17  C   UNL     1      84.859  52.113  45.856  0.00  0.00    -0.059 C 
ATOM     18  C   UNL     1      89.390  50.396  40.951  0.00  0.00    -0.005 C 
ATOM     19  C   UNL     1      86.446  51.771  41.915  0.00  0.00    -0.055 C 
ENDROOT
BRANCH   1  20
ATOM     20  O   UNL     1      88.370  51.669  39.176  0.00  0.00    -0.391 OA
ATOM     21  H   UNL     1      88.379  50.959  38.514  0.00  0.00    +0.000 HD
ENDBRANCH   1  20
BRANCH  16  22
ATOM     22  C   UNL     1      84.956  53.391  48.768  0.00  0.00    -0.022 C 
ATOM     23  C   UNL     1      83.862  52.537  49.439  0.00  0.00    -0.059 C 
BRANCH  22  24
ATOM     24  C   UNL     1      84.314  54.408  47.852  0.00  0.00    -0.085 C 
ATOM     25  C   UNL     1      84.674  55.701  47.872  0.00  0.00    -0.085 C 
BRANCH  25  26
ATOM     26  C   UNL     1      84.089  56.697  46.895  0.00  0.00    -0.023 C 
ATOM     27  C   UNL     1      82.646  56.298  46.544  0.00  0.00    -0.059 C 
BRANCH  26  28
ATOM     28  C   UNL     1      85.011  56.873  45.651  0.00  0.00    -0.041 C 
ATOM     29  C   UNL     1      84.418  56.273  44.366  0.00  0.00    -0.062 C 
ATOM     30  C   UNL     1      85.399  58.341  45.425  0.00  0.00    -0.062 C 
ENDBRANCH  26  28
ENDBRANCH  25  26
ENDBRANCH  22  24
ENDBRANCH  16  22
TORSDOF 5
ENDMDL
MODEL 2
REMARK VINA RESULT:   -10.118      3.330      8.356
REMARK INTER + INTRA:         -13.166
REMARK INTER:                 -13.047
REMARK INTRA:                  -0.119
REMARK UNBOUND:                -0.386
REMARK  Name = 
REMARK  11 active torsions:
REMARK  status: ('A' for Active; 'I' for Inactive)
REMARK    1  A    between atoms: O_1  and  C_2
REMARK    2  A    between atoms: C_5  and  C_29
REMARK    3  A    between atoms: C_13  and  C_27
REMARK    4  A    between atoms: C_17  and  C_18
REMARK    5  A    between atoms: C_18  and  C_19
REMARK    6  A    between atoms: C_18  and  C_26
REMARK    7  A    between atoms: C_20  and  C_21
REMARK    8  A    between atoms: C_21  and  C_22
REMARK    9  A    between atoms: C_21  and  C_25
REMARK   10  A    between atoms: C_22  and  C_23
REMARK   11  A    between atoms: C_22  and  C_24
REMARK                            x       y       z     vdW  Elec       q    Type
REMARK                         _______ _______ _______ _____ _____    ______ ____
ROOT
ATOM      1  C   UNL     1      84.523  55.435  47.330  0.00  0.00    +0.059 C 
ATOM      2  C   UNL     1      85.715  54.712  47.953  0.00  0.00    -0.026 C 
ATOM      3  C   UNL     1      85.837  53.282  47.414  0.00  0.00    -0.041 C 
ATOM      4  C   UNL     1      85.705  53.136  45.848  0.00  0.00    -0.004 C 
ATOM      5  C   UNL     1      85.482  54.491  45.156  0.00  0.00    -0.061 C 
ATOM      6  C   UNL     1      85.809  54.647  43.864  0.00  0.00    -0.062 C 
ATOM      7  C   UNL     1      86.569  53.631  43.126  0.00  0.00    -0.062 C 
ATOM      8  C   UNL     1      87.109  52.575  43.750  0.00  0.00    -0.062 C 
ATOM      9  C   UNL     1      87.015  52.459  45.272  0.00  0.00    -0.010 C 
ATOM     10  C   UNL     1      87.234  50.987  45.770  0.00  0.00    -0.045 C 
ATOM     11  C   UNL     1      88.337  50.210  45.015  0.00  0.00    -0.046 C 
ATOM     12  C   UNL     1      88.118  50.273  43.482  0.00  0.00    -0.022 C 
ATOM     13  C   UNL     1      88.186  51.751  43.085  0.00  0.00    -0.014 C 
ATOM     14  C   UNL     1      88.336  51.740  41.567  0.00  0.00    -0.046 C 
ATOM     15  C   UNL     1      89.203  50.501  41.285  0.00  0.00    -0.049 C 
ATOM     16  C   UNL     1      89.282  49.709  42.617  0.00  0.00    -0.029 C 
ATOM     17  C   UNL     1      86.751  49.633  43.099  0.00  0.00    -0.059 C 
ATOM     18  C   UNL     1      84.764  55.643  45.832  0.00  0.00    -0.005 C 
ATOM     19  C   UNL     1      84.450  52.283  45.517  0.00  0.00    -0.055 C 
ENDROOT
BRANCH   1  20
ATOM     20  O   UNL     1      83.335  54.713  47.535  0.00  0.00    -0.391 OA
ATOM     21  H   UNL     1      83.463  53.792  47.255  0.00  0.00    +0.000 HD
ENDBRANCH   1  20
BRANCH  16  22
ATOM     22  C   UNL     1      89.498  48.162  42.464  0.00  0.00    -0.022 C 
ATOM     23  C   UNL     1      90.452  47.685  41.351  0.00  0.00    -0.059 C 
BRANCH  22  24
ATOM     24  C   UNL     1      88.179  47.433  42.349  0.00  0.00    -0.085 C 
ATOM     25  C   UNL     1      88.120  46.121  42.072  0.00  0.00    -0.085 C 
BRANCH  25  26
ATOM     26  C   UNL     1      86.801  45.381  42.043  0.00  0.00    -0.023 C 
ATOM     27  C   UNL     1      85.688  46.275  42.615  0.00  0.00    -0.059 C 
BRANCH  26  28
ATOM     28  C   UNL     1      86.917  43.996  42.747  0.00  0.00    -0.041 C 
ATOM     29  C   UNL     1      88.347  43.664  43.204  0.00  0.00    -0.062 C 
ATOM     30  C   UNL     1      85.937  43.863  43.922  0.00  0.00    -0.062 C 
ENDBRANCH  26  28
ENDBRANCH  25  26
ENDBRANCH  22  24
ENDBRANCH  16  22
TORSDOF 5
ENDMDL
MODEL 3
REMARK VINA RESULT:    -9.844      2.532      7.190
REMARK INTER + INTRA:         -12.820
REMARK INTER:                 -12.224
REMARK INTRA:                  -0.596
REMARK UNBOUND:                -0.386
REMARK  Name = 
REMARK  11 active torsions:
REMARK  status: ('A' for Active; 'I' for Inactive)
REMARK    1  A    between atoms: O_1  and  C_2
REMARK    2  A    between atoms: C_5  and  C_29
REMARK    3  A    between atoms: C_13  and  C_27
REMARK    4  A    between atoms: C_17  and  C_18
REMARK    5  A    between atoms: C_18  and  C_19
REMARK    6  A    between atoms: C_18  and  C_26
REMARK    7  A    between atoms: C_20  and  C_21
REMARK    8  A    between atoms: C_21  and  C_22
REMARK    9  A    between atoms: C_21  and  C_25
REMARK   10  A    between atoms: C_22  and  C_23
REMARK   11  A    between atoms: C_22  and  C_24
REMARK                            x       y       z     vdW  Elec       q    Type
REMARK                         _______ _______ _______ _____ _____    ______ ____
ROOT
ATOM      1  C   UNL     1      85.131  58.428  45.083  0.00  0.00    +0.059 C 
ATOM      2  C   UNL     1      84.056  57.615  44.365  0.00  0.00    -0.026 C 
ATOM      3  C   UNL     1      84.665  56.407  43.643  0.00  0.00    -0.041 C 
ATOM      4  C   UNL     1      85.694  55.562  44.490  0.00  0.00    -0.004 C 
ATOM      5  C   UNL     1      85.880  56.127  45.908  0.00  0.00    -0.061 C 
ATOM      6  C   UNL     1      86.313  55.329  46.897  0.00  0.00    -0.062 C 
ATOM      7  C   UNL     1      86.425  53.875  46.730  0.00  0.00    -0.062 C 
ATOM      8  C   UNL     1      85.949  53.260  45.640  0.00  0.00    -0.062 C 
ATOM      9  C   UNL     1      85.193  54.063  44.581  0.00  0.00    -0.010 C 
ATOM     10  C   UNL     1      85.153  53.328  43.194  0.00  0.00    -0.045 C 
ATOM     11  C   UNL     1      84.942  51.799  43.283  0.00  0.00    -0.046 C 
ATOM     12  C   UNL     1      85.962  51.148  44.252  0.00  0.00    -0.022 C 
ATOM     13  C   UNL     1      85.720  51.767  45.632  0.00  0.00    -0.014 C 
ATOM     14  C   UNL     1      86.466  50.857  46.603  0.00  0.00    -0.046 C 
ATOM     15  C   UNL     1      86.298  49.451  46.001  0.00  0.00    -0.049 C 
ATOM     16  C   UNL     1      85.706  49.648  44.582  0.00  0.00    -0.029 C 
ATOM     17  C   UNL     1      87.417  51.389  43.755  0.00  0.00    -0.059 C 
ATOM     18  C   UNL     1      85.732  57.602  46.224  0.00  0.00    -0.005 C 
ATOM     19  C   UNL     1      87.094  55.639  43.820  0.00  0.00    -0.055 C 
ENDROOT
BRANCH   1  20
ATOM     20  O   UNL     1      86.138  58.828  44.188  0.00  0.00    -0.391 OA
ATOM     21  H   UNL     1      86.964  58.977  44.676  0.00  0.00    +0.000 HD
ENDBRANCH   1  20
BRANCH  16  22
ATOM     22  C   UNL     1      86.056  48.522  43.546  0.00  0.00    -0.022 C 
ATOM     23  C   UNL     1      85.556  47.097  43.853  0.00  0.00    -0.059 C 
BRANCH  22  24
ATOM     24  C   UNL     1      87.539  48.488  43.256  0.00  0.00    -0.085 C 
ATOM     25  C   UNL     1      88.022  47.990  42.107  0.00  0.00    -0.085 C 
BRANCH  25  26
ATOM     26  C   UNL     1      89.499  48.037  41.787  0.00  0.00    -0.023 C 
ATOM     27  C   UNL     1      90.170  46.723  42.221  0.00  0.00    -0.059 C 
BRANCH  26  28
ATOM     28  C   UNL     1      90.166  49.310  42.390  0.00  0.00    -0.041 C 
ATOM     29  C   UNL     1      91.606  49.070  42.872  0.00  0.00    -0.062 C 
ATOM     30  C   UNL     1      90.118  50.500  41.422  0.00  0.00    -0.062 C 
ENDBRANCH  26  28
ENDBRANCH  25  26
ENDBRANCH  22  24
ENDBRANCH  16  22
TORSDOF 5
ENDMDL
MODEL 4
REMARK VINA RESULT:    -9.401      3.509      7.158
REMARK INTER + INTRA:         -12.259
REMARK INTER:                 -11.772
REMARK INTRA:                  -0.487
REMARK UNBOUND:                -0.386
REMARK  Name = 
REMARK  11 active torsions:
REMARK  status: ('A' for Active; 'I' for Inactive)
REMARK    1  A    between atoms: O_1  and  C_2
REMARK    2  A    between atoms: C_5  and  C_29
REMARK    3  A    between atoms: C_13  and  C_27
REMARK    4  A    between atoms: C_17  and  C_18
REMARK    5  A    between atoms: C_18  and  C_19
REMARK    6  A    between atoms: C_18  and  C_26
REMARK    7  A    between atoms: C_20  and  C_21
REMARK    8  A    between atoms: C_21  and  C_22
REMARK    9  A    between atoms: C_21  and  C_25
REMARK   10  A    between atoms: C_22  and  C_23
REMARK   11  A    between atoms: C_22  and  C_24
REMARK                            x       y       z     vdW  Elec       q    Type
REMARK                         _______ _______ _______ _____ _____    ______ ____
ROOT
ATOM      1  C   UNL     1      85.020  58.418  44.898  0.00  0.00    +0.059 C 
ATOM      2  C   UNL     1      84.103  57.509  44.082  0.00  0.00    -0.026 C 
ATOM      3  C   UNL     1      84.875  56.315  43.507  0.00  0.00    -0.041 C 
ATOM      4  C   UNL     1      85.826  55.573  44.524  0.00  0.00    -0.004 C 
ATOM      5  C   UNL     1      85.783  56.205  45.925  0.00  0.00    -0.061 C 
ATOM      6  C   UNL     1      86.123  55.477  47.001  0.00  0.00    -0.062 C 
ATOM      7  C   UNL     1      86.341  54.027  46.921  0.00  0.00    -0.062 C 
ATOM      8  C   UNL     1      86.055  53.340  45.808  0.00  0.00    -0.062 C 
ATOM      9  C   UNL     1      85.406  54.050  44.620  0.00  0.00    -0.010 C 
ATOM     10  C   UNL     1      85.599  53.259  43.277  0.00  0.00    -0.045 C 
ATOM     11  C   UNL     1      85.466  51.724  43.411  0.00  0.00    -0.046 C 
ATOM     12  C   UNL     1      86.381  51.179  44.538  0.00  0.00    -0.022 C 
ATOM     13  C   UNL     1      85.917  51.836  45.842  0.00  0.00    -0.014 C 
ATOM     14  C   UNL     1      86.575  51.015  46.946  0.00  0.00    -0.046 C 
ATOM     15  C   UNL     1      86.574  49.579  46.397  0.00  0.00    -0.049 C 
ATOM     16  C   UNL     1      86.170  49.681  44.902  0.00  0.00    -0.029 C 
ATOM     17  C   UNL     1      87.874  51.494  44.229  0.00  0.00    -0.059 C 
ATOM     18  C   UNL     1      85.508  57.679  46.147  0.00  0.00    -0.005 C 
ATOM     19  C   UNL     1      87.297  55.713  44.045  0.00  0.00    -0.055 C 
ENDROOT
BRANCH   1  20
ATOM     20  O   UNL     1      86.115  58.846  44.127  0.00  0.00    -0.391 OA
ATOM     21  H   UNL     1      86.025  59.793  43.934  0.00  0.00    +0.000 HD
ENDBRANCH   1  20
BRANCH  16  22
ATOM     22  C   UNL     1      86.724  48.539  43.979  0.00  0.00    -0.022 C 
ATOM     23  C   UNL     1      87.173  48.932  42.558  0.00  0.00    -0.059 C 
BRANCH  22  24
ATOM     24  C   UNL     1      85.757  47.380  43.903  0.00  0.00    -0.085 C 
ATOM     25  C   UNL     1      84.463  47.560  43.597  0.00  0.00    -0.085 C 
BRANCH  25  26
ATOM     26  C   UNL     1      83.520  46.388  43.438  0.00  0.00    -0.023 C 
ATOM     27  C   UNL     1      84.144  45.338  42.503  0.00  0.00    -0.059 C 
BRANCH  26  28
ATOM     28  C   UNL     1      82.104  46.861  42.993  0.00  0.00    -0.041 C 
ATOM     29  C   UNL     1      80.963  46.122  43.712  0.00  0.00    -0.062 C 
ATOM     30  C   UNL     1      81.931  48.379  43.137  0.00  0.00    -0.062 C 
ENDBRANCH  26  28
ENDBRANCH  25  26
ENDBRANCH  22  24
ENDBRANCH  16  22
TORSDOF 5
ENDMDL
MODEL 5
REMARK VINA RESULT:    -8.958      2.981      5.063
REMARK INTER + INTRA:         -11.700
REMARK INTER:                 -11.011
REMARK INTRA:                  -0.688
REMARK UNBOUND:                -0.386
REMARK  Name = 
REMARK  11 active torsions:
REMARK  status: ('A' for Active; 'I' for Inactive)
REMARK    1  A    between atoms: O_1  and  C_2
REMARK    2  A    between atoms: C_5  and  C_29
REMARK    3  A    between atoms: C_13  and  C_27
REMARK    4  A    between atoms: C_17  and  C_18
REMARK    5  A    between atoms: C_18  and  C_19
REMARK    6  A    between atoms: C_18  and  C_26
REMARK    7  A    between atoms: C_20  and  C_21
REMARK    8  A    between atoms: C_21  and  C_22
REMARK    9  A    between atoms: C_21  and  C_25
REMARK   10  A    between atoms: C_22  and  C_23
REMARK   11  A    between atoms: C_22  and  C_24
REMARK                            x       y       z     vdW  Elec       q    Type
REMARK                         _______ _______ _______ _____ _____    ______ ____
ROOT
ATOM      1  C   UNL     1      85.947  45.318  42.966  0.00  0.00    +0.059 C 
ATOM      2  C   UNL     1      84.613  45.953  42.577  0.00  0.00    -0.026 C 
ATOM      3  C   UNL     1      84.339  47.214  43.405  0.00  0.00    -0.041 C 
ATOM      4  C   UNL     1      85.550  48.217  43.532  0.00  0.00    -0.004 C 
ATOM      5  C   UNL     1      86.794  47.722  42.774  0.00  0.00    -0.061 C 
ATOM      6  C   UNL     1      87.726  48.599  42.369  0.00  0.00    -0.062 C 
ATOM      7  C   UNL     1      87.510  50.050  42.437  0.00  0.00    -0.062 C 
ATOM      8  C   UNL     1      86.315  50.562  42.756  0.00  0.00    -0.062 C 
ATOM      9  C   UNL     1      85.120  49.633  42.970  0.00  0.00    -0.010 C 
ATOM     10  C   UNL     1      83.977  50.318  43.800  0.00  0.00    -0.045 C 
ATOM     11  C   UNL     1      83.731  51.804  43.452  0.00  0.00    -0.046 C 
ATOM     12  C   UNL     1      85.049  52.617  43.507  0.00  0.00    -0.022 C 
ATOM     13  C   UNL     1      85.990  52.008  42.463  0.00  0.00    -0.014 C 
ATOM     14  C   UNL     1      87.101  53.039  42.291  0.00  0.00    -0.046 C 
ATOM     15  C   UNL     1      86.384  54.391  42.446  0.00  0.00    -0.049 C 
ATOM     16  C   UNL     1      84.958  54.075  42.969  0.00  0.00    -0.029 C 
ATOM     17  C   UNL     1      85.662  52.568  44.938  0.00  0.00    -0.059 C 
ATOM     18  C   UNL     1      87.099  46.250  42.582  0.00  0.00    -0.005 C 
ATOM     19  C   UNL     1      85.978  48.318  45.021  0.00  0.00    -0.055 C 
ENDROOT
BRANCH   1  20
ATOM     20  O   UNL     1      85.986  45.038  44.343  0.00  0.00    -0.391 OA
ATOM     21  H   UNL     1      85.135  45.276  44.745  0.00  0.00    +0.000 HD
ENDBRANCH   1  20
BRANCH  16  22
ATOM     22  C   UNL     1      84.289  55.210  43.821  0.00  0.00    -0.022 C 
ATOM     23  C   UNL     1      84.115  56.589  43.153  0.00  0.00    -0.059 C 
BRANCH  22  24
ATOM     24  C   UNL     1      84.983  55.376  45.153  0.00  0.00    -0.085 C 
ATOM     25  C   UNL     1      84.292  55.533  46.293  0.00  0.00    -0.085 C 
BRANCH  25  26
ATOM     26  C   UNL     1      84.991  55.612  47.632  0.00  0.00    -0.023 C 
ATOM     27  C   UNL     1      86.495  55.857  47.423  0.00  0.00    -0.059 C 
BRANCH  26  28
ATOM     28  C   UNL     1      84.675  54.362  48.507  0.00  0.00    -0.041 C 
ATOM     29  C   UNL     1      83.402  53.619  48.068  0.00  0.00    -0.062 C 
ATOM     30  C   UNL     1      85.862  53.392  48.577  0.00  0.00    -0.062 C 
ENDBRANCH  26  28
ENDBRANCH  25  26
ENDBRANCH  22  24
ENDBRANCH  16  22
TORSDOF 5
ENDMDL
MODEL 6
REMARK VINA RESULT:    -8.685      2.245      3.877
REMARK INTER + INTRA:         -11.355
REMARK INTER:                 -10.876
REMARK INTRA:                  -0.479
REMARK UNBOUND:                -0.386
REMARK  Name = 
REMARK  11 active torsions:
REMARK  status: ('A' for Active; 'I' for Inactive)
REMARK    1  A    between atoms: O_1  and  C_2
REMARK    2  A    between atoms: C_5  and  C_29
REMARK    3  A    between atoms: C_13  and  C_27
REMARK    4  A    between atoms: C_17  and  C_18
REMARK    5  A    between atoms: C_18  and  C_19
REMARK    6  A    between atoms: C_18  and  C_26
REMARK    7  A    between atoms: C_20  and  C_21
REMARK    8  A    between atoms: C_21  and  C_22
REMARK    9  A    between atoms: C_21  and  C_25
REMARK   10  A    between atoms: C_22  and  C_23
REMARK   11  A    between atoms: C_22  and  C_24
REMARK                            x       y       z     vdW  Elec       q    Type
REMARK                         _______ _______ _______ _____ _____    ______ ____
ROOT
ATOM      1  C   UNL     1      90.187  48.116  41.785  0.00  0.00    +0.059 C 
ATOM      2  C   UNL     1      90.530  49.532  41.326  0.00  0.00    -0.026 C 
ATOM      3  C   UNL     1      89.280  50.419  41.285  0.00  0.00    -0.041 C 
ATOM      4  C   UNL     1      88.346  50.330  42.553  0.00  0.00    -0.004 C 
ATOM      5  C   UNL     1      88.892  49.355  43.609  0.00  0.00    -0.061 C 
ATOM      6  C   UNL     1      88.531  49.486  44.895  0.00  0.00    -0.062 C 
ATOM      7  C   UNL     1      87.790  50.657  45.379  0.00  0.00    -0.062 C 
ATOM      8  C   UNL     1      87.580  51.722  44.594  0.00  0.00    -0.062 C 
ATOM      9  C   UNL     1      88.194  51.770  43.194  0.00  0.00    -0.010 C 
ATOM     10  C   UNL     1      87.465  52.800  42.261  0.00  0.00    -0.045 C 
ATOM     11  C   UNL     1      87.054  54.118  42.956  0.00  0.00    -0.046 C 
ATOM     12  C   UNL     1      86.247  53.842  44.250  0.00  0.00    -0.022 C 
ATOM     13  C   UNL     1      87.166  53.049  45.185  0.00  0.00    -0.014 C 
ATOM     14  C   UNL     1      86.488  53.119  46.549  0.00  0.00    -0.046 C 
ATOM     15  C   UNL     1      85.858  54.522  46.583  0.00  0.00    -0.049 C 
ATOM     16  C   UNL     1      85.966  55.086  45.142  0.00  0.00    -0.029 C 
ATOM     17  C   UNL     1      84.941  53.060  43.922  0.00  0.00    -0.059 C 
ATOM     18  C   UNL     1      89.723  48.140  43.244  0.00  0.00    -0.005 C 
ATOM     19  C   UNL     1      86.963  49.763  42.133  0.00  0.00    -0.055 C 
ENDROOT
BRANCH   1  20
ATOM     20  O   UNL     1      89.193  47.552  40.967  0.00  0.00    -0.391 OA
ATOM     21  H   UNL     1      89.281  47.899  40.065  0.00  0.00    +0.000 HD
ENDBRANCH   1  20
BRANCH  16  22
ATOM     22  C   UNL     1      84.864  56.131  44.746  0.00  0.00    -0.022 C 
ATOM     23  C   UNL     1      83.920  56.622  45.861  0.00  0.00    -0.059 C 
BRANCH  22  24
ATOM     24  C   UNL     1      84.050  55.648  43.568  0.00  0.00    -0.085 C 
ATOM     25  C   UNL     1      84.282  56.090  42.322  0.00  0.00    -0.085 C 
BRANCH  25  26
ATOM     26  C   UNL     1      83.521  55.538  41.137  0.00  0.00    -0.023 C 
ATOM     27  C   UNL     1      82.568  54.423  41.600  0.00  0.00    -0.059 C 
BRANCH  26  28
ATOM     28  C   UNL     1      84.491  55.101  39.999  0.00  0.00    -0.041 C 
ATOM     29  C   UNL     1      84.855  53.608  40.051  0.00  0.00    -0.062 C 
ATOM     30  C   UNL     1      83.953  55.471  38.609  0.00  0.00    -0.062 C 
ENDBRANCH  26  28
ENDBRANCH  25  26
ENDBRANCH  22  24
ENDBRANCH  16  22
TORSDOF 5
ENDMDL
MODEL 7
REMARK VINA RESULT:    -8.582      4.494      8.315
REMARK INTER + INTRA:         -11.225
REMARK INTER:                 -10.376
REMARK INTRA:                  -0.849
REMARK UNBOUND:                -0.386
REMARK  Name = 
REMARK  11 active torsions:
REMARK  status: ('A' for Active; 'I' for Inactive)
REMARK    1  A    between atoms: O_1  and  C_2
REMARK    2  A    between atoms: C_5  and  C_29
REMARK    3  A    between atoms: C_13  and  C_27
REMARK    4  A    between atoms: C_17  and  C_18
REMARK    5  A    between atoms: C_18  and  C_19
REMARK    6  A    between atoms: C_18  and  C_26
REMARK    7  A    between atoms: C_20  and  C_21
REMARK    8  A    between atoms: C_21  and  C_22
REMARK    9  A    between atoms: C_21  and  C_25
REMARK   10  A    between atoms: C_22  and  C_23
REMARK   11  A    between atoms: C_22  and  C_24
REMARK                            x       y       z     vdW  Elec       q    Type
REMARK                         _______ _______ _______ _____ _____    ______ ____
ROOT
ATOM      1  C   UNL     1      79.667  46.483  44.043  0.00  0.00    +0.059 C 
ATOM      2  C   UNL     1      80.769  46.464  45.101  0.00  0.00    -0.026 C 
ATOM      3  C   UNL     1      82.135  46.784  44.482  0.00  0.00    -0.041 C 
ATOM      4  C   UNL     1      82.161  48.022  43.504  0.00  0.00    -0.004 C 
ATOM      5  C   UNL     1      80.780  48.683  43.369  0.00  0.00    -0.061 C 
ATOM      6  C   UNL     1      80.685  49.968  42.992  0.00  0.00    -0.062 C 
ATOM      7  C   UNL     1      81.862  50.840  42.898  0.00  0.00    -0.062 C 
ATOM      8  C   UNL     1      83.062  50.440  43.339  0.00  0.00    -0.062 C 
ATOM      9  C   UNL     1      83.206  49.087  44.035  0.00  0.00    -0.010 C 
ATOM     10  C   UNL     1      84.689  48.570  44.028  0.00  0.00    -0.045 C 
ATOM     11  C   UNL     1      85.752  49.666  44.270  0.00  0.00    -0.046 C 
ATOM     12  C   UNL     1      85.554  50.862  43.304  0.00  0.00    -0.022 C 
ATOM     13  C   UNL     1      84.165  51.440  43.592  0.00  0.00    -0.014 C 
ATOM     14  C   UNL     1      84.160  52.802  42.904  0.00  0.00    -0.046 C 
ATOM     15  C   UNL     1      85.602  53.311  43.070  0.00  0.00    -0.049 C 
ATOM     16  C   UNL     1      86.432  52.112  43.599  0.00  0.00    -0.029 C 
ATOM     17  C   UNL     1      85.692  50.396  41.824  0.00  0.00    -0.059 C 
ATOM     18  C   UNL     1      79.486  47.905  43.504  0.00  0.00    -0.005 C 
ATOM     19  C   UNL     1      82.538  47.540  42.077  0.00  0.00    -0.055 C 
ENDROOT
BRANCH   1  20
ATOM     20  O   UNL     1      79.966  45.599  42.992  0.00  0.00    -0.391 OA
ATOM     21  H   UNL     1      80.928  45.559  42.867  0.00  0.00    +0.000 HD
ENDBRANCH   1  20
BRANCH  16  22
ATOM     22  C   UNL     1      87.956  52.135  43.225  0.00  0.00    -0.022 C 
ATOM     23  C   UNL     1      88.332  52.621  41.811  0.00  0.00    -0.059 C 
BRANCH  22  24
ATOM     24  C   UNL     1      88.606  50.797  43.490  0.00  0.00    -0.085 C 
ATOM     25  C   UNL     1      89.296  50.147  42.540  0.00  0.00    -0.085 C 
BRANCH  25  26
ATOM     26  C   UNL     1      90.014  48.849  42.836  0.00  0.00    -0.023 C 
ATOM     27  C   UNL     1      91.532  49.095  42.899  0.00  0.00    -0.059 C 
BRANCH  26  28
ATOM     28  C   UNL     1      89.602  47.734  41.830  0.00  0.00    -0.041 C 
ATOM     29  C   UNL     1      90.272  46.380  42.115  0.00  0.00    -0.062 C 
ATOM     30  C   UNL     1      88.078  47.568  41.747  0.00  0.00    -0.062 C 
ENDBRANCH  26  28
ENDBRANCH  25  26
ENDBRANCH  22  24
ENDBRANCH  16  22
TORSDOF 5
ENDMDL
MODEL 8
REMARK VINA RESULT:    -8.413      3.271      7.594
REMARK INTER + INTRA:         -11.011
REMARK INTER:                 -10.626
REMARK INTRA:                  -0.386
REMARK UNBOUND:                -0.386
REMARK  Name = 
REMARK  11 active torsions:
REMARK  status: ('A' for Active; 'I' for Inactive)
REMARK    1  A    between atoms: O_1  and  C_2
REMARK    2  A    between atoms: C_5  and  C_29
REMARK    3  A    between atoms: C_13  and  C_27
REMARK    4  A    between atoms: C_17  and  C_18
REMARK    5  A    between atoms: C_18  and  C_19
REMARK    6  A    between atoms: C_18  and  C_26
REMARK    7  A    between atoms: C_20  and  C_21
REMARK    8  A    between atoms: C_21  and  C_22
REMARK    9  A    between atoms: C_21  and  C_25
REMARK   10  A    between atoms: C_22  and  C_23
REMARK   11  A    between atoms: C_22  and  C_24
REMARK                            x       y       z     vdW  Elec       q    Type
REMARK                         _______ _______ _______ _____ _____    ______ ____
ROOT
ATOM      1  C   UNL     1      84.675  57.399  45.980  0.00  0.00    +0.059 C 
ATOM      2  C   UNL     1      85.955  56.802  46.564  0.00  0.00    -0.026 C 
ATOM      3  C   UNL     1      85.929  55.270  46.501  0.00  0.00    -0.041 C 
ATOM      4  C   UNL     1      85.469  54.658  45.121  0.00  0.00    -0.004 C 
ATOM      5  C   UNL     1      85.137  55.745  44.086  0.00  0.00    -0.061 C 
ATOM      6  C   UNL     1      85.191  55.463  42.775  0.00  0.00    -0.062 C 
ATOM      7  C   UNL     1      85.757  54.205  42.273  0.00  0.00    -0.062 C 
ATOM      8  C   UNL     1      86.391  53.352  43.088  0.00  0.00    -0.062 C 
ATOM      9  C   UNL     1      86.615  53.723  44.554  0.00  0.00    -0.010 C 
ATOM     10  C   UNL     1      86.899  52.465  45.449  0.00  0.00    -0.045 C 
ATOM     11  C   UNL     1      87.802  51.398  44.788  0.00  0.00    -0.046 C 
ATOM     12  C   UNL     1      87.269  51.001  43.388  0.00  0.00    -0.022 C 
ATOM     13  C   UNL     1      87.286  52.270  42.531  0.00  0.00    -0.014 C 
ATOM     14  C   UNL     1      87.115  51.775  41.098  0.00  0.00    -0.046 C 
ATOM     15  C   UNL     1      87.876  50.439  41.071  0.00  0.00    -0.049 C 
ATOM     16  C   UNL     1      88.213  50.095  42.546  0.00  0.00    -0.029 C 
ATOM     17  C   UNL     1      85.838  50.397  43.500  0.00  0.00    -0.059 C 
ATOM     18  C   UNL     1      84.603  57.109  44.478  0.00  0.00    -0.005 C 
ATOM     19  C   UNL     1      84.154  53.859  45.328  0.00  0.00    -0.055 C 
ENDROOT
BRANCH   1  20
ATOM     20  O   UNL     1      83.540  56.884  46.630  0.00  0.00    -0.391 OA
ATOM     21  H   UNL     1      83.281  56.047  46.213  0.00  0.00    +0.000 HD
ENDBRANCH   1  20
BRANCH  16  22
ATOM     22  C   UNL     1      88.358  48.565  42.861  0.00  0.00    -0.022 C 
ATOM     23  C   UNL     1      89.292  47.739  41.954  0.00  0.00    -0.059 C 
BRANCH  22  24
ATOM     24  C   UNL     1      87.007  47.892  42.943  0.00  0.00    -0.085 C 
ATOM     25  C   UNL     1      86.695  47.055  43.944  0.00  0.00    -0.085 C 
BRANCH  25  26
ATOM     26  C   UNL     1      85.313  46.453  44.066  0.00  0.00    -0.023 C 
ATOM     27  C   UNL     1      85.410  44.918  44.067  0.00  0.00    -0.059 C 
BRANCH  26  28
ATOM     28  C   UNL     1      84.354  47.019  42.976  0.00  0.00    -0.041 C 
ATOM     29  C   UNL     1      83.795  45.938  42.037  0.00  0.00    -0.062 C 
ATOM     30  C   UNL     1      83.208  47.839  43.587  0.00  0.00    -0.062 C 
ENDBRANCH  26  28
ENDBRANCH  25  26
ENDBRANCH  22  24
ENDBRANCH  16  22
TORSDOF 5
ENDMDL
MODEL 9
REMARK VINA RESULT:    -8.379      1.699      2.841
REMARK INTER + INTRA:         -10.969
REMARK INTER:                 -10.031
REMARK INTRA:                  -0.938
REMARK UNBOUND:                -0.386
REMARK  Name = 
REMARK  11 active torsions:
REMARK  status: ('A' for Active; 'I' for Inactive)
REMARK    1  A    between atoms: O_1  and  C_2
REMARK    2  A    between atoms: C_5  and  C_29
REMARK    3  A    between atoms: C_13  and  C_27
REMARK    4  A    between atoms: C_17  and  C_18
REMARK    5  A    between atoms: C_18  and  C_19
REMARK    6  A    between atoms: C_18  and  C_26
REMARK    7  A    between atoms: C_20  and  C_21
REMARK    8  A    between atoms: C_21  and  C_22
REMARK    9  A    between atoms: C_21  and  C_25
REMARK   10  A    between atoms: C_22  and  C_23
REMARK   11  A    between atoms: C_22  and  C_24
REMARK                            x       y       z     vdW  Elec       q    Type
REMARK                         _______ _______ _______ _____ _____    ______ ____
ROOT
ATOM      1  C   UNL     1      90.198  47.559  41.390  0.00  0.00    +0.059 C 
ATOM      2  C   UNL     1      90.249  47.343  42.902  0.00  0.00    -0.026 C 
ATOM      3  C   UNL     1      90.097  48.670  43.655  0.00  0.00    -0.041 C 
ATOM      4  C   UNL     1      88.933  49.606  43.147  0.00  0.00    -0.004 C 
ATOM      5  C   UNL     1      88.158  48.984  41.974  0.00  0.00    -0.061 C 
ATOM      6  C   UNL     1      86.898  49.371  41.722  0.00  0.00    -0.062 C 
ATOM      7  C   UNL     1      86.145  50.223  42.651  0.00  0.00    -0.062 C 
ATOM      8  C   UNL     1      86.624  50.522  43.866  0.00  0.00    -0.062 C 
ATOM      9  C   UNL     1      87.936  49.899  44.342  0.00  0.00    -0.010 C 
ATOM     10  C   UNL     1      88.586  50.709  45.519  0.00  0.00    -0.045 C 
ATOM     11  C   UNL     1      87.578  51.249  46.560  0.00  0.00    -0.046 C 
ATOM     12  C   UNL     1      86.436  52.042  45.876  0.00  0.00    -0.022 C 
ATOM     13  C   UNL     1      85.714  51.064  44.943  0.00  0.00    -0.014 C 
ATOM     14  C   UNL     1      84.406  51.762  44.584  0.00  0.00    -0.046 C 
ATOM     15  C   UNL     1      84.022  52.520  45.866  0.00  0.00    -0.049 C 
ATOM     16  C   UNL     1      85.254  52.447  46.805  0.00  0.00    -0.029 C 
ATOM     17  C   UNL     1      87.008  53.266  45.103  0.00  0.00    -0.059 C 
ATOM     18  C   UNL     1      88.804  48.040  40.979  0.00  0.00    -0.005 C 
ATOM     19  C   UNL     1      89.540  50.926  42.597  0.00  0.00    -0.055 C 
ENDROOT
BRANCH   1  20
ATOM     20  O   UNL     1      91.173  48.487  40.984  0.00  0.00    -0.391 OA
ATOM     21  H   UNL     1      90.845  48.987  40.219  0.00  0.00    +0.000 HD
ENDBRANCH   1  20
BRANCH  16  22
ATOM     22  C   UNL     1      85.395  53.637  47.819  0.00  0.00    -0.022 C 
ATOM     23  C   UNL     1      84.679  53.500  49.177  0.00  0.00    -0.059 C 
BRANCH  22  24
ATOM     24  C   UNL     1      85.017  54.951  47.176  0.00  0.00    -0.085 C 
ATOM     25  C   UNL     1      85.934  55.892  46.902  0.00  0.00    -0.085 C 
BRANCH  25  26
ATOM     26  C   UNL     1      85.562  57.168  46.181  0.00  0.00    -0.023 C 
ATOM     27  C   UNL     1      84.103  57.539  46.495  0.00  0.00    -0.059 C 
BRANCH  26  28
ATOM     28  C   UNL     1      85.868  57.064  44.656  0.00  0.00    -0.041 C 
ATOM     29  C   UNL     1      84.768  56.338  43.864  0.00  0.00    -0.062 C 
ATOM     30  C   UNL     1      86.158  58.436  44.032  0.00  0.00    -0.062 C 
ENDBRANCH  26  28
ENDBRANCH  25  26
ENDBRANCH  22  24
ENDBRANCH  16  22
TORSDOF 5
ENDMDL
