MODEL 1
REMARK VINA RESULT:    -9.751      0.000      0.000
REMARK INTER + INTRA:         -12.267
REMARK INTER:                 -11.650
REMARK INTRA:                  -0.618
REMARK UNBOUND:                 0.049
REMARK  Name = 
REMARK  11 active torsions:
REMARK  status: ('A' for Active; 'I' for Inactive)
REMARK    1  A    between atoms: O_1  and  C_2
REMARK    2  A    between atoms: C_5  and  C_29
REMARK    3  A    between atoms: C_13  and  C_27
REMARK    4  A    between atoms: C_17  and  C_18
REMARK    5  A    between atoms: C_18  and  C_19
REMARK    6  A    between atoms: C_18  and  C_26
REMARK    7  A    between atoms: C_20  and  C_21
REMARK    8  A    between atoms: C_21  and  C_22
REMARK    9  A    between atoms: C_21  and  C_25
REMARK   10  A    between atoms: C_22  and  C_23
REMARK   11  A    between atoms: C_22  and  C_24
REMARK                            x       y       z     vdW  Elec       q    Type
REMARK                         _______ _______ _______ _____ _____    ______ ____
ROOT
ATOM      1  C   UNL     1      84.423  57.461  46.043  0.00  0.00    +0.059 C 
ATOM      2  C   UNL     1      84.242  57.200  44.541  0.00  0.00    -0.026 C 
ATOM      3  C   UNL     1      84.199  55.693  44.249  0.00  0.00    -0.041 C 
ATOM      4  C   UNL     1      85.457  54.916  44.752  0.00  0.00    -0.008 C 
ATOM      5  C   UNL     1      85.742  55.331  46.208  0.00  0.00    -0.065 C 
ATOM      6  C   UNL     1      86.169  54.451  47.141  0.00  0.00    -0.084 C 
ATOM      7  C   UNL     1      86.148  52.962  46.954  0.00  0.00    -0.031 C 
ATOM      8  C   UNL     1      86.216  52.546  45.476  0.00  0.00    -0.031 C 
ATOM      9  C   UNL     1      85.169  53.368  44.664  0.00  0.00    -0.029 C 
ATOM     10  C   UNL     1      84.988  52.836  43.205  0.00  0.00    -0.049 C 
ATOM     11  C   UNL     1      84.797  51.303  43.122  0.00  0.00    -0.047 C 
ATOM     12  C   UNL     1      85.929  50.551  43.867  0.00  0.00    -0.026 C 
ATOM     13  C   UNL     1      85.897  51.043  45.323  0.00  0.00    -0.032 C 
ATOM     14  C   UNL     1      86.743  50.045  46.096  0.00  0.00    -0.049 C 
ATOM     15  C   UNL     1      86.492  48.712  45.379  0.00  0.00    -0.049 C 
ATOM     16  C   UNL     1      85.689  49.027  44.087  0.00  0.00    -0.029 C 
ATOM     17  C   UNL     1      87.304  50.792  43.166  0.00  0.00    -0.059 C 
ATOM     18  C   UNL     1      85.706  56.805  46.569  0.00  0.00    -0.005 C 
ATOM     19  C   UNL     1      86.686  55.314  43.888  0.00  0.00    -0.056 C 
ENDROOT
BRANCH   1  20
ATOM     20  O   UNL     1      84.426  58.840  46.312  0.00  0.00    -0.391 OA
ATOM     21  H   UNL     1      84.183  58.989  47.240  0.00  0.00    +0.000 HD
ENDBRANCH   1  20
BRANCH  16  22
ATOM     22  C   UNL     1      86.044  48.043  42.928  0.00  0.00    -0.022 C 
ATOM     23  C   UNL     1      85.262  46.724  43.004  0.00  0.00    -0.059 C 
BRANCH  22  24
ATOM     24  C   UNL     1      87.521  47.714  42.982  0.00  0.00    -0.085 C 
ATOM     25  C   UNL     1      88.246  47.524  41.868  0.00  0.00    -0.085 C 
BRANCH  25  26
ATOM     26  C   UNL     1      89.730  47.233  41.920  0.00  0.00    -0.023 C 
ATOM     27  C   UNL     1      90.032  46.314  43.111  0.00  0.00    -0.059 C 
BRANCH  26  28
ATOM     28  C   UNL     1      90.586  48.532  41.942  0.00  0.00    -0.041 C 
ATOM     29  C   UNL     1      91.060  48.938  43.349  0.00  0.00    -0.062 C 
ATOM     30  C   UNL     1      89.835  49.701  41.283  0.00  0.00    -0.062 C 
ENDBRANCH  26  28
ENDBRANCH  25  26
ENDBRANCH  22  24
ENDBRANCH  16  22
TORSDOF 5
ENDMDL
MODEL 2
REMARK VINA RESULT:    -9.674      1.422      2.360
REMARK INTER + INTRA:         -12.170
REMARK INTER:                 -11.292
REMARK INTRA:                  -0.877
REMARK UNBOUND:                 0.049
REMARK  Name = 
REMARK  11 active torsions:
REMARK  status: ('A' for Active; 'I' for Inactive)
REMARK    1  A    between atoms: O_1  and  C_2
REMARK    2  A    between atoms: C_5  and  C_29
REMARK    3  A    between atoms: C_13  and  C_27
REMARK    4  A    between atoms: C_17  and  C_18
REMARK    5  A    between atoms: C_18  and  C_19
REMARK    6  A    between atoms: C_18  and  C_26
REMARK    7  A    between atoms: C_20  and  C_21
REMARK    8  A    between atoms: C_21  and  C_22
REMARK    9  A    between atoms: C_21  and  C_25
REMARK   10  A    between atoms: C_22  and  C_23
REMARK   11  A    between atoms: C_22  and  C_24
REMARK                            x       y       z     vdW  Elec       q    Type
REMARK                         _______ _______ _______ _____ _____    ______ ____
ROOT
ATOM      1  C   UNL     1      84.750  57.625  45.209  0.00  0.00    +0.059 C 
ATOM      2  C   UNL     1      84.199  57.151  43.857  0.00  0.00    -0.026 C 
ATOM      3  C   UNL     1      84.000  55.628  43.852  0.00  0.00    -0.041 C 
ATOM      4  C   UNL     1      85.295  54.821  44.185  0.00  0.00    -0.008 C 
ATOM      5  C   UNL     1      85.944  55.429  45.443  0.00  0.00    -0.065 C 
ATOM      6  C   UNL     1      86.531  54.669  46.394  0.00  0.00    -0.084 C 
ATOM      7  C   UNL     1      86.379  53.178  46.481  0.00  0.00    -0.031 C 
ATOM      8  C   UNL     1      86.066  52.531  45.123  0.00  0.00    -0.031 C 
ATOM      9  C   UNL     1      84.904  53.313  44.439  0.00  0.00    -0.029 C 
ATOM     10  C   UNL     1      84.348  52.579  43.175  0.00  0.00    -0.049 C 
ATOM     11  C   UNL     1      84.054  51.078  43.408  0.00  0.00    -0.047 C 
ATOM     12  C   UNL     1      85.286  50.345  43.997  0.00  0.00    -0.026 C 
ATOM     13  C   UNL     1      85.633  51.061  45.313  0.00  0.00    -0.032 C 
ATOM     14  C   UNL     1      86.581  50.119  46.037  0.00  0.00    -0.049 C 
ATOM     15  C   UNL     1      86.088  48.721  45.641  0.00  0.00    -0.049 C 
ATOM     16  C   UNL     1      85.018  48.906  44.530  0.00  0.00    -0.029 C 
ATOM     17  C   UNL     1      86.465  50.338  42.972  0.00  0.00    -0.059 C 
ATOM     18  C   UNL     1      86.081  56.938  45.538  0.00  0.00    -0.005 C 
ATOM     19  C   UNL     1      86.301  54.956  43.009  0.00  0.00    -0.056 C 
ENDROOT
BRANCH   1  20
ATOM     20  O   UNL     1      84.898  59.023  45.224  0.00  0.00    -0.391 OA
ATOM     21  H   UNL     1      85.445  59.282  45.983  0.00  0.00    +0.000 HD
ENDBRANCH   1  20
BRANCH  16  22
ATOM     22  C   UNL     1      85.027  47.722  43.512  0.00  0.00    -0.022 C 
ATOM     23  C   UNL     1      83.744  46.880  43.565  0.00  0.00    -0.059 C 
BRANCH  22  24
ATOM     24  C   UNL     1      86.196  46.809  43.813  0.00  0.00    -0.085 C 
ATOM     25  C   UNL     1      87.006  46.353  42.843  0.00  0.00    -0.085 C 
BRANCH  25  26
ATOM     26  C   UNL     1      88.199  45.472  43.147  0.00  0.00    -0.023 C 
ATOM     27  C   UNL     1      89.441  46.026  42.437  0.00  0.00    -0.059 C 
BRANCH  26  28
ATOM     28  C   UNL     1      87.934  43.978  42.801  0.00  0.00    -0.041 C 
ATOM     29  C   UNL     1      86.468  43.675  42.445  0.00  0.00    -0.062 C 
ATOM     30  C   UNL     1      88.400  43.056  43.940  0.00  0.00    -0.062 C 
ENDBRANCH  26  28
ENDBRANCH  25  26
ENDBRANCH  22  24
ENDBRANCH  16  22
TORSDOF 5
ENDMDL
MODEL 3
REMARK VINA RESULT:    -9.654      1.693      3.849
REMARK INTER + INTRA:         -12.145
REMARK INTER:                 -12.728
REMARK INTRA:                   0.583
REMARK UNBOUND:                 0.049
REMARK  Name = 
REMARK  11 active torsions:
REMARK  status: ('A' for Active; 'I' for Inactive)
REMARK    1  A    between atoms: O_1  and  C_2
REMARK    2  A    between atoms: C_5  and  C_29
REMARK    3  A    between atoms: C_13  and  C_27
REMARK    4  A    between atoms: C_17  and  C_18
REMARK    5  A    between atoms: C_18  and  C_19
REMARK    6  A    between atoms: C_18  and  C_26
REMARK    7  A    between atoms: C_20  and  C_21
REMARK    8  A    between atoms: C_21  and  C_22
REMARK    9  A    between atoms: C_21  and  C_25
REMARK   10  A    between atoms: C_22  and  C_23
REMARK   11  A    between atoms: C_22  and  C_24
REMARK                            x       y       z     vdW  Elec       q    Type
REMARK                         _______ _______ _______ _____ _____    ______ ____
ROOT
ATOM      1  C   UNL     1      84.648  55.636  47.139  0.00  0.00    +0.059 C 
ATOM      2  C   UNL     1      84.499  54.242  47.765  0.00  0.00    -0.026 C 
ATOM      3  C   UNL     1      85.549  53.274  47.199  0.00  0.00    -0.041 C 
ATOM      4  C   UNL     1      85.511  53.140  45.643  0.00  0.00    -0.008 C 
ATOM      5  C   UNL     1      85.469  54.552  45.028  0.00  0.00    -0.065 C 
ATOM      6  C   UNL     1      86.139  54.869  43.898  0.00  0.00    -0.084 C 
ATOM      7  C   UNL     1      87.193  53.996  43.282  0.00  0.00    -0.031 C 
ATOM      8  C   UNL     1      87.016  52.510  43.629  0.00  0.00    -0.031 C 
ATOM      9  C   UNL     1      86.801  52.367  45.167  0.00  0.00    -0.029 C 
ATOM     10  C   UNL     1      86.865  50.880  45.646  0.00  0.00    -0.049 C 
ATOM     11  C   UNL     1      88.085  50.103  45.099  0.00  0.00    -0.047 C 
ATOM     12  C   UNL     1      88.178  50.209  43.556  0.00  0.00    -0.026 C 
ATOM     13  C   UNL     1      88.271  51.708  43.225  0.00  0.00    -0.032 C 
ATOM     14  C   UNL     1      88.726  51.765  41.776  0.00  0.00    -0.049 C 
ATOM     15  C   UNL     1      89.646  50.545  41.628  0.00  0.00    -0.049 C 
ATOM     16  C   UNL     1      89.513  49.706  42.928  0.00  0.00    -0.029 C 
ATOM     17  C   UNL     1      86.957  49.505  42.881  0.00  0.00    -0.059 C 
ATOM     18  C   UNL     1      84.513  55.576  45.612  0.00  0.00    -0.005 C 
ATOM     19  C   UNL     1      84.214  52.393  45.224  0.00  0.00    -0.056 C 
ENDROOT
BRANCH   1  20
ATOM     20  O   UNL     1      83.710  56.529  47.683  0.00  0.00    -0.391 OA
ATOM     21  H   UNL     1      83.939  57.437  47.425  0.00  0.00    +0.000 HD
ENDBRANCH   1  20
BRANCH  16  22
ATOM     22  C   UNL     1      89.676  48.178  42.653  0.00  0.00    -0.022 C 
ATOM     23  C   UNL     1      90.251  47.880  41.261  0.00  0.00    -0.059 C 
BRANCH  22  24
ATOM     24  C   UNL     1      88.325  47.501  42.753  0.00  0.00    -0.085 C 
ATOM     25  C   UNL     1      88.153  46.209  42.430  0.00  0.00    -0.085 C 
BRANCH  25  26
ATOM     26  C   UNL     1      86.811  45.523  42.567  0.00  0.00    -0.023 C 
ATOM     27  C   UNL     1      85.894  46.364  43.463  0.00  0.00    -0.059 C 
BRANCH  26  28
ATOM     28  C   UNL     1      86.946  44.056  43.068  0.00  0.00    -0.041 C 
ATOM     29  C   UNL     1      86.026  43.718  44.254  0.00  0.00    -0.062 C 
ATOM     30  C   UNL     1      88.405  43.725  43.424  0.00  0.00    -0.062 C 
ENDBRANCH  26  28
ENDBRANCH  25  26
ENDBRANCH  22  24
ENDBRANCH  16  22
TORSDOF 5
ENDMDL
MODEL 4
REMARK VINA RESULT:    -9.029      1.835      2.800
REMARK INTER + INTRA:         -11.356
REMARK INTER:                 -10.510
REMARK INTRA:                  -0.846
REMARK UNBOUND:                 0.049
REMARK  Name = 
REMARK  11 active torsions:
REMARK  status: ('A' for Active; 'I' for Inactive)
REMARK    1  A    between atoms: O_1  and  C_2
REMARK    2  A    between atoms: C_5  and  C_29
REMARK    3  A    between atoms: C_13  and  C_27
REMARK    4  A    between atoms: C_17  and  C_18
REMARK    5  A    between atoms: C_18  and  C_19
REMARK    6  A    between atoms: C_18  and  C_26
REMARK    7  A    between atoms: C_20  and  C_21
REMARK    8  A    between atoms: C_21  and  C_22
REMARK    9  A    between atoms: C_21  and  C_25
REMARK   10  A    between atoms: C_22  and  C_23
REMARK   11  A    between atoms: C_22  and  C_24
REMARK                            x       y       z     vdW  Elec       q    Type
REMARK                         _______ _______ _______ _____ _____    ______ ____
ROOT
ATOM      1  C   UNL     1      83.746  56.988  46.292  0.00  0.00    +0.059 C 
ATOM      2  C   UNL     1      84.793  57.143  45.180  0.00  0.00    -0.026 C 
ATOM      3  C   UNL     1      85.082  55.792  44.510  0.00  0.00    -0.041 C 
ATOM      4  C   UNL     1      85.556  54.684  45.503  0.00  0.00    -0.008 C 
ATOM      5  C   UNL     1      84.602  54.666  46.712  0.00  0.00    -0.065 C 
ATOM      6  C   UNL     1      84.220  53.518  47.316  0.00  0.00    -0.084 C 
ATOM      7  C   UNL     1      84.443  52.154  46.730  0.00  0.00    -0.031 C 
ATOM      8  C   UNL     1      85.641  52.107  45.769  0.00  0.00    -0.031 C 
ATOM      9  C   UNL     1      85.535  53.292  44.761  0.00  0.00    -0.029 C 
ATOM     10  C   UNL     1      86.566  53.179  43.590  0.00  0.00    -0.049 C 
ATOM     11  C   UNL     1      86.603  51.781  42.928  0.00  0.00    -0.047 C 
ATOM     12  C   UNL     1      86.809  50.662  43.980  0.00  0.00    -0.026 C 
ATOM     13  C   UNL     1      85.646  50.780  44.979  0.00  0.00    -0.032 C 
ATOM     14  C   UNL     1      85.664  49.477  45.761  0.00  0.00    -0.049 C 
ATOM     15  C   UNL     1      86.133  48.436  44.736  0.00  0.00    -0.049 C 
ATOM     16  C   UNL     1      86.583  49.209  43.465  0.00  0.00    -0.029 C 
ATOM     17  C   UNL     1      88.214  50.791  44.653  0.00  0.00    -0.059 C 
ATOM     18  C   UNL     1      84.211  55.984  47.355  0.00  0.00    -0.005 C 
ATOM     19  C   UNL     1      86.981  55.030  46.018  0.00  0.00    -0.056 C 
ENDROOT
BRANCH   1  20
ATOM     20  O   UNL     1      83.456  58.231  46.880  0.00  0.00    -0.391 OA
ATOM     21  H   UNL     1      83.629  58.187  47.834  0.00  0.00    +0.000 HD
ENDBRANCH   1  20
BRANCH  16  22
ATOM     22  C   UNL     1      87.757  48.488  42.732  0.00  0.00    -0.022 C 
ATOM     23  C   UNL     1      88.008  49.038  41.321  0.00  0.00    -0.059 C 
BRANCH  22  24
ATOM     24  C   UNL     1      87.443  47.012  42.608  0.00  0.00    -0.085 C 
ATOM     25  C   UNL     1      88.341  46.066  42.926  0.00  0.00    -0.085 C 
BRANCH  25  26
ATOM     26  C   UNL     1      88.014  44.591  42.840  0.00  0.00    -0.023 C 
ATOM     27  C   UNL     1      86.925  44.368  41.783  0.00  0.00    -0.059 C 
BRANCH  26  28
ATOM     28  C   UNL     1      87.631  43.988  44.222  0.00  0.00    -0.041 C 
ATOM     29  C   UNL     1      88.165  42.562  44.446  0.00  0.00    -0.062 C 
ATOM     30  C   UNL     1      86.109  44.019  44.436  0.00  0.00    -0.062 C 
ENDBRANCH  26  28
ENDBRANCH  25  26
ENDBRANCH  22  24
ENDBRANCH  16  22
TORSDOF 5
ENDMDL
MODEL 5
REMARK VINA RESULT:    -8.684      3.611      8.592
REMARK INTER + INTRA:         -10.920
REMARK INTER:                  -9.692
REMARK INTRA:                  -1.228
REMARK UNBOUND:                 0.049
REMARK  Name = 
REMARK  11 active torsions:
REMARK  status: ('A' for Active; 'I' for Inactive)
REMARK    1  A    between atoms: O_1  and  C_2
REMARK    2  A    between atoms: C_5  and  C_29
REMARK    3  A    between atoms: C_13  and  C_27
REMARK    4  A    between atoms: C_17  and  C_18
REMARK    5  A    between atoms: C_18  and  C_19
REMARK    6  A    between atoms: C_18  and  C_26
REMARK    7  A    between atoms: C_20  and  C_21
REMARK    8  A    between atoms: C_21  and  C_22
REMARK    9  A    between atoms: C_21  and  C_25
REMARK   10  A    between atoms: C_22  and  C_23
REMARK   11  A    between atoms: C_22  and  C_24
REMARK                            x       y       z     vdW  Elec       q    Type
REMARK                         _______ _______ _______ _____ _____    ______ ____
ROOT
ATOM      1  C   UNL     1      87.411  43.754  43.190  0.00  0.00    +0.059 C 
ATOM      2  C   UNL     1      88.680  44.604  43.027  0.00  0.00    -0.026 C 
ATOM      3  C   UNL     1      88.485  45.999  43.638  0.00  0.00    -0.041 C 
ATOM      4  C   UNL     1      87.269  46.783  43.049  0.00  0.00    -0.008 C 
ATOM      5  C   UNL     1      86.041  45.853  43.043  0.00  0.00    -0.065 C 
ATOM      6  C   UNL     1      84.797  46.295  43.330  0.00  0.00    -0.084 C 
ATOM      7  C   UNL     1      84.510  47.635  43.945  0.00  0.00    -0.031 C 
ATOM      8  C   UNL     1      85.600  48.675  43.644  0.00  0.00    -0.031 C 
ATOM      9  C   UNL     1      86.998  48.052  43.945  0.00  0.00    -0.029 C 
ATOM     10  C   UNL     1      88.147  49.112  43.913  0.00  0.00    -0.049 C 
ATOM     11  C   UNL     1      87.833  50.393  44.721  0.00  0.00    -0.047 C 
ATOM     12  C   UNL     1      86.477  51.010  44.298  0.00  0.00    -0.026 C 
ATOM     13  C   UNL     1      85.411  49.926  44.529  0.00  0.00    -0.032 C 
ATOM     14  C   UNL     1      84.081  50.658  44.464  0.00  0.00    -0.049 C 
ATOM     15  C   UNL     1      84.391  52.041  45.055  0.00  0.00    -0.049 C 
ATOM     16  C   UNL     1      85.931  52.133  45.231  0.00  0.00    -0.029 C 
ATOM     17  C   UNL     1      86.536  51.510  42.819  0.00  0.00    -0.059 C 
ATOM     18  C   UNL     1      86.202  44.432  42.534  0.00  0.00    -0.005 C 
ATOM     19  C   UNL     1      87.579  47.182  41.579  0.00  0.00    -0.056 C 
ENDROOT
BRANCH   1  20
ATOM     20  O   UNL     1      87.603  42.466  42.662  0.00  0.00    -0.391 OA
ATOM     21  H   UNL     1      87.877  42.534  41.734  0.00  0.00    +0.000 HD
ENDBRANCH   1  20
BRANCH  16  22
ATOM     22  C   UNL     1      86.453  53.590  45.026  0.00  0.00    -0.022 C 
ATOM     23  C   UNL     1      86.751  54.309  46.348  0.00  0.00    -0.059 C 
BRANCH  22  24
ATOM     24  C   UNL     1      85.412  54.397  44.280  0.00  0.00    -0.085 C 
ATOM     25  C   UNL     1      85.647  54.903  43.059  0.00  0.00    -0.085 C 
BRANCH  25  26
ATOM     26  C   UNL     1      84.593  55.676  42.297  0.00  0.00    -0.023 C 
ATOM     27  C   UNL     1      83.631  56.345  43.287  0.00  0.00    -0.059 C 
BRANCH  26  28
ATOM     28  C   UNL     1      83.850  54.792  41.253  0.00  0.00    -0.041 C 
ATOM     29  C   UNL     1      82.659  54.012  41.837  0.00  0.00    -0.062 C 
ATOM     30  C   UNL     1      84.821  53.825  40.557  0.00  0.00    -0.062 C 
ENDBRANCH  26  28
ENDBRANCH  25  26
ENDBRANCH  22  24
ENDBRANCH  16  22
TORSDOF 5
ENDMDL
MODEL 6
REMARK VINA RESULT:    -8.644      3.325      4.966
REMARK INTER + INTRA:         -10.870
REMARK INTER:                 -10.561
REMARK INTRA:                  -0.309
REMARK UNBOUND:                 0.049
REMARK  Name = 
REMARK  11 active torsions:
REMARK  status: ('A' for Active; 'I' for Inactive)
REMARK    1  A    between atoms: O_1  and  C_2
REMARK    2  A    between atoms: C_5  and  C_29
REMARK    3  A    between atoms: C_13  and  C_27
REMARK    4  A    between atoms: C_17  and  C_18
REMARK    5  A    between atoms: C_18  and  C_19
REMARK    6  A    between atoms: C_18  and  C_26
REMARK    7  A    between atoms: C_20  and  C_21
REMARK    8  A    between atoms: C_21  and  C_22
REMARK    9  A    between atoms: C_21  and  C_25
REMARK   10  A    between atoms: C_22  and  C_23
REMARK   11  A    between atoms: C_22  and  C_24
REMARK                            x       y       z     vdW  Elec       q    Type
REMARK                         _______ _______ _______ _____ _____    ______ ____
ROOT
ATOM      1  C   UNL     1      83.244  56.025  38.375  0.00  0.00    +0.059 C 
ATOM      2  C   UNL     1      84.729  55.913  38.749  0.00  0.00    -0.026 C 
ATOM      3  C   UNL     1      85.006  54.600  39.496  0.00  0.00    -0.041 C 
ATOM      4  C   UNL     1      84.142  54.410  40.783  0.00  0.00    -0.008 C 
ATOM      5  C   UNL     1      82.671  54.711  40.436  0.00  0.00    -0.065 C 
ATOM      6  C   UNL     1      81.645  54.001  40.955  0.00  0.00    -0.084 C 
ATOM      7  C   UNL     1      81.817  52.700  41.684  0.00  0.00    -0.031 C 
ATOM      8  C   UNL     1      83.202  52.559  42.334  0.00  0.00    -0.031 C 
ATOM      9  C   UNL     1      84.298  52.924  41.287  0.00  0.00    -0.029 C 
ATOM     10  C   UNL     1      85.739  52.566  41.777  0.00  0.00    -0.049 C 
ATOM     11  C   UNL     1      85.862  51.137  42.355  0.00  0.00    -0.047 C 
ATOM     12  C   UNL     1      84.805  50.880  43.459  0.00  0.00    -0.026 C 
ATOM     13  C   UNL     1      83.430  51.108  42.809  0.00  0.00    -0.032 C 
ATOM     14  C   UNL     1      82.429  50.502  43.780  0.00  0.00    -0.049 C 
ATOM     15  C   UNL     1      83.177  49.307  44.385  0.00  0.00    -0.049 C 
ATOM     16  C   UNL     1      84.653  49.396  43.910  0.00  0.00    -0.029 C 
ATOM     17  C   UNL     1      85.062  51.803  44.693  0.00  0.00    -0.059 C 
ATOM     18  C   UNL     1      82.351  55.950  39.619  0.00  0.00    -0.005 C 
ATOM     19  C   UNL     1      84.600  55.428  41.864  0.00  0.00    -0.056 C 
ENDROOT
BRANCH   1  20
ATOM     20  O   UNL     1      82.999  57.210  37.660  0.00  0.00    -0.391 OA
ATOM     21  H   UNL     1      82.457  57.011  36.880  0.00  0.00    +0.000 HD
ENDBRANCH   1  20
BRANCH  16  22
ATOM     22  C   UNL     1      85.643  48.839  44.981  0.00  0.00    -0.022 C 
ATOM     23  C   UNL     1      87.043  49.460  44.880  0.00  0.00    -0.059 C 
BRANCH  22  24
ATOM     24  C   UNL     1      85.783  47.342  44.806  0.00  0.00    -0.085 C 
ATOM     25  C   UNL     1      85.632  46.751  43.610  0.00  0.00    -0.085 C 
BRANCH  25  26
ATOM     26  C   UNL     1      85.811  45.259  43.428  0.00  0.00    -0.023 C 
ATOM     27  C   UNL     1      85.032  44.512  44.518  0.00  0.00    -0.059 C 
BRANCH  26  28
ATOM     28  C   UNL     1      87.310  44.844  43.380  0.00  0.00    -0.041 C 
ATOM     29  C   UNL     1      88.165  45.719  42.446  0.00  0.00    -0.062 C 
ATOM     30  C   UNL     1      87.461  43.363  42.997  0.00  0.00    -0.062 C 
ENDBRANCH  26  28
ENDBRANCH  25  26
ENDBRANCH  22  24
ENDBRANCH  16  22
TORSDOF 5
ENDMDL
MODEL 7
REMARK VINA RESULT:    -8.615      3.040      4.434
REMARK INTER + INTRA:         -10.832
REMARK INTER:                 -10.922
REMARK INTRA:                   0.089
REMARK UNBOUND:                 0.049
REMARK  Name = 
REMARK  11 active torsions:
REMARK  status: ('A' for Active; 'I' for Inactive)
REMARK    1  A    between atoms: O_1  and  C_2
REMARK    2  A    between atoms: C_5  and  C_29
REMARK    3  A    between atoms: C_13  and  C_27
REMARK    4  A    between atoms: C_17  and  C_18
REMARK    5  A    between atoms: C_18  and  C_19
REMARK    6  A    between atoms: C_18  and  C_26
REMARK    7  A    between atoms: C_20  and  C_21
REMARK    8  A    between atoms: C_21  and  C_22
REMARK    9  A    between atoms: C_21  and  C_25
REMARK   10  A    between atoms: C_22  and  C_23
REMARK   11  A    between atoms: C_22  and  C_24
REMARK                            x       y       z     vdW  Elec       q    Type
REMARK                         _______ _______ _______ _____ _____    ______ ____
ROOT
ATOM      1  C   UNL     1      82.711  55.833  38.608  0.00  0.00    +0.059 C 
ATOM      2  C   UNL     1      84.230  55.920  38.816  0.00  0.00    -0.026 C 
ATOM      3  C   UNL     1      84.756  54.668  39.534  0.00  0.00    -0.041 C 
ATOM      4  C   UNL     1      84.069  54.394  40.909  0.00  0.00    -0.008 C 
ATOM      5  C   UNL     1      82.543  54.496  40.726  0.00  0.00    -0.065 C 
ATOM      6  C   UNL     1      81.681  53.670  41.359  0.00  0.00    -0.084 C 
ATOM      7  C   UNL     1      82.099  52.416  42.071  0.00  0.00    -0.031 C 
ATOM      8  C   UNL     1      83.553  52.467  42.565  0.00  0.00    -0.031 C 
ATOM      9  C   UNL     1      84.471  52.950  41.401  0.00  0.00    -0.029 C 
ATOM     10  C   UNL     1      85.992  52.790  41.730  0.00  0.00    -0.049 C 
ATOM     11  C   UNL     1      86.362  51.400  42.298  0.00  0.00    -0.047 C 
ATOM     12  C   UNL     1      85.474  51.031  43.513  0.00  0.00    -0.026 C 
ATOM     13  C   UNL     1      84.018  51.067  43.018  0.00  0.00    -0.032 C 
ATOM     14  C   UNL     1      83.217  50.356  44.097  0.00  0.00    -0.049 C 
ATOM     15  C   UNL     1      84.175  49.279  44.621  0.00  0.00    -0.049 C 
ATOM     16  C   UNL     1      85.566  49.548  43.985  0.00  0.00    -0.029 C 
ATOM     17  C   UNL     1      85.742  52.002  44.707  0.00  0.00    -0.059 C 
ATOM     18  C   UNL     1      81.977  55.668  39.944  0.00  0.00    -0.005 C 
ATOM     19  C   UNL     1      84.506  55.482  41.928  0.00  0.00    -0.056 C 
ENDROOT
BRANCH   1  20
ATOM     20  O   UNL     1      82.237  56.963  37.919  0.00  0.00    -0.391 OA
ATOM     21  H   UNL     1      81.342  57.177  38.226  0.00  0.00    +0.000 HD
ENDBRANCH   1  20
BRANCH  16  22
ATOM     22  C   UNL     1      86.731  49.144  44.943  0.00  0.00    -0.022 C 
ATOM     23  C   UNL     1      86.598  49.766  46.340  0.00  0.00    -0.059 C 
BRANCH  22  24
ATOM     24  C   UNL     1      88.049  49.601  44.353  0.00  0.00    -0.085 C 
ATOM     25  C   UNL     1      88.517  49.105  43.196  0.00  0.00    -0.085 C 
BRANCH  25  26
ATOM     26  C   UNL     1      89.815  49.589  42.586  0.00  0.00    -0.023 C 
ATOM     27  C   UNL     1      89.536  50.205  41.209  0.00  0.00    -0.059 C 
BRANCH  26  28
ATOM     28  C   UNL     1      90.895  48.471  42.528  0.00  0.00    -0.041 C 
ATOM     29  C   UNL     1      90.322  47.070  42.246  0.00  0.00    -0.062 C 
ATOM     30  C   UNL     1      91.734  48.446  43.815  0.00  0.00    -0.062 C 
ENDBRANCH  26  28
ENDBRANCH  25  26
ENDBRANCH  22  24
ENDBRANCH  16  22
TORSDOF 5
ENDMDL
MODEL 8
REMARK VINA RESULT:    -8.409      3.548      8.957
REMARK INTER + INTRA:         -10.572
REMARK INTER:                  -9.695
REMARK INTRA:                  -0.877
REMARK UNBOUND:                 0.049
REMARK  Name = 
REMARK  11 active torsions:
REMARK  status: ('A' for Active; 'I' for Inactive)
REMARK    1  A    between atoms: O_1  and  C_2
REMARK    2  A    between atoms: C_5  and  C_29
REMARK    3  A    between atoms: C_13  and  C_27
REMARK    4  A    between atoms: C_17  and  C_18
REMARK    5  A    between atoms: C_18  and  C_19
REMARK    6  A    between atoms: C_18  and  C_26
REMARK    7  A    between atoms: C_20  and  C_21
REMARK    8  A    between atoms: C_21  and  C_22
REMARK    9  A    between atoms: C_21  and  C_25
REMARK   10  A    between atoms: C_22  and  C_23
REMARK   11  A    between atoms: C_22  and  C_24
REMARK                            x       y       z     vdW  Elec       q    Type
REMARK                         _______ _______ _______ _____ _____    ______ ____
ROOT
ATOM      1  C   UNL     1      87.033  43.716  43.107  0.00  0.00    +0.059 C 
ATOM      2  C   UNL     1      88.359  44.491  43.099  0.00  0.00    -0.026 C 
ATOM      3  C   UNL     1      88.193  45.864  43.768  0.00  0.00    -0.041 C 
ATOM      4  C   UNL     1      87.082  46.751  43.122  0.00  0.00    -0.008 C 
ATOM      5  C   UNL     1      85.807  45.902  42.960  0.00  0.00    -0.065 C 
ATOM      6  C   UNL     1      84.570  46.407  43.165  0.00  0.00    -0.084 C 
ATOM      7  C   UNL     1      84.310  47.730  43.826  0.00  0.00    -0.031 C 
ATOM      8  C   UNL     1      85.482  48.712  43.677  0.00  0.00    -0.031 C 
ATOM      9  C   UNL     1      86.808  47.989  44.061  0.00  0.00    -0.029 C 
ATOM     10  C   UNL     1      88.016  48.974  44.185  0.00  0.00    -0.049 C 
ATOM     11  C   UNL     1      87.708  50.230  45.033  0.00  0.00    -0.047 C 
ATOM     12  C   UNL     1      86.433  50.953  44.531  0.00  0.00    -0.026 C 
ATOM     13  C   UNL     1      85.289  49.927  44.610  0.00  0.00    -0.032 C 
ATOM     14  C   UNL     1      84.015  50.745  44.474  0.00  0.00    -0.049 C 
ATOM     15  C   UNL     1      84.352  52.074  45.164  0.00  0.00    -0.049 C 
ATOM     16  C   UNL     1      85.874  52.059  45.475  0.00  0.00    -0.029 C 
ATOM     17  C   UNL     1      86.651  51.521  43.092  0.00  0.00    -0.059 C 
ATOM     18  C   UNL     1      85.928  44.501  42.389  0.00  0.00    -0.005 C 
ATOM     19  C   UNL     1      87.543  47.203  41.708  0.00  0.00    -0.056 C 
ENDROOT
BRANCH   1  20
ATOM     20  O   UNL     1      87.195  42.447  42.527  0.00  0.00    -0.391 OA
ATOM     21  H   UNL     1      87.189  42.529  41.561  0.00  0.00    +0.000 HD
ENDBRANCH   1  20
BRANCH  16  22
ATOM     22  C   UNL     1      86.497  53.489  45.395  0.00  0.00    -0.022 C 
ATOM     23  C   UNL     1      86.814  54.080  46.776  0.00  0.00    -0.059 C 
BRANCH  22  24
ATOM     24  C   UNL     1      85.527  54.422  44.700  0.00  0.00    -0.085 C 
ATOM     25  C   UNL     1      85.073  55.540  45.290  0.00  0.00    -0.085 C 
BRANCH  25  26
ATOM     26  C   UNL     1      84.135  56.492  44.580  0.00  0.00    -0.023 C 
ATOM     27  C   UNL     1      83.932  56.030  43.132  0.00  0.00    -0.059 C 
BRANCH  26  28
ATOM     28  C   UNL     1      84.615  57.970  44.669  0.00  0.00    -0.041 C 
ATOM     29  C   UNL     1      86.016  58.204  44.077  0.00  0.00    -0.062 C 
ATOM     30  C   UNL     1      84.565  58.481  46.118  0.00  0.00    -0.062 C 
ENDBRANCH  26  28
ENDBRANCH  25  26
ENDBRANCH  22  24
ENDBRANCH  16  22
TORSDOF 5
ENDMDL
MODEL 9
REMARK VINA RESULT:    -8.235      3.723      6.014
REMARK INTER + INTRA:         -10.353
REMARK INTER:                 -10.401
REMARK INTRA:                   0.049
REMARK UNBOUND:                 0.049
REMARK  Name = 
REMARK  11 active torsions:
REMARK  status: ('A' for Active; 'I' for Inactive)
REMARK    1  A    between atoms: O_1  and  C_2
REMARK    2  A    between atoms: C_5  and  C_29
REMARK    3  A    between atoms: C_13  and  C_27
REMARK    4  A    between atoms: C_17  and  C_18
REMARK    5  A    between atoms: C_18  and  C_19
REMARK    6  A    between atoms: C_18  and  C_26
REMARK    7  A    between atoms: C_20  and  C_21
REMARK    8  A    between atoms: C_21  and  C_22
REMARK    9  A    between atoms: C_21  and  C_25
REMARK   10  A    between atoms: C_22  and  C_23
REMARK   11  A    between atoms: C_22  and  C_24
REMARK                            x       y       z     vdW  Elec       q    Type
REMARK                         _______ _______ _______ _____ _____    ______ ____
ROOT
ATOM      1  C   UNL     1      78.865  49.306  44.971  0.00  0.00    +0.059 C 
ATOM      2  C   UNL     1      79.991  48.417  45.519  0.00  0.00    -0.026 C 
ATOM      3  C   UNL     1      81.350  49.125  45.404  0.00  0.00    -0.041 C 
ATOM      4  C   UNL     1      81.712  49.566  43.951  0.00  0.00    -0.008 C 
ATOM      5  C   UNL     1      80.499  50.295  43.341  0.00  0.00    -0.065 C 
ATOM      6  C   UNL     1      80.632  51.374  42.540  0.00  0.00    -0.084 C 
ATOM      7  C   UNL     1      81.913  52.140  42.378  0.00  0.00    -0.031 C 
ATOM      8  C   UNL     1      83.158  51.285  42.659  0.00  0.00    -0.031 C 
ATOM      9  C   UNL     1      82.963  50.525  44.006  0.00  0.00    -0.029 C 
ATOM     10  C   UNL     1      84.275  49.831  44.500  0.00  0.00    -0.049 C 
ATOM     11  C   UNL     1      85.516  50.754  44.464  0.00  0.00    -0.047 C 
ATOM     12  C   UNL     1      85.703  51.397  43.067  0.00  0.00    -0.026 C 
ATOM     13  C   UNL     1      84.413  52.179  42.769  0.00  0.00    -0.032 C 
ATOM     14  C   UNL     1      84.759  53.081  41.596  0.00  0.00    -0.049 C 
ATOM     15  C   UNL     1      86.234  53.436  41.825  0.00  0.00    -0.049 C 
ATOM     16  C   UNL     1      86.746  52.552  42.994  0.00  0.00    -0.029 C 
ATOM     17  C   UNL     1      86.021  50.305  41.995  0.00  0.00    -0.059 C 
ATOM     18  C   UNL     1      79.120  49.683  43.506  0.00  0.00    -0.005 C 
ATOM     19  C   UNL     1      82.000  48.306  43.088  0.00  0.00    -0.056 C 
ENDROOT
BRANCH   1  20
ATOM     20  O   UNL     1      77.619  48.671  45.109  0.00  0.00    -0.391 OA
ATOM     21  H   UNL     1      77.488  48.413  46.035  0.00  0.00    +0.000 HD
ENDBRANCH   1  20
BRANCH  16  22
ATOM     22  C   UNL     1      88.254  52.182  42.826  0.00  0.00    -0.022 C 
ATOM     23  C   UNL     1      88.736  52.290  41.373  0.00  0.00    -0.059 C 
BRANCH  22  24
ATOM     24  C   UNL     1      88.477  50.758  43.287  0.00  0.00    -0.085 C 
ATOM     25  C   UNL     1      89.389  49.960  42.707  0.00  0.00    -0.085 C 
BRANCH  25  26
ATOM     26  C   UNL     1      89.640  48.549  43.193  0.00  0.00    -0.023 C 
ATOM     27  C   UNL     1      91.103  48.409  43.630  0.00  0.00    -0.059 C 
BRANCH  26  28
ATOM     28  C   UNL     1      89.231  47.479  42.139  0.00  0.00    -0.041 C 
ATOM     29  C   UNL     1      87.798  46.947  42.320  0.00  0.00    -0.062 C 
ATOM     30  C   UNL     1      90.228  46.309  42.125  0.00  0.00    -0.062 C 
ENDBRANCH  26  28
ENDBRANCH  25  26
ENDBRANCH  22  24
ENDBRANCH  16  22
TORSDOF 5
ENDMDL
