MODEL 1
REMARK VINA RESULT:    -9.662      0.000      0.000
REMARK INTER + INTRA:         -13.042
REMARK INTER:                 -12.971
REMARK INTRA:                  -0.071
REMARK UNBOUND:                -0.838
REMARK  Name = 
REMARK  11 active torsions:
REMARK  status: ('A' for Active; 'I' for Inactive)
REMARK    1  A    between atoms: O_1  and  C_2
REMARK    2  A    between atoms: C_5  and  C_29
REMARK    3  A    between atoms: C_14  and  C_28
REMARK    4  A    between atoms: C_18  and  C_19
REMARK    5  A    between atoms: C_19  and  C_20
REMARK    6  A    between atoms: C_19  and  C_27
REMARK    7  A    between atoms: C_21  and  C_22
REMARK    8  A    between atoms: C_22  and  C_23
REMARK    9  A    between atoms: C_22  and  C_26
REMARK   10  A    between atoms: C_23  and  C_24
REMARK   11  A    between atoms: C_23  and  C_25
REMARK                            x       y       z     vdW  Elec       q    Type
REMARK                         _______ _______ _______ _____ _____    ______ ____
ROOT
ATOM      1  C   UNL     1      88.656  48.080  41.497  0.00  0.00    +0.056 C 
ATOM      2  C   UNL     1      89.428  48.100  42.826  0.00  0.00    -0.026 C 
ATOM      3  C   UNL     1      89.410  49.458  43.567  0.00  0.00    -0.044 C 
ATOM      4  C   UNL     1      88.203  50.403  43.239  0.00  0.00    -0.022 C 
ATOM      5  C   UNL     1      86.957  49.561  42.837  0.00  0.00    -0.029 C 
ATOM      6  C   UNL     1      87.222  48.668  41.596  0.00  0.00    -0.023 C 
ATOM      7  C   UNL     1      86.417  48.701  44.005  0.00  0.00    -0.031 C 
ATOM      8  C   UNL     1      86.410  49.398  45.334  0.00  0.00    -0.084 C 
ATOM      9  C   UNL     1      87.124  50.512  45.592  0.00  0.00    -0.066 C 
ATOM     10  C   UNL     1      87.869  51.279  44.508  0.00  0.00    -0.014 C 
ATOM     11  C   UNL     1      87.095  52.608  44.233  0.00  0.00    -0.045 C 
ATOM     12  C   UNL     1      86.780  53.410  45.529  0.00  0.00    -0.046 C 
ATOM     13  C   UNL     1      86.059  52.545  46.602  0.00  0.00    -0.022 C 
ATOM     14  C   UNL     1      86.941  51.315  46.861  0.00  0.00    -0.014 C 
ATOM     15  C   UNL     1      86.408  50.697  48.144  0.00  0.00    -0.046 C 
ATOM     16  C   UNL     1      85.984  51.917  48.976  0.00  0.00    -0.049 C 
ATOM     17  C   UNL     1      86.009  53.156  48.035  0.00  0.00    -0.029 C 
ATOM     18  C   UNL     1      84.632  52.153  46.106  0.00  0.00    -0.059 C 
ATOM     19  C   UNL     1      88.620  51.340  42.068  0.00  0.00    -0.059 C 
ENDROOT
BRANCH   1  20
ATOM     20  O   UNL     1      88.596  46.755  41.034  0.00  0.00    -0.392 OA
ATOM     21  H   UNL     1      89.452  46.508  40.649  0.00  0.00    +0.000 HD
ENDBRANCH   1  20
BRANCH  17  22
ATOM     22  C   UNL     1      84.860  54.162  48.368  0.00  0.00    -0.022 C 
ATOM     23  C   UNL     1      83.501  53.468  48.540  0.00  0.00    -0.059 C 
BRANCH  22  24
ATOM     24  C   UNL     1      84.734  55.188  47.262  0.00  0.00    -0.085 C 
ATOM     25  C   UNL     1      85.644  56.165  47.106  0.00  0.00    -0.085 C 
BRANCH  25  26
ATOM     26  C   UNL     1      85.556  57.229  46.028  0.00  0.00    -0.023 C 
ATOM     27  C   UNL     1      84.408  58.223  46.289  0.00  0.00    -0.059 C 
BRANCH  26  28
ATOM     28  C   UNL     1      85.576  56.618  44.594  0.00  0.00    -0.041 C 
ATOM     29  C   UNL     1      87.011  56.400  44.091  0.00  0.00    -0.062 C 
ATOM     30  C   UNL     1      84.772  57.415  43.553  0.00  0.00    -0.062 C 
ENDBRANCH  26  28
ENDBRANCH  25  26
ENDBRANCH  22  24
ENDBRANCH  17  22
TORSDOF 5
ENDMDL
MODEL 2
REMARK VINA RESULT:    -9.189      3.087      8.462
REMARK INTER + INTRA:         -12.445
REMARK INTER:                 -12.667
REMARK INTRA:                   0.222
REMARK UNBOUND:                -0.838
REMARK  Name = 
REMARK  11 active torsions:
REMARK  status: ('A' for Active; 'I' for Inactive)
REMARK    1  A    between atoms: O_1  and  C_2
REMARK    2  A    between atoms: C_5  and  C_29
REMARK    3  A    between atoms: C_14  and  C_28
REMARK    4  A    between atoms: C_18  and  C_19
REMARK    5  A    between atoms: C_19  and  C_20
REMARK    6  A    between atoms: C_19  and  C_27
REMARK    7  A    between atoms: C_21  and  C_22
REMARK    8  A    between atoms: C_22  and  C_23
REMARK    9  A    between atoms: C_22  and  C_26
REMARK   10  A    between atoms: C_23  and  C_24
REMARK   11  A    between atoms: C_23  and  C_25
REMARK                            x       y       z     vdW  Elec       q    Type
REMARK                         _______ _______ _______ _____ _____    ______ ____
ROOT
ATOM      1  C   UNL     1      83.896  55.003  47.811  0.00  0.00    +0.056 C 
ATOM      2  C   UNL     1      85.027  55.587  46.949  0.00  0.00    -0.026 C 
ATOM      3  C   UNL     1      86.275  54.684  46.816  0.00  0.00    -0.044 C 
ATOM      4  C   UNL     1      86.038  53.150  47.030  0.00  0.00    -0.022 C 
ATOM      5  C   UNL     1      84.584  52.770  46.622  0.00  0.00    -0.029 C 
ATOM      6  C   UNL     1      83.519  53.542  47.444  0.00  0.00    -0.023 C 
ATOM      7  C   UNL     1      84.324  52.954  45.107  0.00  0.00    -0.031 C 
ATOM      8  C   UNL     1      85.453  52.506  44.227  0.00  0.00    -0.084 C 
ATOM      9  C   UNL     1      86.709  52.305  44.674  0.00  0.00    -0.066 C 
ATOM     10  C   UNL     1      87.068  52.337  46.153  0.00  0.00    -0.014 C 
ATOM     11  C   UNL     1      87.351  50.872  46.618  0.00  0.00    -0.045 C 
ATOM     12  C   UNL     1      88.357  50.123  45.697  0.00  0.00    -0.046 C 
ATOM     13  C   UNL     1      87.942  50.174  44.198  0.00  0.00    -0.022 C 
ATOM     14  C   UNL     1      87.777  51.654  43.823  0.00  0.00    -0.014 C 
ATOM     15  C   UNL     1      87.736  51.684  42.304  0.00  0.00    -0.046 C 
ATOM     16  C   UNL     1      88.713  50.571  41.899  0.00  0.00    -0.049 C 
ATOM     17  C   UNL     1      89.046  49.753  43.182  0.00  0.00    -0.029 C 
ATOM     18  C   UNL     1      86.630  49.360  43.976  0.00  0.00    -0.059 C 
ATOM     19  C   UNL     1      86.278  52.821  48.533  0.00  0.00    -0.059 C 
ENDROOT
BRANCH   1  20
ATOM     20  O   UNL     1      82.767  55.831  47.688  0.00  0.00    -0.392 OA
ATOM     21  H   UNL     1      82.903  56.456  46.959  0.00  0.00    +0.000 HD
ENDBRANCH   1  20
BRANCH  17  22
ATOM     22  C   UNL     1      89.220  48.231  42.871  0.00  0.00    -0.022 C 
ATOM     23  C   UNL     1      90.188  47.973  41.707  0.00  0.00    -0.059 C 
BRANCH  22  24
ATOM     24  C   UNL     1      87.881  47.618  42.521  0.00  0.00    -0.085 C 
ATOM     25  C   UNL     1      87.705  46.285  42.499  0.00  0.00    -0.085 C 
BRANCH  25  26
ATOM     26  C   UNL     1      86.392  45.617  42.137  0.00  0.00    -0.023 C 
ATOM     27  C   UNL     1      85.179  46.501  42.485  0.00  0.00    -0.059 C 
BRANCH  26  28
ATOM     28  C   UNL     1      86.307  44.155  42.672  0.00  0.00    -0.041 C 
ATOM     29  C   UNL     1      85.494  44.075  43.973  0.00  0.00    -0.062 C 
ATOM     30  C   UNL     1      87.670  43.468  42.862  0.00  0.00    -0.062 C 
ENDBRANCH  26  28
ENDBRANCH  25  26
ENDBRANCH  22  24
ENDBRANCH  17  22
TORSDOF 5
ENDMDL
MODEL 3
REMARK VINA RESULT:    -8.652      2.951      7.718
REMARK INTER + INTRA:         -11.766
REMARK INTER:                 -11.393
REMARK INTRA:                  -0.373
REMARK UNBOUND:                -0.838
REMARK  Name = 
REMARK  11 active torsions:
REMARK  status: ('A' for Active; 'I' for Inactive)
REMARK    1  A    between atoms: O_1  and  C_2
REMARK    2  A    between atoms: C_5  and  C_29
REMARK    3  A    between atoms: C_14  and  C_28
REMARK    4  A    between atoms: C_18  and  C_19
REMARK    5  A    between atoms: C_19  and  C_20
REMARK    6  A    between atoms: C_19  and  C_27
REMARK    7  A    between atoms: C_21  and  C_22
REMARK    8  A    between atoms: C_22  and  C_23
REMARK    9  A    between atoms: C_22  and  C_26
REMARK   10  A    between atoms: C_23  and  C_24
REMARK   11  A    between atoms: C_23  and  C_25
REMARK                            x       y       z     vdW  Elec       q    Type
REMARK                         _______ _______ _______ _____ _____    ______ ____
ROOT
ATOM      1  C   UNL     1      85.595  56.664  45.319  0.00  0.00    +0.056 C 
ATOM      2  C   UNL     1      84.413  56.191  44.458  0.00  0.00    -0.026 C 
ATOM      3  C   UNL     1      84.741  55.039  43.480  0.00  0.00    -0.044 C 
ATOM      4  C   UNL     1      85.959  54.133  43.871  0.00  0.00    -0.022 C 
ATOM      5  C   UNL     1      86.126  54.098  45.418  0.00  0.00    -0.029 C 
ATOM      6  C   UNL     1      86.362  55.509  46.019  0.00  0.00    -0.023 C 
ATOM      7  C   UNL     1      84.938  53.408  46.130  0.00  0.00    -0.031 C 
ATOM      8  C   UNL     1      84.434  52.176  45.438  0.00  0.00    -0.084 C 
ATOM      9  C   UNL     1      84.712  51.879  44.153  0.00  0.00    -0.066 C 
ATOM     10  C   UNL     1      85.716  52.672  43.327  0.00  0.00    -0.014 C 
ATOM     11  C   UNL     1      86.994  51.794  43.139  0.00  0.00    -0.045 C 
ATOM     12  C   UNL     1      86.680  50.360  42.622  0.00  0.00    -0.046 C 
ATOM     13  C   UNL     1      85.615  49.635  43.493  0.00  0.00    -0.022 C 
ATOM     14  C   UNL     1      84.374  50.538  43.540  0.00  0.00    -0.014 C 
ATOM     15  C   UNL     1      83.254  49.660  44.073  0.00  0.00    -0.046 C 
ATOM     16  C   UNL     1      83.564  48.282  43.470  0.00  0.00    -0.049 C 
ATOM     17  C   UNL     1      84.997  48.349  42.866  0.00  0.00    -0.029 C 
ATOM     18  C   UNL     1      86.189  49.349  44.916  0.00  0.00    -0.059 C 
ATOM     19  C   UNL     1      87.238  54.719  43.204  0.00  0.00    -0.059 C 
ENDROOT
BRANCH   1  20
ATOM     20  O   UNL     1      85.115  57.568  46.281  0.00  0.00    -0.392 OA
ATOM     21  H   UNL     1      85.436  58.460  46.074  0.00  0.00    +0.000 HD
ENDBRANCH   1  20
BRANCH  17  22
ATOM     22  C   UNL     1      85.765  46.999  43.044  0.00  0.00    -0.022 C 
ATOM     23  C   UNL     1      85.408  46.286  44.357  0.00  0.00    -0.059 C 
BRANCH  22  24
ATOM     24  C   UNL     1      87.259  47.248  43.029  0.00  0.00    -0.085 C 
ATOM     25  C   UNL     1      87.976  47.133  41.898  0.00  0.00    -0.085 C 
BRANCH  25  26
ATOM     26  C   UNL     1      89.476  47.352  41.830  0.00  0.00    -0.023 C 
ATOM     27  C   UNL     1      90.262  46.140  42.364  0.00  0.00    -0.059 C 
BRANCH  26  28
ATOM     28  C   UNL     1      89.899  48.723  42.440  0.00  0.00    -0.041 C 
ATOM     29  C   UNL     1      90.021  49.810  41.360  0.00  0.00    -0.062 C 
ATOM     30  C   UNL     1      91.186  48.674  43.280  0.00  0.00    -0.062 C 
ENDBRANCH  26  28
ENDBRANCH  25  26
ENDBRANCH  22  24
ENDBRANCH  17  22
TORSDOF 5
ENDMDL
MODEL 4
REMARK VINA RESULT:    -8.617      3.065      7.857
REMARK INTER + INTRA:         -11.722
REMARK INTER:                 -11.235
REMARK INTRA:                  -0.488
REMARK UNBOUND:                -0.838
REMARK  Name = 
REMARK  11 active torsions:
REMARK  status: ('A' for Active; 'I' for Inactive)
REMARK    1  A    between atoms: O_1  and  C_2
REMARK    2  A    between atoms: C_5  and  C_29
REMARK    3  A    between atoms: C_14  and  C_28
REMARK    4  A    between atoms: C_18  and  C_19
REMARK    5  A    between atoms: C_19  and  C_20
REMARK    6  A    between atoms: C_19  and  C_27
REMARK    7  A    between atoms: C_21  and  C_22
REMARK    8  A    between atoms: C_22  and  C_23
REMARK    9  A    between atoms: C_22  and  C_26
REMARK   10  A    between atoms: C_23  and  C_24
REMARK   11  A    between atoms: C_23  and  C_25
REMARK                            x       y       z     vdW  Elec       q    Type
REMARK                         _______ _______ _______ _____ _____    ______ ____
ROOT
ATOM      1  C   UNL     1      85.208  58.036  44.997  0.00  0.00    +0.056 C 
ATOM      2  C   UNL     1      84.573  57.114  46.050  0.00  0.00    -0.026 C 
ATOM      3  C   UNL     1      83.986  55.797  45.491  0.00  0.00    -0.044 C 
ATOM      4  C   UNL     1      84.595  55.294  44.138  0.00  0.00    -0.022 C 
ATOM      5  C   UNL     1      86.072  55.767  44.006  0.00  0.00    -0.029 C 
ATOM      6  C   UNL     1      86.202  57.312  44.049  0.00  0.00    -0.023 C 
ATOM      7  C   UNL     1      87.000  55.125  45.065  0.00  0.00    -0.031 C 
ATOM      8  C   UNL     1      86.736  53.669  45.316  0.00  0.00    -0.084 C 
ATOM      9  C   UNL     1      85.596  53.048  44.956  0.00  0.00    -0.066 C 
ATOM     10  C   UNL     1      84.533  53.717  44.094  0.00  0.00    -0.014 C 
ATOM     11  C   UNL     1      84.582  53.073  42.672  0.00  0.00    -0.045 C 
ATOM     12  C   UNL     1      84.540  51.518  42.704  0.00  0.00    -0.046 C 
ATOM     13  C   UNL     1      85.627  50.914  43.640  0.00  0.00    -0.022 C 
ATOM     14  C   UNL     1      85.435  51.545  45.026  0.00  0.00    -0.014 C 
ATOM     15  C   UNL     1      86.249  50.685  45.979  0.00  0.00    -0.046 C 
ATOM     16  C   UNL     1      86.088  49.269  45.406  0.00  0.00    -0.049 C 
ATOM     17  C   UNL     1      85.445  49.407  43.994  0.00  0.00    -0.029 C 
ATOM     18  C   UNL     1      87.049  51.189  43.058  0.00  0.00    -0.059 C 
ATOM     19  C   UNL     1      83.739  55.869  42.971  0.00  0.00    -0.059 C 
ENDROOT
BRANCH   1  20
ATOM     20  O   UNL     1      85.862  59.088  45.659  0.00  0.00    -0.392 OA
ATOM     21  H   UNL     1      86.034  59.808  45.030  0.00  0.00    +0.000 HD
ENDBRANCH   1  20
BRANCH  17  22
ATOM     22  C   UNL     1      86.003  48.342  42.996  0.00  0.00    -0.022 C 
ATOM     23  C   UNL     1      85.522  46.920  43.321  0.00  0.00    -0.059 C 
BRANCH  22  24
ATOM     24  C   UNL     1      87.517  48.350  43.023  0.00  0.00    -0.085 C 
ATOM     25  C   UNL     1      88.238  47.821  42.018  0.00  0.00    -0.085 C 
BRANCH  25  26
ATOM     26  C   UNL     1      89.754  47.785  42.002  0.00  0.00    -0.023 C 
ATOM     27  C   UNL     1      90.304  46.403  42.402  0.00  0.00    -0.059 C 
BRANCH  26  28
ATOM     28  C   UNL     1      90.380  48.985  42.778  0.00  0.00    -0.041 C 
ATOM     29  C   UNL     1      90.562  50.212  41.872  0.00  0.00    -0.062 C 
ATOM     30  C   UNL     1      91.704  48.659  43.490  0.00  0.00    -0.062 C 
ENDBRANCH  26  28
ENDBRANCH  25  26
ENDBRANCH  22  24
ENDBRANCH  17  22
TORSDOF 5
ENDMDL
MODEL 5
REMARK VINA RESULT:    -8.525      1.704      4.216
REMARK INTER + INTRA:         -11.606
REMARK INTER:                 -11.232
REMARK INTRA:                  -0.374
REMARK UNBOUND:                -0.838
REMARK  Name = 
REMARK  11 active torsions:
REMARK  status: ('A' for Active; 'I' for Inactive)
REMARK    1  A    between atoms: O_1  and  C_2
REMARK    2  A    between atoms: C_5  and  C_29
REMARK    3  A    between atoms: C_14  and  C_28
REMARK    4  A    between atoms: C_18  and  C_19
REMARK    5  A    between atoms: C_19  and  C_20
REMARK    6  A    between atoms: C_19  and  C_27
REMARK    7  A    between atoms: C_21  and  C_22
REMARK    8  A    between atoms: C_22  and  C_23
REMARK    9  A    between atoms: C_22  and  C_26
REMARK   10  A    between atoms: C_23  and  C_24
REMARK   11  A    between atoms: C_23  and  C_25
REMARK                            x       y       z     vdW  Elec       q    Type
REMARK                         _______ _______ _______ _____ _____    ______ ____
ROOT
ATOM      1  C   UNL     1      89.865  48.315  41.905  0.00  0.00    +0.056 C 
ATOM      2  C   UNL     1      88.435  48.220  41.351  0.00  0.00    -0.026 C 
ATOM      3  C   UNL     1      87.357  48.925  42.207  0.00  0.00    -0.044 C 
ATOM      4  C   UNL     1      87.865  50.086  43.129  0.00  0.00    -0.022 C 
ATOM      5  C   UNL     1      89.122  50.758  42.503  0.00  0.00    -0.029 C 
ATOM      6  C   UNL     1      90.289  49.756  42.301  0.00  0.00    -0.023 C 
ATOM      7  C   UNL     1      88.807  51.483  41.172  0.00  0.00    -0.031 C 
ATOM      8  C   UNL     1      87.516  52.246  41.174  0.00  0.00    -0.084 C 
ATOM      9  C   UNL     1      86.537  52.047  42.078  0.00  0.00    -0.066 C 
ATOM     10  C   UNL     1      86.717  51.155  43.299  0.00  0.00    -0.014 C 
ATOM     11  C   UNL     1      86.821  52.071  44.561  0.00  0.00    -0.045 C 
ATOM     12  C   UNL     1      85.670  53.114  44.654  0.00  0.00    -0.046 C 
ATOM     13  C   UNL     1      85.523  53.954  43.352  0.00  0.00    -0.022 C 
ATOM     14  C   UNL     1      85.340  52.965  42.192  0.00  0.00    -0.014 C 
ATOM     15  C   UNL     1      84.843  53.799  41.023  0.00  0.00    -0.046 C 
ATOM     16  C   UNL     1      83.950  54.855  41.694  0.00  0.00    -0.049 C 
ATOM     17  C   UNL     1      84.204  54.774  43.227  0.00  0.00    -0.029 C 
ATOM     18  C   UNL     1      86.775  54.866  43.157  0.00  0.00    -0.059 C 
ATOM     19  C   UNL     1      88.214  49.487  44.524  0.00  0.00    -0.059 C 
ENDROOT
BRANCH   1  20
ATOM     20  O   UNL     1      90.753  47.806  40.943  0.00  0.00    -0.392 OA
ATOM     21  H   UNL     1      91.538  47.446  41.387  0.00  0.00    +0.000 HD
ENDBRANCH   1  20
BRANCH  17  22
ATOM     22  C   UNL     1      84.146  56.183  43.900  0.00  0.00    -0.022 C 
ATOM     23  C   UNL     1      84.789  57.278  43.035  0.00  0.00    -0.059 C 
BRANCH  22  24
ATOM     24  C   UNL     1      84.862  56.151  45.234  0.00  0.00    -0.085 C 
ATOM     25  C   UNL     1      84.274  55.642  46.331  0.00  0.00    -0.085 C 
BRANCH  25  26
ATOM     26  C   UNL     1      84.937  55.601  47.695  0.00  0.00    -0.023 C 
ATOM     27  C   UNL     1      86.445  55.904  47.614  0.00  0.00    -0.059 C 
BRANCH  26  28
ATOM     28  C   UNL     1      84.574  54.308  48.488  0.00  0.00    -0.041 C 
ATOM     29  C   UNL     1      85.713  53.277  48.441  0.00  0.00    -0.062 C 
ATOM     30  C   UNL     1      83.252  53.650  48.059  0.00  0.00    -0.062 C 
ENDBRANCH  26  28
ENDBRANCH  25  26
ENDBRANCH  22  24
ENDBRANCH  17  22
TORSDOF 5
ENDMDL
MODEL 6
REMARK VINA RESULT:    -8.245      2.237      3.358
REMARK INTER + INTRA:         -11.252
REMARK INTER:                 -11.185
REMARK INTRA:                  -0.067
REMARK UNBOUND:                -0.838
REMARK  Name = 
REMARK  11 active torsions:
REMARK  status: ('A' for Active; 'I' for Inactive)
REMARK    1  A    between atoms: O_1  and  C_2
REMARK    2  A    between atoms: C_5  and  C_29
REMARK    3  A    between atoms: C_14  and  C_28
REMARK    4  A    between atoms: C_18  and  C_19
REMARK    5  A    between atoms: C_19  and  C_20
REMARK    6  A    between atoms: C_19  and  C_27
REMARK    7  A    between atoms: C_21  and  C_22
REMARK    8  A    between atoms: C_22  and  C_23
REMARK    9  A    between atoms: C_22  and  C_26
REMARK   10  A    between atoms: C_23  and  C_24
REMARK   11  A    between atoms: C_23  and  C_25
REMARK                            x       y       z     vdW  Elec       q    Type
REMARK                         _______ _______ _______ _____ _____    ______ ____
ROOT
ATOM      1  C   UNL     1      89.641  46.882  41.989  0.00  0.00    +0.056 C 
ATOM      2  C   UNL     1      90.266  47.559  43.220  0.00  0.00    -0.026 C 
ATOM      3  C   UNL     1      90.231  49.105  43.200  0.00  0.00    -0.044 C 
ATOM      4  C   UNL     1      89.111  49.754  42.317  0.00  0.00    -0.022 C 
ATOM      5  C   UNL     1      87.877  48.807  42.234  0.00  0.00    -0.029 C 
ATOM      6  C   UNL     1      88.233  47.426  41.624  0.00  0.00    -0.023 C 
ATOM      7  C   UNL     1      87.177  48.621  43.602  0.00  0.00    -0.031 C 
ATOM      8  C   UNL     1      87.060  49.878  44.413  0.00  0.00    -0.084 C 
ATOM      9  C   UNL     1      87.792  50.984  44.177  0.00  0.00    -0.066 C 
ATOM     10  C   UNL     1      88.683  51.134  42.951  0.00  0.00    -0.014 C 
ATOM     11  C   UNL     1      88.004  52.150  41.977  0.00  0.00    -0.045 C 
ATOM     12  C   UNL     1      87.589  53.478  42.673  0.00  0.00    -0.046 C 
ATOM     13  C   UNL     1      86.719  53.238  43.940  0.00  0.00    -0.022 C 
ATOM     14  C   UNL     1      87.511  52.302  44.864  0.00  0.00    -0.014 C 
ATOM     15  C   UNL     1      86.817  52.383  46.214  0.00  0.00    -0.046 C 
ATOM     16  C   UNL     1      86.362  53.848  46.293  0.00  0.00    -0.049 C 
ATOM     17  C   UNL     1      86.544  54.471  44.878  0.00  0.00    -0.029 C 
ATOM     18  C   UNL     1      85.337  52.636  43.537  0.00  0.00    -0.059 C 
ATOM     19  C   UNL     1      89.692  50.005  40.895  0.00  0.00    -0.059 C 
ENDROOT
BRANCH   1  20
ATOM     20  O   UNL     1      89.570  45.499  42.226  0.00  0.00    -0.392 OA
ATOM     21  H   UNL     1      89.964  45.023  41.479  0.00  0.00    +0.000 HD
ENDBRANCH   1  20
BRANCH  17  22
ATOM     22  C   UNL     1      85.413  55.496  44.545  0.00  0.00    -0.022 C 
ATOM     23  C   UNL     1      84.163  55.299  45.415  0.00  0.00    -0.059 C 
BRANCH  22  24
ATOM     24  C   UNL     1      85.007  55.365  43.092  0.00  0.00    -0.085 C 
ATOM     25  C   UNL     1      83.718  55.440  42.717  0.00  0.00    -0.085 C 
BRANCH  25  26
ATOM     26  C   UNL     1      83.253  55.297  41.280  0.00  0.00    -0.023 C 
ATOM     27  C   UNL     1      82.080  54.308  41.148  0.00  0.00    -0.059 C 
BRANCH  26  28
ATOM     28  C   UNL     1      84.438  55.036  40.300  0.00  0.00    -0.041 C 
ATOM     29  C   UNL     1      84.138  55.575  38.892  0.00  0.00    -0.062 C 
ATOM     30  C   UNL     1      84.881  53.566  40.215  0.00  0.00    -0.062 C 
ENDBRANCH  26  28
ENDBRANCH  25  26
ENDBRANCH  22  24
ENDBRANCH  17  22
TORSDOF 5
ENDMDL
MODEL 7
REMARK VINA RESULT:    -7.923      3.001      8.134
REMARK INTER + INTRA:         -10.845
REMARK INTER:                 -10.116
REMARK INTRA:                  -0.730
REMARK UNBOUND:                -0.838
REMARK  Name = 
REMARK  11 active torsions:
REMARK  status: ('A' for Active; 'I' for Inactive)
REMARK    1  A    between atoms: O_1  and  C_2
REMARK    2  A    between atoms: C_5  and  C_29
REMARK    3  A    between atoms: C_14  and  C_28
REMARK    4  A    between atoms: C_18  and  C_19
REMARK    5  A    between atoms: C_19  and  C_20
REMARK    6  A    between atoms: C_19  and  C_27
REMARK    7  A    between atoms: C_21  and  C_22
REMARK    8  A    between atoms: C_22  and  C_23
REMARK    9  A    between atoms: C_22  and  C_26
REMARK   10  A    between atoms: C_23  and  C_24
REMARK   11  A    between atoms: C_23  and  C_25
REMARK                            x       y       z     vdW  Elec       q    Type
REMARK                         _______ _______ _______ _____ _____    ______ ____
ROOT
ATOM      1  C   UNL     1      84.201  55.034  49.024  0.00  0.00    +0.056 C 
ATOM      2  C   UNL     1      83.227  54.740  47.871  0.00  0.00    -0.026 C 
ATOM      3  C   UNL     1      83.789  55.022  46.458  0.00  0.00    -0.044 C 
ATOM      4  C   UNL     1      85.349  54.983  46.319  0.00  0.00    -0.022 C 
ATOM      5  C   UNL     1      85.956  54.006  47.369  0.00  0.00    -0.029 C 
ATOM      6  C   UNL     1      85.611  54.415  48.825  0.00  0.00    -0.023 C 
ATOM      7  C   UNL     1      85.548  52.534  47.119  0.00  0.00    -0.031 C 
ATOM      8  C   UNL     1      85.558  52.127  45.675  0.00  0.00    -0.084 C 
ATOM      9  C   UNL     1      85.557  53.007  44.655  0.00  0.00    -0.066 C 
ATOM     10  C   UNL     1      85.730  54.506  44.864  0.00  0.00    -0.014 C 
ATOM     11  C   UNL     1      87.157  54.906  44.368  0.00  0.00    -0.045 C 
ATOM     12  C   UNL     1      87.474  54.386  42.936  0.00  0.00    -0.046 C 
ATOM     13  C   UNL     1      87.230  52.855  42.793  0.00  0.00    -0.022 C 
ATOM     14  C   UNL     1      85.780  52.585  43.220  0.00  0.00    -0.014 C 
ATOM     15  C   UNL     1      85.469  51.180  42.729  0.00  0.00    -0.046 C 
ATOM     16  C   UNL     1      86.241  51.087  41.404  0.00  0.00    -0.049 C 
ATOM     17  C   UNL     1      87.194  52.316  41.332  0.00  0.00    -0.029 C 
ATOM     18  C   UNL     1      88.257  52.064  43.661  0.00  0.00    -0.059 C 
ATOM     19  C   UNL     1      85.898  56.422  46.544  0.00  0.00    -0.059 C 
ENDROOT
BRANCH   1  20
ATOM     20  O   UNL     1      83.636  54.558  50.219  0.00  0.00    -0.392 OA
ATOM     21  H   UNL     1      84.240  54.741  50.956  0.00  0.00    +0.000 HD
ENDBRANCH   1  20
BRANCH  17  22
ATOM     22  C   UNL     1      88.551  51.958  40.644  0.00  0.00    -0.022 C 
ATOM     23  C   UNL     1      88.583  52.351  39.160  0.00  0.00    -0.059 C 
BRANCH  22  24
ATOM     24  C   UNL     1      88.807  50.469  40.747  0.00  0.00    -0.085 C 
ATOM     25  C   UNL     1      89.709  49.972  41.611  0.00  0.00    -0.085 C 
BRANCH  25  26
ATOM     26  C   UNL     1      90.018  48.492  41.743  0.00  0.00    -0.023 C 
ATOM     27  C   UNL     1      88.786  47.616  41.446  0.00  0.00    -0.059 C 
BRANCH  26  28
ATOM     28  C   UNL     1      90.747  48.159  43.080  0.00  0.00    -0.041 C 
ATOM     29  C   UNL     1      92.015  49.010  43.260  0.00  0.00    -0.062 C 
ATOM     30  C   UNL     1      91.086  46.670  43.265  0.00  0.00    -0.062 C 
ENDBRANCH  26  28
ENDBRANCH  25  26
ENDBRANCH  22  24
ENDBRANCH  17  22
TORSDOF 5
ENDMDL
MODEL 8
REMARK VINA RESULT:    -7.431      1.242      2.474
REMARK INTER + INTRA:         -10.224
REMARK INTER:                  -9.386
REMARK INTRA:                  -0.838
REMARK UNBOUND:                -0.838
REMARK  Name = 
REMARK  11 active torsions:
REMARK  status: ('A' for Active; 'I' for Inactive)
REMARK    1  A    between atoms: O_1  and  C_2
REMARK    2  A    between atoms: C_5  and  C_29
REMARK    3  A    between atoms: C_14  and  C_28
REMARK    4  A    between atoms: C_18  and  C_19
REMARK    5  A    between atoms: C_19  and  C_20
REMARK    6  A    between atoms: C_19  and  C_27
REMARK    7  A    between atoms: C_21  and  C_22
REMARK    8  A    between atoms: C_22  and  C_23
REMARK    9  A    between atoms: C_22  and  C_26
REMARK   10  A    between atoms: C_23  and  C_24
REMARK   11  A    between atoms: C_23  and  C_25
REMARK                            x       y       z     vdW  Elec       q    Type
REMARK                         _______ _______ _______ _____ _____    ______ ____
ROOT
ATOM      1  C   UNL     1      90.352  48.362  41.309  0.00  0.00    +0.056 C 
ATOM      2  C   UNL     1      88.842  48.080  41.344  0.00  0.00    -0.026 C 
ATOM      3  C   UNL     1      88.177  48.269  42.728  0.00  0.00    -0.044 C 
ATOM      4  C   UNL     1      88.911  49.241  43.714  0.00  0.00    -0.022 C 
ATOM      5  C   UNL     1      89.691  50.326  42.916  0.00  0.00    -0.029 C 
ATOM      6  C   UNL     1      90.752  49.711  41.965  0.00  0.00    -0.023 C 
ATOM      7  C   UNL     1      88.754  51.273  42.127  0.00  0.00    -0.031 C 
ATOM      8  C   UNL     1      87.520  51.685  42.874  0.00  0.00    -0.084 C 
ATOM      9  C   UNL     1      87.060  51.038  43.962  0.00  0.00    -0.066 C 
ATOM     10  C   UNL     1      87.846  49.931  44.653  0.00  0.00    -0.014 C 
ATOM     11  C   UNL     1      88.392  50.492  46.005  0.00  0.00    -0.045 C 
ATOM     12  C   UNL     1      87.295  51.177  46.869  0.00  0.00    -0.046 C 
ATOM     13  C   UNL     1      86.508  52.263  46.079  0.00  0.00    -0.022 C 
ATOM     14  C   UNL     1      85.943  51.589  44.821  0.00  0.00    -0.014 C 
ATOM     15  C   UNL     1      84.902  52.554  44.278  0.00  0.00    -0.046 C 
ATOM     16  C   UNL     1      84.285  53.163  45.546  0.00  0.00    -0.049 C 
ATOM     17  C   UNL     1      85.189  52.754  46.746  0.00  0.00    -0.029 C 
ATOM     18  C   UNL     1      87.447  53.461  45.735  0.00  0.00    -0.059 C 
ATOM     19  C   UNL     1      89.893  48.405  44.587  0.00  0.00    -0.059 C 
ENDROOT
BRANCH   1  20
ATOM     20  O   UNL     1      90.781  48.339  39.971  0.00  0.00    -0.392 OA
ATOM     21  H   UNL     1      91.594  48.861  39.883  0.00  0.00    +0.000 HD
ENDBRANCH   1  20
BRANCH  17  22
ATOM     22  C   UNL     1      85.282  53.890  47.816  0.00  0.00    -0.022 C 
ATOM     23  C   UNL     1      84.343  53.656  49.009  0.00  0.00    -0.059 C 
BRANCH  22  24
ATOM     24  C   UNL     1      84.929  55.222  47.188  0.00  0.00    -0.085 C 
ATOM     25  C   UNL     1      85.873  56.016  46.653  0.00  0.00    -0.085 C 
BRANCH  25  26
ATOM     26  C   UNL     1      85.579  57.367  46.029  0.00  0.00    -0.023 C 
ATOM     27  C   UNL     1      84.172  57.877  46.393  0.00  0.00    -0.059 C 
BRANCH  26  28
ATOM     28  C   UNL     1      85.909  57.396  44.505  0.00  0.00    -0.041 C 
ATOM     29  C   UNL     1      84.658  57.136  43.650  0.00  0.00    -0.062 C 
ATOM     30  C   UNL     1      87.040  56.445  44.081  0.00  0.00    -0.062 C 
ENDBRANCH  26  28
ENDBRANCH  25  26
ENDBRANCH  22  24
ENDBRANCH  17  22
TORSDOF 5
ENDMDL
