MODEL 1
REMARK VINA RESULT:   -10.585      0.000      0.000
REMARK INTER + INTRA:         -13.714
REMARK INTER:                 -13.387
REMARK INTRA:                  -0.327
REMARK UNBOUND:                -0.344
REMARK  Name = 
REMARK  11 active torsions:
REMARK  status: ('A' for Active; 'I' for Inactive)
REMARK    1  A    between atoms: O_1  and  C_2
REMARK    2  A    between atoms: C_5  and  C_29
REMARK    3  A    between atoms: C_13  and  C_27
REMARK    4  A    between atoms: C_17  and  C_18
REMARK    5  A    between atoms: C_18  and  C_19
REMARK    6  A    between atoms: C_18  and  C_26
REMARK    7  A    between atoms: C_20  and  C_21
REMARK    8  A    between atoms: C_21  and  C_22
REMARK    9  A    between atoms: C_21  and  C_25
REMARK   10  A    between atoms: C_22  and  C_23
REMARK   11  A    between atoms: C_22  and  C_24
REMARK                            x       y       z     vdW  Elec       q    Type
REMARK                         _______ _______ _______ _____ _____    ______ ____
ROOT
ATOM      1  C   UNL     1      89.604  51.201  40.178  0.00  0.00    +0.059 C 
ATOM      2  C   UNL     1      89.803  52.569  40.828  0.00  0.00    -0.026 C 
ATOM      3  C   UNL     1      88.540  53.015  41.575  0.00  0.00    -0.041 C 
ATOM      4  C   UNL     1      87.878  51.921  42.498  0.00  0.00    -0.004 C 
ATOM      5  C   UNL     1      88.654  50.594  42.473  0.00  0.00    -0.061 C 
ATOM      6  C   UNL     1      88.550  49.735  43.499  0.00  0.00    -0.062 C 
ATOM      7  C   UNL     1      87.880  50.100  44.754  0.00  0.00    -0.062 C 
ATOM      8  C   UNL     1      87.484  51.357  44.991  0.00  0.00    -0.062 C 
ATOM      9  C   UNL     1      87.808  52.462  43.985  0.00  0.00    -0.010 C 
ATOM     10  C   UNL     1      86.875  53.713  44.155  0.00  0.00    -0.045 C 
ATOM     11  C   UNL     1      86.566  54.089  45.623  0.00  0.00    -0.046 C 
ATOM     12  C   UNL     1      86.039  52.865  46.416  0.00  0.00    -0.022 C 
ATOM     13  C   UNL     1      87.151  51.811  46.393  0.00  0.00    -0.014 C 
ATOM     14  C   UNL     1      86.753  50.803  47.467  0.00  0.00    -0.046 C 
ATOM     15  C   UNL     1      86.096  51.662  48.561  0.00  0.00    -0.049 C 
ATOM     16  C   UNL     1      85.899  53.075  47.951  0.00  0.00    -0.029 C 
ATOM     17  C   UNL     1      84.721  52.331  45.783  0.00  0.00    -0.059 C 
ATOM     18  C   UNL     1      89.436  50.130  41.259  0.00  0.00    -0.005 C 
ATOM     19  C   UNL     1      86.459  51.588  41.962  0.00  0.00    -0.055 C 
ENDROOT
BRANCH   1  20
ATOM     20  O   UNL     1      88.488  51.210  39.324  0.00  0.00    -0.391 OA
ATOM     21  H   UNL     1      88.405  50.345  38.891  0.00  0.00    +0.000 HD
ENDBRANCH   1  20
BRANCH  16  22
ATOM     22  C   UNL     1      84.706  53.902  48.548  0.00  0.00    -0.022 C 
ATOM     23  C   UNL     1      83.408  53.139  48.877  0.00  0.00    -0.059 C 
BRANCH  22  24
ATOM     24  C   UNL     1      84.385  55.100  47.684  0.00  0.00    -0.085 C 
ATOM     25  C   UNL     1      85.243  56.122  47.549  0.00  0.00    -0.085 C 
BRANCH  25  26
ATOM     26  C   UNL     1      84.953  57.277  46.616  0.00  0.00    -0.023 C 
ATOM     27  C   UNL     1      83.503  57.754  46.810  0.00  0.00    -0.059 C 
BRANCH  26  28
ATOM     28  C   UNL     1      85.300  56.911  45.141  0.00  0.00    -0.041 C 
ATOM     29  C   UNL     1      84.076  56.474  44.320  0.00  0.00    -0.062 C 
ATOM     30  C   UNL     1      86.045  58.046  44.426  0.00  0.00    -0.062 C 
ENDBRANCH  26  28
ENDBRANCH  25  26
ENDBRANCH  22  24
ENDBRANCH  16  22
TORSDOF 5
ENDMDL
MODEL 2
REMARK VINA RESULT:    -9.864      3.396      8.207
REMARK INTER + INTRA:         -12.803
REMARK INTER:                 -12.609
REMARK INTRA:                  -0.195
REMARK UNBOUND:                -0.344
REMARK  Name = 
REMARK  11 active torsions:
REMARK  status: ('A' for Active; 'I' for Inactive)
REMARK    1  A    between atoms: O_1  and  C_2
REMARK    2  A    between atoms: C_5  and  C_29
REMARK    3  A    between atoms: C_13  and  C_27
REMARK    4  A    between atoms: C_17  and  C_18
REMARK    5  A    between atoms: C_18  and  C_19
REMARK    6  A    between atoms: C_18  and  C_26
REMARK    7  A    between atoms: C_20  and  C_21
REMARK    8  A    between atoms: C_21  and  C_22
REMARK    9  A    between atoms: C_21  and  C_25
REMARK   10  A    between atoms: C_22  and  C_23
REMARK   11  A    between atoms: C_22  and  C_24
REMARK                            x       y       z     vdW  Elec       q    Type
REMARK                         _______ _______ _______ _____ _____    ______ ____
ROOT
ATOM      1  C   UNL     1      85.021  56.260  46.977  0.00  0.00    +0.059 C 
ATOM      2  C   UNL     1      86.078  55.409  47.679  0.00  0.00    -0.026 C 
ATOM      3  C   UNL     1      85.984  53.941  47.246  0.00  0.00    -0.041 C 
ATOM      4  C   UNL     1      85.850  53.702  45.692  0.00  0.00    -0.004 C 
ATOM      5  C   UNL     1      85.849  55.020  44.900  0.00  0.00    -0.061 C 
ATOM      6  C   UNL     1      86.214  55.027  43.609  0.00  0.00    -0.062 C 
ATOM      7  C   UNL     1      86.816  53.853  42.964  0.00  0.00    -0.062 C 
ATOM      8  C   UNL     1      87.176  52.777  43.674  0.00  0.00    -0.062 C 
ATOM      9  C   UNL     1      87.046  52.790  45.197  0.00  0.00    -0.010 C 
ATOM     10  C   UNL     1      87.026  51.342  45.805  0.00  0.00    -0.045 C 
ATOM     11  C   UNL     1      88.005  50.351  45.134  0.00  0.00    -0.046 C 
ATOM     12  C   UNL     1      87.817  50.333  43.595  0.00  0.00    -0.022 C 
ATOM     13  C   UNL     1      88.120  51.749  43.095  0.00  0.00    -0.014 C 
ATOM     14  C   UNL     1      88.286  51.602  41.586  0.00  0.00    -0.046 C 
ATOM     15  C   UNL     1      88.953  50.226  41.415  0.00  0.00    -0.049 C 
ATOM     16  C   UNL     1      88.890  49.533  42.801  0.00  0.00    -0.029 C 
ATOM     17  C   UNL     1      86.373  49.885  43.227  0.00  0.00    -0.059 C 
ATOM     18  C   UNL     1      85.312  56.316  45.475  0.00  0.00    -0.005 C 
ATOM     19  C   UNL     1      84.482  53.031  45.393  0.00  0.00    -0.055 C 
ENDROOT
BRANCH   1  20
ATOM     20  O   UNL     1      83.733  55.747  47.205  0.00  0.00    -0.391 OA
ATOM     21  H   UNL     1      83.729  55.238  48.032  0.00  0.00    +0.000 HD
ENDBRANCH   1  20
BRANCH  16  22
ATOM     22  C   UNL     1      88.865  47.964  42.765  0.00  0.00    -0.022 C 
ATOM     23  C   UNL     1      89.937  47.257  41.912  0.00  0.00    -0.059 C 
BRANCH  22  24
ATOM     24  C   UNL     1      87.496  47.447  42.389  0.00  0.00    -0.085 C 
ATOM     25  C   UNL     1      86.907  46.451  43.068  0.00  0.00    -0.085 C 
BRANCH  25  26
ATOM     26  C   UNL     1      85.502  45.997  42.741  0.00  0.00    -0.023 C 
ATOM     27  C   UNL     1      84.488  46.772  43.600  0.00  0.00    -0.059 C 
BRANCH  26  28
ATOM     28  C   UNL     1      85.368  44.449  42.858  0.00  0.00    -0.041 C 
ATOM     29  C   UNL     1      86.628  43.694  42.401  0.00  0.00    -0.062 C 
ATOM     30  C   UNL     1      84.968  44.010  44.274  0.00  0.00    -0.062 C 
ENDBRANCH  26  28
ENDBRANCH  25  26
ENDBRANCH  22  24
ENDBRANCH  16  22
TORSDOF 5
ENDMDL
MODEL 3
REMARK VINA RESULT:    -9.860      2.554      7.232
REMARK INTER + INTRA:         -12.798
REMARK INTER:                 -12.181
REMARK INTRA:                  -0.617
REMARK UNBOUND:                -0.344
REMARK  Name = 
REMARK  11 active torsions:
REMARK  status: ('A' for Active; 'I' for Inactive)
REMARK    1  A    between atoms: O_1  and  C_2
REMARK    2  A    between atoms: C_5  and  C_29
REMARK    3  A    between atoms: C_13  and  C_27
REMARK    4  A    between atoms: C_17  and  C_18
REMARK    5  A    between atoms: C_18  and  C_19
REMARK    6  A    between atoms: C_18  and  C_26
REMARK    7  A    between atoms: C_20  and  C_21
REMARK    8  A    between atoms: C_21  and  C_22
REMARK    9  A    between atoms: C_21  and  C_25
REMARK   10  A    between atoms: C_22  and  C_23
REMARK   11  A    between atoms: C_22  and  C_24
REMARK                            x       y       z     vdW  Elec       q    Type
REMARK                         _______ _______ _______ _____ _____    ______ ____
ROOT
ATOM      1  C   UNL     1      84.947  58.292  45.123  0.00  0.00    +0.059 C 
ATOM      2  C   UNL     1      83.829  57.428  44.542  0.00  0.00    -0.026 C 
ATOM      3  C   UNL     1      84.397  56.203  43.817  0.00  0.00    -0.041 C 
ATOM      4  C   UNL     1      85.520  55.415  44.597  0.00  0.00    -0.004 C 
ATOM      5  C   UNL     1      85.823  56.044  45.967  0.00  0.00    -0.061 C 
ATOM      6  C   UNL     1      86.365  55.298  46.943  0.00  0.00    -0.062 C 
ATOM      7  C   UNL     1      86.495  53.840  46.826  0.00  0.00    -0.062 C 
ATOM      8  C   UNL     1      85.934  53.170  45.812  0.00  0.00    -0.062 C 
ATOM      9  C   UNL     1      85.065  53.912  44.796  0.00  0.00    -0.010 C 
ATOM     10  C   UNL     1      84.913  53.117  43.451  0.00  0.00    -0.045 C 
ATOM     11  C   UNL     1      84.747  51.590  43.622  0.00  0.00    -0.046 C 
ATOM     12  C   UNL     1      85.867  51.001  44.516  0.00  0.00    -0.022 C 
ATOM     13  C   UNL     1      85.741  51.674  45.886  0.00  0.00    -0.014 C 
ATOM     14  C   UNL     1      86.594  50.821  46.819  0.00  0.00    -0.046 C 
ATOM     15  C   UNL     1      86.405  49.387  46.294  0.00  0.00    -0.049 C 
ATOM     16  C   UNL     1      85.678  49.512  44.929  0.00  0.00    -0.029 C 
ATOM     17  C   UNL     1      87.264  51.249  43.875  0.00  0.00    -0.059 C 
ATOM     18  C   UNL     1      85.671  57.528  46.235  0.00  0.00    -0.005 C 
ATOM     19  C   UNL     1      86.849  55.490  43.797  0.00  0.00    -0.055 C 
ENDROOT
BRANCH   1  20
ATOM     20  O   UNL     1      85.857  58.673  44.122  0.00  0.00    -0.391 OA
ATOM     21  H   UNL     1      86.686  58.181  44.235  0.00  0.00    +0.000 HD
ENDBRANCH   1  20
BRANCH  16  22
ATOM     22  C   UNL     1      85.957  48.350  43.913  0.00  0.00    -0.022 C 
ATOM     23  C   UNL     1      85.527  46.928  44.325  0.00  0.00    -0.059 C 
BRANCH  22  24
ATOM     24  C   UNL     1      87.406  48.335  43.482  0.00  0.00    -0.085 C 
ATOM     25  C   UNL     1      87.779  47.879  42.277  0.00  0.00    -0.085 C 
BRANCH  25  26
ATOM     26  C   UNL     1      89.219  47.947  41.819  0.00  0.00    -0.023 C 
ATOM     27  C   UNL     1      89.954  46.653  42.212  0.00  0.00    -0.059 C 
BRANCH  26  28
ATOM     28  C   UNL     1      89.914  49.243  42.335  0.00  0.00    -0.041 C 
ATOM     29  C   UNL     1      91.364  49.015  42.791  0.00  0.00    -0.062 C 
ATOM     30  C   UNL     1      89.850  50.379  41.305  0.00  0.00    -0.062 C 
ENDBRANCH  26  28
ENDBRANCH  25  26
ENDBRANCH  22  24
ENDBRANCH  16  22
TORSDOF 5
ENDMDL
MODEL 4
REMARK VINA RESULT:    -9.387      3.486      7.317
REMARK INTER + INTRA:         -12.201
REMARK INTER:                 -11.659
REMARK INTRA:                  -0.542
REMARK UNBOUND:                -0.344
REMARK  Name = 
REMARK  11 active torsions:
REMARK  status: ('A' for Active; 'I' for Inactive)
REMARK    1  A    between atoms: O_1  and  C_2
REMARK    2  A    between atoms: C_5  and  C_29
REMARK    3  A    between atoms: C_13  and  C_27
REMARK    4  A    between atoms: C_17  and  C_18
REMARK    5  A    between atoms: C_18  and  C_19
REMARK    6  A    between atoms: C_18  and  C_26
REMARK    7  A    between atoms: C_20  and  C_21
REMARK    8  A    between atoms: C_21  and  C_22
REMARK    9  A    between atoms: C_21  and  C_25
REMARK   10  A    between atoms: C_22  and  C_23
REMARK   11  A    between atoms: C_22  and  C_24
REMARK                            x       y       z     vdW  Elec       q    Type
REMARK                         _______ _______ _______ _____ _____    ______ ____
ROOT
ATOM      1  C   UNL     1      84.816  58.211  44.974  0.00  0.00    +0.059 C 
ATOM      2  C   UNL     1      83.896  57.274  44.194  0.00  0.00    -0.026 C 
ATOM      3  C   UNL     1      84.687  56.126  43.557  0.00  0.00    -0.041 C 
ATOM      4  C   UNL     1      85.726  55.412  44.505  0.00  0.00    -0.004 C 
ATOM      5  C   UNL     1      85.734  56.019  45.918  0.00  0.00    -0.061 C 
ATOM      6  C   UNL     1      86.165  55.290  46.959  0.00  0.00    -0.062 C 
ATOM      7  C   UNL     1      86.443  53.854  46.842  0.00  0.00    -0.062 C 
ATOM      8  C   UNL     1      86.126  53.172  45.733  0.00  0.00    -0.062 C 
ATOM      9  C   UNL     1      85.380  53.870  44.596  0.00  0.00    -0.010 C 
ATOM     10  C   UNL     1      85.532  53.110  43.231  0.00  0.00    -0.045 C 
ATOM     11  C   UNL     1      85.476  51.569  43.344  0.00  0.00    -0.046 C 
ATOM     12  C   UNL     1      86.476  51.048  44.408  0.00  0.00    -0.022 C 
ATOM     13  C   UNL     1      86.058  51.663  45.747  0.00  0.00    -0.014 C 
ATOM     14  C   UNL     1      86.812  50.856  46.799  0.00  0.00    -0.046 C 
ATOM     15  C   UNL     1      86.844  49.429  46.224  0.00  0.00    -0.049 C 
ATOM     16  C   UNL     1      86.353  49.536  44.756  0.00  0.00    -0.029 C 
ATOM     17  C   UNL     1      87.934  51.435  44.023  0.00  0.00    -0.059 C 
ATOM     18  C   UNL     1      85.405  57.476  46.181  0.00  0.00    -0.005 C 
ATOM     19  C   UNL     1      87.160  55.626  43.948  0.00  0.00    -0.055 C 
ENDROOT
BRANCH   1  20
ATOM     20  O   UNL     1      85.846  58.700  44.153  0.00  0.00    -0.391 OA
ATOM     21  H   UNL     1      86.353  59.373  44.635  0.00  0.00    +0.000 HD
ENDBRANCH   1  20
BRANCH  16  22
ATOM     22  C   UNL     1      86.905  48.435  43.783  0.00  0.00    -0.022 C 
ATOM     23  C   UNL     1      87.440  48.902  42.415  0.00  0.00    -0.059 C 
BRANCH  22  24
ATOM     24  C   UNL     1      85.896  47.328  43.582  0.00  0.00    -0.085 C 
ATOM     25  C   UNL     1      84.626  47.446  44.000  0.00  0.00    -0.085 C 
BRANCH  25  26
ATOM     26  C   UNL     1      83.601  46.370  43.719  0.00  0.00    -0.023 C 
ATOM     27  C   UNL     1      84.157  45.376  42.686  0.00  0.00    -0.059 C 
BRANCH  26  28
ATOM     28  C   UNL     1      82.229  46.990  43.317  0.00  0.00    -0.041 C 
ATOM     29  C   UNL     1      81.030  46.294  43.982  0.00  0.00    -0.062 C 
ATOM     30  C   UNL     1      82.181  48.502  43.579  0.00  0.00    -0.062 C 
ENDBRANCH  26  28
ENDBRANCH  25  26
ENDBRANCH  22  24
ENDBRANCH  16  22
TORSDOF 5
ENDMDL
MODEL 5
REMARK VINA RESULT:    -9.360      3.496      7.934
REMARK INTER + INTRA:         -12.166
REMARK INTER:                 -11.358
REMARK INTRA:                  -0.808
REMARK UNBOUND:                -0.344
REMARK  Name = 
REMARK  11 active torsions:
REMARK  status: ('A' for Active; 'I' for Inactive)
REMARK    1  A    between atoms: O_1  and  C_2
REMARK    2  A    between atoms: C_5  and  C_29
REMARK    3  A    between atoms: C_13  and  C_27
REMARK    4  A    between atoms: C_17  and  C_18
REMARK    5  A    between atoms: C_18  and  C_19
REMARK    6  A    between atoms: C_18  and  C_26
REMARK    7  A    between atoms: C_20  and  C_21
REMARK    8  A    between atoms: C_21  and  C_22
REMARK    9  A    between atoms: C_21  and  C_25
REMARK   10  A    between atoms: C_22  and  C_23
REMARK   11  A    between atoms: C_22  and  C_24
REMARK                            x       y       z     vdW  Elec       q    Type
REMARK                         _______ _______ _______ _____ _____    ______ ____
ROOT
ATOM      1  C   UNL     1      85.093  57.912  44.806  0.00  0.00    +0.059 C 
ATOM      2  C   UNL     1      83.792  57.133  44.623  0.00  0.00    -0.026 C 
ATOM      3  C   UNL     1      84.022  55.858  43.803  0.00  0.00    -0.041 C 
ATOM      4  C   UNL     1      85.269  54.994  44.233  0.00  0.00    -0.004 C 
ATOM      5  C   UNL     1      86.021  55.612  45.423  0.00  0.00    -0.061 C 
ATOM      6  C   UNL     1      86.780  54.836  46.213  0.00  0.00    -0.062 C 
ATOM      7  C   UNL     1      86.762  53.372  46.115  0.00  0.00    -0.062 C 
ATOM      8  C   UNL     1      85.872  52.737  45.342  0.00  0.00    -0.062 C 
ATOM      9  C   UNL     1      84.790  53.533  44.613  0.00  0.00    -0.010 C 
ATOM     10  C   UNL     1      84.178  52.738  43.406  0.00  0.00    -0.045 C 
ATOM     11  C   UNL     1      83.962  51.231  43.674  0.00  0.00    -0.046 C 
ATOM     12  C   UNL     1      85.256  50.564  44.206  0.00  0.00    -0.022 C 
ATOM     13  C   UNL     1      85.603  51.261  45.525  0.00  0.00    -0.014 C 
ATOM     14  C   UNL     1      86.637  50.354  46.184  0.00  0.00    -0.046 C 
ATOM     15  C   UNL     1      86.193  48.934  45.793  0.00  0.00    -0.049 C 
ATOM     16  C   UNL     1      85.096  49.101  44.709  0.00  0.00    -0.029 C 
ATOM     17  C   UNL     1      86.405  50.693  43.163  0.00  0.00    -0.059 C 
ATOM     18  C   UNL     1      86.065  57.107  45.672  0.00  0.00    -0.005 C 
ATOM     19  C   UNL     1      86.292  54.953  43.064  0.00  0.00    -0.055 C 
ENDROOT
BRANCH   1  20
ATOM     20  O   UNL     1      85.679  58.208  43.563  0.00  0.00    -0.391 OA
ATOM     21  H   UNL     1      86.371  57.556  43.368  0.00  0.00    +0.000 HD
ENDBRANCH   1  20
BRANCH  16  22
ATOM     22  C   UNL     1      84.966  47.908  43.698  0.00  0.00    -0.022 C 
ATOM     23  C   UNL     1      83.604  47.191  43.616  0.00  0.00    -0.059 C 
BRANCH  22  24
ATOM     24  C   UNL     1      86.063  46.889  43.910  0.00  0.00    -0.085 C 
ATOM     25  C   UNL     1      86.853  46.483  42.903  0.00  0.00    -0.085 C 
BRANCH  25  26
ATOM     26  C   UNL     1      88.002  45.529  43.140  0.00  0.00    -0.023 C 
ATOM     27  C   UNL     1      89.200  45.925  42.259  0.00  0.00    -0.059 C 
BRANCH  26  28
ATOM     28  C   UNL     1      87.552  44.049  42.956  0.00  0.00    -0.041 C 
ATOM     29  C   UNL     1      87.648  43.220  44.248  0.00  0.00    -0.062 C 
ATOM     30  C   UNL     1      86.142  43.945  42.359  0.00  0.00    -0.062 C 
ENDBRANCH  26  28
ENDBRANCH  25  26
ENDBRANCH  22  24
ENDBRANCH  16  22
TORSDOF 5
ENDMDL
MODEL 6
REMARK VINA RESULT:    -9.244      2.065      3.439
REMARK INTER + INTRA:         -12.021
REMARK INTER:                 -11.526
REMARK INTRA:                  -0.495
REMARK UNBOUND:                -0.344
REMARK  Name = 
REMARK  11 active torsions:
REMARK  status: ('A' for Active; 'I' for Inactive)
REMARK    1  A    between atoms: O_1  and  C_2
REMARK    2  A    between atoms: C_5  and  C_29
REMARK    3  A    between atoms: C_13  and  C_27
REMARK    4  A    between atoms: C_17  and  C_18
REMARK    5  A    between atoms: C_18  and  C_19
REMARK    6  A    between atoms: C_18  and  C_26
REMARK    7  A    between atoms: C_20  and  C_21
REMARK    8  A    between atoms: C_21  and  C_22
REMARK    9  A    between atoms: C_21  and  C_25
REMARK   10  A    between atoms: C_22  and  C_23
REMARK   11  A    between atoms: C_22  and  C_24
REMARK                            x       y       z     vdW  Elec       q    Type
REMARK                         _______ _______ _______ _____ _____    ______ ____
ROOT
ATOM      1  C   UNL     1      89.743  47.976  42.010  0.00  0.00    +0.059 C 
ATOM      2  C   UNL     1      90.151  49.369  41.534  0.00  0.00    -0.026 C 
ATOM      3  C   UNL     1      88.956  50.329  41.545  0.00  0.00    -0.041 C 
ATOM      4  C   UNL     1      88.074  50.296  42.853  0.00  0.00    -0.004 C 
ATOM      5  C   UNL     1      88.605  49.289  43.886  0.00  0.00    -0.061 C 
ATOM      6  C   UNL     1      88.309  49.441  45.186  0.00  0.00    -0.062 C 
ATOM      7  C   UNL     1      87.662  50.654  45.699  0.00  0.00    -0.062 C 
ATOM      8  C   UNL     1      87.483  51.730  44.922  0.00  0.00    -0.062 C 
ATOM      9  C   UNL     1      88.037  51.742  43.497  0.00  0.00    -0.010 C 
ATOM     10  C   UNL     1      87.332  52.815  42.594  0.00  0.00    -0.045 C 
ATOM     11  C   UNL     1      87.032  54.155  43.304  0.00  0.00    -0.046 C 
ATOM     12  C   UNL     1      86.266  53.927  44.632  0.00  0.00    -0.022 C 
ATOM     13  C   UNL     1      87.175  53.079  45.528  0.00  0.00    -0.014 C 
ATOM     14  C   UNL     1      86.562  53.190  46.920  0.00  0.00    -0.046 C 
ATOM     15  C   UNL     1      86.020  54.628  46.978  0.00  0.00    -0.049 C 
ATOM     16  C   UNL     1      86.100  55.186  45.532  0.00  0.00    -0.029 C 
ATOM     17  C   UNL     1      84.902  53.226  44.362  0.00  0.00    -0.059 C 
ATOM     18  C   UNL     1      89.345  48.026  43.488  0.00  0.00    -0.005 C 
ATOM     19  C   UNL     1      86.642  49.814  42.493  0.00  0.00    -0.055 C 
ENDROOT
BRANCH   1  20
ATOM     20  O   UNL     1      88.683  47.473  41.237  0.00  0.00    -0.391 OA
ATOM     21  H   UNL     1      88.044  47.026  41.815  0.00  0.00    +0.000 HD
ENDBRANCH   1  20
BRANCH  16  22
ATOM     22  C   UNL     1      85.047  56.296  45.183  0.00  0.00    -0.022 C 
ATOM     23  C   UNL     1      84.175  56.833  46.334  0.00  0.00    -0.059 C 
BRANCH  22  24
ATOM     24  C   UNL     1      84.163  55.869  44.034  0.00  0.00    -0.085 C 
ATOM     25  C   UNL     1      84.427  56.232  42.769  0.00  0.00    -0.085 C 
BRANCH  25  26
ATOM     26  C   UNL     1      83.588  55.731  41.614  0.00  0.00    -0.023 C 
ATOM     27  C   UNL     1      82.473  54.810  42.139  0.00  0.00    -0.059 C 
BRANCH  26  28
ATOM     28  C   UNL     1      84.476  55.076  40.515  0.00  0.00    -0.041 C 
ATOM     29  C   UNL     1      84.425  53.539  40.528  0.00  0.00    -0.062 C 
ATOM     30  C   UNL     1      84.146  55.609  39.114  0.00  0.00    -0.062 C 
ENDBRANCH  26  28
ENDBRANCH  25  26
ENDBRANCH  22  24
ENDBRANCH  16  22
TORSDOF 5
ENDMDL
MODEL 7
REMARK VINA RESULT:    -8.845      2.468      4.683
REMARK INTER + INTRA:         -11.517
REMARK INTER:                 -10.728
REMARK INTRA:                  -0.788
REMARK UNBOUND:                -0.344
REMARK  Name = 
REMARK  11 active torsions:
REMARK  status: ('A' for Active; 'I' for Inactive)
REMARK    1  A    between atoms: O_1  and  C_2
REMARK    2  A    between atoms: C_5  and  C_29
REMARK    3  A    between atoms: C_13  and  C_27
REMARK    4  A    between atoms: C_17  and  C_18
REMARK    5  A    between atoms: C_18  and  C_19
REMARK    6  A    between atoms: C_18  and  C_26
REMARK    7  A    between atoms: C_20  and  C_21
REMARK    8  A    between atoms: C_21  and  C_22
REMARK    9  A    between atoms: C_21  and  C_25
REMARK   10  A    between atoms: C_22  and  C_23
REMARK   11  A    between atoms: C_22  and  C_24
REMARK                            x       y       z     vdW  Elec       q    Type
REMARK                         _______ _______ _______ _____ _____    ______ ____
ROOT
ATOM      1  C   UNL     1      90.242  46.634  42.435  0.00  0.00    +0.059 C 
ATOM      2  C   UNL     1      88.741  46.351  42.449  0.00  0.00    -0.026 C 
ATOM      3  C   UNL     1      87.975  47.463  43.174  0.00  0.00    -0.041 C 
ATOM      4  C   UNL     1      88.378  48.935  42.772  0.00  0.00    -0.004 C 
ATOM      5  C   UNL     1      89.481  48.961  41.700  0.00  0.00    -0.061 C 
ATOM      6  C   UNL     1      89.621  50.036  40.908  0.00  0.00    -0.062 C 
ATOM      7  C   UNL     1      88.630  51.118  40.882  0.00  0.00    -0.062 C 
ATOM      8  C   UNL     1      87.461  51.007  41.526  0.00  0.00    -0.062 C 
ATOM      9  C   UNL     1      87.101  49.700  42.233  0.00  0.00    -0.010 C 
ATOM     10  C   UNL     1      85.984  49.899  43.317  0.00  0.00    -0.045 C 
ATOM     11  C   UNL     1      84.858  50.876  42.908  0.00  0.00    -0.046 C 
ATOM     12  C   UNL     1      85.439  52.230  42.424  0.00  0.00    -0.022 C 
ATOM     13  C   UNL     1      86.307  51.926  41.199  0.00  0.00    -0.014 C 
ATOM     14  C   UNL     1      86.550  53.284  40.548  0.00  0.00    -0.046 C 
ATOM     15  C   UNL     1      85.238  54.052  40.783  0.00  0.00    -0.049 C 
ATOM     16  C   UNL     1      84.410  53.209  41.788  0.00  0.00    -0.029 C 
ATOM     17  C   UNL     1      86.257  52.910  43.560  0.00  0.00    -0.059 C 
ATOM     18  C   UNL     1      90.530  47.873  41.582  0.00  0.00    -0.005 C 
ATOM     19  C   UNL     1      88.977  49.659  44.008  0.00  0.00    -0.055 C 
ENDROOT
BRANCH   1  20
ATOM     20  O   UNL     1      90.730  46.817  43.740  0.00  0.00    -0.391 OA
ATOM     21  H   UNL     1      90.036  47.212  44.292  0.00  0.00    +0.000 HD
ENDBRANCH   1  20
BRANCH  16  22
ATOM     22  C   UNL     1      83.410  54.024  42.682  0.00  0.00    -0.022 C 
ATOM     23  C   UNL     1      82.025  54.343  42.087  0.00  0.00    -0.059 C 
BRANCH  22  24
ATOM     24  C   UNL     1      84.047  55.295  43.196  0.00  0.00    -0.085 C 
ATOM     25  C   UNL     1      84.314  55.473  44.499  0.00  0.00    -0.085 C 
BRANCH  25  26
ATOM     26  C   UNL     1      85.029  56.711  44.994  0.00  0.00    -0.023 C 
ATOM     27  C   UNL     1      86.389  56.845  44.290  0.00  0.00    -0.059 C 
BRANCH  26  28
ATOM     28  C   UNL     1      85.124  56.721  46.550  0.00  0.00    -0.041 C 
ATOM     29  C   UNL     1      83.770  56.499  47.243  0.00  0.00    -0.062 C 
ATOM     30  C   UNL     1      86.161  55.716  47.070  0.00  0.00    -0.062 C 
ENDBRANCH  26  28
ENDBRANCH  25  26
ENDBRANCH  22  24
ENDBRANCH  16  22
TORSDOF 5
ENDMDL
MODEL 8
REMARK VINA RESULT:    -8.674      2.999      4.977
REMARK INTER + INTRA:         -11.300
REMARK INTER:                 -10.638
REMARK INTRA:                  -0.662
REMARK UNBOUND:                -0.344
REMARK  Name = 
REMARK  11 active torsions:
REMARK  status: ('A' for Active; 'I' for Inactive)
REMARK    1  A    between atoms: O_1  and  C_2
REMARK    2  A    between atoms: C_5  and  C_29
REMARK    3  A    between atoms: C_13  and  C_27
REMARK    4  A    between atoms: C_17  and  C_18
REMARK    5  A    between atoms: C_18  and  C_19
REMARK    6  A    between atoms: C_18  and  C_26
REMARK    7  A    between atoms: C_20  and  C_21
REMARK    8  A    between atoms: C_21  and  C_22
REMARK    9  A    between atoms: C_21  and  C_25
REMARK   10  A    between atoms: C_22  and  C_23
REMARK   11  A    between atoms: C_22  and  C_24
REMARK                            x       y       z     vdW  Elec       q    Type
REMARK                         _______ _______ _______ _____ _____    ______ ____
ROOT
ATOM      1  C   UNL     1      86.059  45.096  43.231  0.00  0.00    +0.059 C 
ATOM      2  C   UNL     1      84.707  45.688  42.838  0.00  0.00    -0.026 C 
ATOM      3  C   UNL     1      84.406  46.959  43.640  0.00  0.00    -0.041 C 
ATOM      4  C   UNL     1      85.592  47.995  43.735  0.00  0.00    -0.004 C 
ATOM      5  C   UNL     1      86.843  47.516  42.980  0.00  0.00    -0.061 C 
ATOM      6  C   UNL     1      87.749  48.408  42.549  0.00  0.00    -0.062 C 
ATOM      7  C   UNL     1      87.497  49.853  42.586  0.00  0.00    -0.062 C 
ATOM      8  C   UNL     1      86.291  50.342  42.903  0.00  0.00    -0.062 C 
ATOM      9  C   UNL     1      85.122  49.388  43.146  0.00  0.00    -0.010 C 
ATOM     10  C   UNL     1      83.966  50.061  43.968  0.00  0.00    -0.045 C 
ATOM     11  C   UNL     1      83.681  51.532  43.589  0.00  0.00    -0.046 C 
ATOM     12  C   UNL     1      84.978  52.380  43.617  0.00  0.00    -0.022 C 
ATOM     13  C   UNL     1      85.927  51.772  42.580  0.00  0.00    -0.014 C 
ATOM     14  C   UNL     1      87.010  52.827  42.377  0.00  0.00    -0.046 C 
ATOM     15  C   UNL     1      86.259  54.164  42.507  0.00  0.00    -0.049 C 
ATOM     16  C   UNL     1      84.845  53.822  43.047  0.00  0.00    -0.029 C 
ATOM     17  C   UNL     1      85.600  52.378  45.044  0.00  0.00    -0.059 C 
ATOM     18  C   UNL     1      87.185  46.048  42.818  0.00  0.00    -0.005 C 
ATOM     19  C   UNL     1      86.027  48.141  45.219  0.00  0.00    -0.055 C 
ENDROOT
BRANCH   1  20
ATOM     20  O   UNL     1      86.114  44.848  44.614  0.00  0.00    -0.391 OA
ATOM     21  H   UNL     1      86.011  43.896  44.776  0.00  0.00    +0.000 HD
ENDBRANCH   1  20
BRANCH  16  22
ATOM     22  C   UNL     1      84.152  54.959  43.878  0.00  0.00    -0.022 C 
ATOM     23  C   UNL     1      83.891  56.301  43.165  0.00  0.00    -0.059 C 
BRANCH  22  24
ATOM     24  C   UNL     1      84.883  55.209  45.178  0.00  0.00    -0.085 C 
ATOM     25  C   UNL     1      84.243  55.650  46.272  0.00  0.00    -0.085 C 
BRANCH  25  26
ATOM     26  C   UNL     1      84.964  55.816  47.592  0.00  0.00    -0.023 C 
ATOM     27  C   UNL     1      86.479  55.918  47.351  0.00  0.00    -0.059 C 
BRANCH  26  28
ATOM     28  C   UNL     1      84.563  54.696  48.597  0.00  0.00    -0.041 C 
ATOM     29  C   UNL     1      83.132  54.173  48.387  0.00  0.00    -0.062 C 
ATOM     30  C   UNL     1      85.563  53.531  48.591  0.00  0.00    -0.062 C 
ENDBRANCH  26  28
ENDBRANCH  25  26
ENDBRANCH  22  24
ENDBRANCH  16  22
TORSDOF 5
ENDMDL
MODEL 9
REMARK VINA RESULT:    -8.569      2.380      3.802
REMARK INTER + INTRA:         -11.168
REMARK INTER:                 -10.823
REMARK INTRA:                  -0.344
REMARK UNBOUND:                -0.344
REMARK  Name = 
REMARK  11 active torsions:
REMARK  status: ('A' for Active; 'I' for Inactive)
REMARK    1  A    between atoms: O_1  and  C_2
REMARK    2  A    between atoms: C_5  and  C_29
REMARK    3  A    between atoms: C_13  and  C_27
REMARK    4  A    between atoms: C_17  and  C_18
REMARK    5  A    between atoms: C_18  and  C_19
REMARK    6  A    between atoms: C_18  and  C_26
REMARK    7  A    between atoms: C_20  and  C_21
REMARK    8  A    between atoms: C_21  and  C_22
REMARK    9  A    between atoms: C_21  and  C_25
REMARK   10  A    between atoms: C_22  and  C_23
REMARK   11  A    between atoms: C_22  and  C_24
REMARK                            x       y       z     vdW  Elec       q    Type
REMARK                         _______ _______ _______ _____ _____    ______ ____
ROOT
ATOM      1  C   UNL     1      90.575  46.449  42.704  0.00  0.00    +0.059 C 
ATOM      2  C   UNL     1      90.921  47.658  43.571  0.00  0.00    -0.026 C 
ATOM      3  C   UNL     1      90.255  48.931  43.036  0.00  0.00    -0.041 C 
ATOM      4  C   UNL     1      88.730  48.788  42.659  0.00  0.00    -0.004 C 
ATOM      5  C   UNL     1      88.199  47.368  42.915  0.00  0.00    -0.061 C 
ATOM      6  C   UNL     1      86.886  47.167  43.111  0.00  0.00    -0.062 C 
ATOM      7  C   UNL     1      85.948  48.280  43.296  0.00  0.00    -0.062 C 
ATOM      8  C   UNL     1      86.381  49.540  43.438  0.00  0.00    -0.062 C 
ATOM      9  C   UNL     1      87.881  49.828  43.499  0.00  0.00    -0.010 C 
ATOM     10  C   UNL     1      88.213  51.325  43.166  0.00  0.00    -0.045 C 
ATOM     11  C   UNL     1      87.218  52.350  43.757  0.00  0.00    -0.046 C 
ATOM     12  C   UNL     1      85.756  51.989  43.389  0.00  0.00    -0.022 C 
ATOM     13  C   UNL     1      85.474  50.611  43.996  0.00  0.00    -0.014 C 
ATOM     14  C   UNL     1      83.958  50.461  43.935  0.00  0.00    -0.046 C 
ATOM     15  C   UNL     1      83.430  51.885  44.185  0.00  0.00    -0.049 C 
ATOM     16  C   UNL     1      84.659  52.828  44.105  0.00  0.00    -0.029 C 
ATOM     17  C   UNL     1      85.566  51.990  41.843  0.00  0.00    -0.059 C 
ATOM     18  C   UNL     1      89.080  46.138  42.816  0.00  0.00    -0.005 C 
ATOM     19  C   UNL     1      88.554  49.033  41.135  0.00  0.00    -0.055 C 
ENDROOT
BRANCH   1  20
ATOM     20  O   UNL     1      90.925  46.679  41.362  0.00  0.00    -0.391 OA
ATOM     21  H   UNL     1      90.204  46.380  40.784  0.00  0.00    +0.000 HD
ENDBRANCH   1  20
BRANCH  16  22
ATOM     22  C   UNL     1      84.347  54.300  43.658  0.00  0.00    -0.022 C 
ATOM     23  C   UNL     1      85.156  54.868  42.475  0.00  0.00    -0.059 C 
BRANCH  22  24
ATOM     24  C   UNL     1      84.420  55.254  44.828  0.00  0.00    -0.085 C 
ATOM     25  C   UNL     1      85.595  55.685  45.313  0.00  0.00    -0.085 C 
BRANCH  25  26
ATOM     26  C   UNL     1      85.659  56.706  46.428  0.00  0.00    -0.023 C 
ATOM     27  C   UNL     1      84.607  56.376  47.500  0.00  0.00    -0.059 C 
BRANCH  26  28
ATOM     28  C   UNL     1      85.550  58.157  45.869  0.00  0.00    -0.041 C 
ATOM     29  C   UNL     1      85.938  58.267  44.385  0.00  0.00    -0.062 C 
ATOM     30  C   UNL     1      84.159  58.762  46.104  0.00  0.00    -0.062 C 
ENDBRANCH  26  28
ENDBRANCH  25  26
ENDBRANCH  22  24
ENDBRANCH  16  22
TORSDOF 5
ENDMDL
