=
 OpenBabel09092515023D

 30 33  0  0  1  0  0  0  0  0999 V2000
   85.5120   56.2590   45.7660 C   0  0  1  0  0  3  0  0  0  0  0  0
   86.3200   55.2430   46.6020 C   0  0  0  0  0  2  0  0  0  0  0  0
   85.6820   53.8500   46.5940 C   0  0  0  0  0  2  0  0  0  0  0  0
   85.6330   53.2190   45.1610 C   0  0  1  0  0  0  0  0  0  0  0  0
   85.3040   54.3280   44.0710 C   0  0  1  0  0  3  0  0  0  0  0  0
   84.6440   55.5840   44.6800 C   0  0  0  0  0  2  0  0  0  0  0  0
   86.5110   54.7170   43.2060 C   0  0  0  0  0  2  0  0  0  0  0  0
   87.1220   53.4920   42.6080 C   0  0  0  0  0  2  0  0  0  0  0  0
   87.3650   52.4130   43.3740 C   0  0  2  0  0  3  0  0  0  0  0  0
   87.0200   52.4770   44.8680 C   0  0  2  0  0  3  0  0  0  0  0  0
   87.1800   51.0960   45.6020 C   0  0  0  0  0  2  0  0  0  0  0  0
   88.3310   50.2080   45.0830 C   0  0  0  0  0  2  0  0  0  0  0  0
   88.2510   50.0340   43.5460 C   0  0  1  0  0  0  0  0  0  0  0  0
   88.4410   51.4320   42.9500 C   0  0  1  0  0  3  0  0  0  0  0  0
   88.7280   51.1960   41.4740 C   0  0  0  0  0  2  0  0  0  0  0  0
   89.5550   49.9010   41.4590 C   0  0  0  0  0  2  0  0  0  0  0  0
   89.4560   49.2920   42.8840 C   0  0  2  0  0  3  0  0  0  0  0  0
   86.8860   49.4150   43.1270 C   0  0  0  0  0  1  0  0  0  0  0  0
   84.4430   52.2180   45.1460 C   0  0  0  0  0  1  0  0  0  0  0  0
   84.6910   57.0140   46.6200 O   0  0  0  0  0  0  0  0  0  0  0  0
   84.9030   56.8030   47.5420 H   0  0  0  0  0  0  0  0  0  0  0  0
   89.5930   47.7230   42.9030 C   0  0  2  0  0  3  0  0  0  0  0  0
   90.9820   47.1550   43.2660 C   0  0  0  0  0  1  0  0  0  0  0  0
   89.0830   47.0120   41.6210 C   0  0  0  0  0  2  0  0  0  0  0  0
   87.8260   46.1260   41.7770 C   0  0  0  0  0  2  0  0  0  0  0  0
   87.7750   45.2650   43.0700 C   0  0  2  0  0  3  0  0  0  0  0  0
   88.6290   43.9920   42.9230 C   0  0  0  0  0  1  0  0  0  0  0  0
   86.3180   44.9160   43.5130 C   0  0  0  0  0  3  0  0  0  0  0  0
   85.6070   46.1230   44.1500 C   0  0  0  0  0  1  0  0  0  0  0  0
   85.4530   44.3270   42.3870 C   0  0  0  0  0  1  0  0  0  0  0  0
  1  2  1  0  0  0  0
  1 20  1  1  0  0  0
  3  2  1  0  0  0  0
  4 19  1  6  0  0  0
  4  3  1  0  0  0  0
  5  7  1  1  0  0  0
  5  6  1  0  0  0  0
  5  4  1  0  0  0  0
  6  1  1  0  0  0  0
  8  7  1  0  0  0  0
  9  8  1  1  0  0  0
  9 10  1  0  0  0  0
 10  4  1  0  0  0  0
 10 11  1  6  0  0  0
 12 11  1  0  0  0  0
 13 18  1  6  0  0  0
 13 12  1  0  0  0  0
 14 15  1  6  0  0  0
 14  9  1  0  0  0  0
 14 13  1  0  0  0  0
 16 15  1  0  0  0  0
 16 17  1  0  0  0  0
 17 22  1  6  0  0  0
 17 13  1  0  0  0  0
 20 21  1  0  0  0  0
 22 23  1  6  0  0  0
 24 25  1  0  0  0  0
 24 22  1  0  0  0  0
 25 26  1  0  0  0  0
 26 27  1  6  0  0  0
 26 28  1  0  0  0  0
 28 29  1  0  0  0  0
 30 28  1  0  0  0  0
M  END
>  <MODEL>
1

>  <REMARK>
 VINA RESULT:   -10.081      0.000      0.000
 INTER + INTRA:         -13.932
 INTER:                 -12.654
 INTRA:                  -1.279
 UNBOUND:                -0.609
  Name = 
  12 active torsions:
  status: ('A' for Active; 'I' for Inactive)
    1  A    between atoms: O_1  and  C_2
    2  A    between atoms: C_5  and  C_29
    3  A    between atoms: C_14  and  C_28
    4  A    between atoms: C_18  and  C_19
    5  A    between atoms: C_19  and  C_20
    6  A    between atoms: C_19  and  C_27
    7  A    between atoms: C_20  and  C_21
    8  A    between atoms: C_21  and  C_22
    9  A    between atoms: C_22  and  C_23
   10  A    between atoms: C_22  and  C_26
   11  A    between atoms: C_23  and  C_24
   12  A    between atoms: C_23  and  C_25
                            x       y       z     vdW  Elec       q    Type
                         _______ _______ _______ _____ _____    ______ ____

>  <TORSDO>
F 6

$$$$
=
 OpenBabel09092515023D

 30 33  0  0  1  0  0  0  0  0999 V2000
   89.5600   51.1790   40.4740 C   0  0  1  0  0  3  0  0  0  0  0  0
   89.3290   52.5650   41.1130 C   0  0  0  0  0  2  0  0  0  0  0  0
   87.8400   52.8700   41.3090 C   0  0  0  0  0  2  0  0  0  0  0  0
   87.1450   51.8700   42.2950 C   0  0  1  0  0  0  0  0  0  0  0  0
   87.7080   50.3970   42.0880 C   0  0  1  0  0  3  0  0  0  0  0  0
   88.3830   50.2060   40.7120 C   0  0  0  0  0  2  0  0  0  0  0  0
   88.6370   49.9310   43.2170 C   0  0  0  0  0  2  0  0  0  0  0  0
   87.9580   50.1020   44.5370 C   0  0  0  0  0  2  0  0  0  0  0  0
   87.3320   51.2560   44.8310 C   0  0  2  0  0  3  0  0  0  0  0  0
   87.3480   52.3880   43.7950 C   0  0  2  0  0  3  0  0  0  0  0  0
   86.4280   53.6010   44.1870 C   0  0  0  0  0  2  0  0  0  0  0  0
   86.3480   53.8990   45.7000 C   0  0  0  0  0  2  0  0  0  0  0  0
   85.9870   52.6240   46.5020 C   0  0  1  0  0  0  0  0  0  0  0  0
   87.1440   51.6450   46.2840 C   0  0  1  0  0  3  0  0  0  0  0  0
   86.9590   50.5730   47.3500 C   0  0  0  0  0  2  0  0  0  0  0  0
   86.4200   51.3470   48.5630 C   0  0  0  0  0  2  0  0  0  0  0  0
   86.0380   52.7630   48.0560 C   0  0  2  0  0  3  0  0  0  0  0  0
   84.6340   52.0270   46.0150 C   0  0  0  0  0  1  0  0  0  0  0  0
   85.6390   51.8260   41.9110 C   0  0  0  0  0  1  0  0  0  0  0  0
   89.7700   51.3320   39.0950 O   0  0  0  0  0  0  0  0  0  0  0  0
   90.5230   51.9250   38.9450 H   0  0  0  0  0  0  0  0  0  0  0  0
   84.8740   53.4300   48.8830 C   0  0  2  0  0  3  0  0  0  0  0  0
   83.8390   52.4750   49.5140 C   0  0  0  0  0  1  0  0  0  0  0  0
   84.1190   54.5640   48.1390 C   0  0  0  0  0  3  0  0  0  0  0  0
   84.9480   55.8110   47.7570 C   0  0  0  0  0  3  0  0  0  0  0  0
   84.2040   56.8670   46.8950 C   0  0  2  0  0  3  0  0  0  0  0  0
   82.7620   56.4200   46.5880 C   0  0  0  0  0  1  0  0  0  0  0  0
   84.9700   57.2320   45.5830 C   0  0  0  0  0  3  0  0  0  0  0  0
   84.3310   56.5810   44.3440 C   0  0  0  0  0  1  0  0  0  0  0  0
   85.1330   58.7440   45.3620 C   0  0  0  0  0  1  0  0  0  0  0  0
  1 20  1  6  0  0  0
  1  6  1  0  0  0  0
  1  2  1  0  0  0  0
  2  3  1  0  0  0  0
  3  4  1  0  0  0  0
  4 19  1  6  0  0  0
  4 10  1  0  0  0  0
  5  6  1  6  0  0  0
  5  4  1  0  0  0  0
  5  7  1  0  0  0  0
  7  8  1  0  0  0  0
  9  8  1  1  0  0  0
  9 14  1  0  0  0  0
 10 11  1  1  0  0  0
 10  9  1  0  0  0  0
 11 12  1  0  0  0  0
 12 13  1  0  0  0  0
 13 18  1  6  0  0  0
 13 17  1  0  0  0  0
 14 13  1  0  0  0  0
 14 15  1  1  0  0  0
 15 16  1  0  0  0  0
 17 16  1  0  0  0  0
 17 22  1  1  0  0  0
 21 20  1  0  0  0  0
 22 23  1  6  0  0  0
 24 22  1  0  0  0  0
 25 24  2  0  0  0  0
 26 27  1  6  0  0  0
 26 25  1  0  0  0  0
 28 26  1  0  0  0  0
 29 28  1  0  0  0  0
 30 28  1  0  0  0  0
M  END
>  <MODEL>
2

>  <REMARK>
 VINA RESULT:    -9.383      3.434      8.249
 INTER + INTRA:         -13.009
 INTER:                 -12.230
 INTRA:                  -0.779
 UNBOUND:                -0.609
  Name = 
  12 active torsions:
  status: ('A' for Active; 'I' for Inactive)
    1  A    between atoms: O_1  and  C_2
    2  A    between atoms: C_5  and  C_29
    3  A    between atoms: C_14  and  C_28
    4  A    between atoms: C_18  and  C_19
    5  A    between atoms: C_19  and  C_20
    6  A    between atoms: C_19  and  C_27
    7  A    between atoms: C_20  and  C_21
    8  A    between atoms: C_21  and  C_22
    9  A    between atoms: C_22  and  C_23
   10  A    between atoms: C_22  and  C_26
   11  A    between atoms: C_23  and  C_24
   12  A    between atoms: C_23  and  C_25
                            x       y       z     vdW  Elec       q    Type
                         _______ _______ _______ _____ _____    ______ ____

>  <TORSDO>
F 6

$$$$
=
 OpenBabel09092515023D

 30 33  0  0  1  0  0  0  0  0999 V2000
   84.6870   57.4100   46.1980 C   0  0  1  0  0  3  0  0  0  0  0  0
   83.5860   56.3930   45.8260 C   0  0  0  0  0  2  0  0  0  0  0  0
   83.7350   55.8780   44.3910 C   0  0  0  0  0  2  0  0  0  0  0  0
   85.0740   55.0960   44.1680 C   0  0  1  0  0  0  0  0  0  0  0  0
   86.2630   55.7800   44.9710 C   0  0  1  0  0  3  0  0  0  0  0  0
   85.9630   57.2490   45.3420 C   0  0  0  0  0  2  0  0  0  0  0  0
   86.7040   54.9890   46.2100 C   0  0  0  0  0  2  0  0  0  0  0  0
   87.0110   53.5770   45.8280 C   0  0  0  0  0  2  0  0  0  0  0  0
   86.1570   52.8840   45.0530 C   0  0  2  0  0  3  0  0  0  0  0  0
   84.8630   53.5670   44.5900 C   0  0  2  0  0  3  0  0  0  0  0  0
   84.0520   52.7170   43.5460 C   0  0  0  0  0  2  0  0  0  0  0  0
   84.1240   51.1880   43.7490 C   0  0  0  0  0  2  0  0  0  0  0  0
   85.5930   50.7090   43.8600 C   0  0  1  0  0  0  0  0  0  0  0  0
   86.1600   51.3700   45.1200 C   0  0  1  0  0  3  0  0  0  0  0  0
   87.4490   50.6160   45.4150 C   0  0  0  0  0  2  0  0  0  0  0  0
   87.1310   49.1670   45.0130 C   0  0  0  0  0  2  0  0  0  0  0  0
   85.7900   49.2050   44.2320 C   0  0  2  0  0  3  0  0  0  0  0  0
   86.4040   51.1050   42.5930 C   0  0  0  0  0  1  0  0  0  0  0  0
   85.4280   55.2220   42.6600 C   0  0  0  0  0  1  0  0  0  0  0  0
   84.1850   58.7130   46.0510 O   0  0  0  0  0  0  0  0  0  0  0  0
   84.8450   59.3510   46.3600 H   0  0  0  0  0  0  0  0  0  0  0  0
   85.6520   48.0480   43.1710 C   0  0  2  0  0  3  0  0  0  0  0  0
   84.5390   47.0090   43.4220 C   0  0  0  0  0  1  0  0  0  0  0  0
   86.9740   47.2980   42.8550 C   0  0  0  0  0  2  0  0  0  0  0  0
   87.7660   47.7870   41.6220 C   0  0  0  0  0  2  0  0  0  0  0  0
   89.3130   47.7550   41.7690 C   0  0  2  0  0  3  0  0  0  0  0  0
   89.7900   46.4100   42.3490 C   0  0  0  0  0  1  0  0  0  0  0  0
   89.8710   48.9540   42.6010 C   0  0  0  0  0  3  0  0  0  0  0  0
   91.2010   48.6060   43.2910 C   0  0  0  0  0  1  0  0  0  0  0  0
   90.0180   50.2530   41.7920 C   0  0  0  0  0  1  0  0  0  0  0  0
  1 20  1  6  0  0  0
  2  1  1  0  0  0  0
  3  2  1  0  0  0  0
  4 19  1  6  0  0  0
  4  3  1  0  0  0  0
  4 10  1  0  0  0  0
  4  5  1  0  0  0  0
  5  6  1  1  0  0  0
  5  7  1  0  0  0  0
  6  1  1  0  0  0  0
  8  7  1  0  0  0  0
  9 14  1  0  0  0  0
  9  8  1  1  0  0  0
 10 11  1  6  0  0  0
 10  9  1  0  0  0  0
 11 12  1  0  0  0  0
 12 13  1  0  0  0  0
 13 18  1  6  0  0  0
 13 17  1  0  0  0  0
 13 14  1  0  0  0  0
 14 15  1  6  0  0  0
 16 15  1  0  0  0  0
 17 22  1  6  0  0  0
 17 16  1  0  0  0  0
 20 21  1  0  0  0  0
 22 23  1  1  0  0  0
 24 22  1  0  0  0  0
 25 26  1  0  0  0  0
 25 24  1  0  0  0  0
 26 27  1  1  0  0  0
 26 28  1  0  0  0  0
 28 29  1  0  0  0  0
 30 28  1  0  0  0  0
M  END
>  <MODEL>
3

>  <REMARK>
 VINA RESULT:    -9.170      1.626      3.739
 INTER + INTRA:         -12.727
 INTER:                 -11.161
 INTRA:                  -1.566
 UNBOUND:                -0.609
  Name = 
  12 active torsions:
  status: ('A' for Active; 'I' for Inactive)
    1  A    between atoms: O_1  and  C_2
    2  A    between atoms: C_5  and  C_29
    3  A    between atoms: C_14  and  C_28
    4  A    between atoms: C_18  and  C_19
    5  A    between atoms: C_19  and  C_20
    6  A    between atoms: C_19  and  C_27
    7  A    between atoms: C_20  and  C_21
    8  A    between atoms: C_21  and  C_22
    9  A    between atoms: C_22  and  C_23
   10  A    between atoms: C_22  and  C_26
   11  A    between atoms: C_23  and  C_24
   12  A    between atoms: C_23  and  C_25
                            x       y       z     vdW  Elec       q    Type
                         _______ _______ _______ _____ _____    ______ ____

>  <TORSDO>
F 6

$$$$
=
 OpenBabel09092515023D

 30 33  0  0  1  0  0  0  0  0999 V2000
   88.1860   48.4680   41.4030 C   0  0  1  0  0  3  0  0  0  0  0  0
   86.7960   48.5890   42.0640 C   0  0  0  0  0  2  0  0  0  0  0  0
   86.8930   48.8810   43.5650 C   0  0  0  0  0  2  0  0  0  0  0  0
   87.5850   50.2540   43.8670 C   0  0  1  0  0  0  0  0  0  0  0  0
   88.7830   50.5120   42.8550 C   0  0  1  0  0  3  0  0  0  0  0  0
   89.2880   49.2150   42.1870 C   0  0  0  0  0  2  0  0  0  0  0  0
   88.4740   51.5810   41.7970 C   0  0  0  0  0  2  0  0  0  0  0  0
   88.0090   52.8350   42.4640 C   0  0  0  0  0  2  0  0  0  0  0  0
   87.0730   52.7820   43.4280 C   0  0  2  0  0  3  0  0  0  0  0  0
   86.4870   51.4170   43.8120 C   0  0  2  0  0  3  0  0  0  0  0  0
   85.5470   51.4760   45.0710 C   0  0  0  0  0  2  0  0  0  0  0  0
   84.7200   52.7710   45.2100 C   0  0  0  0  0  2  0  0  0  0  0  0
   85.6240   54.0250   45.1110 C   0  0  1  0  0  0  0  0  0  0  0  0
   86.2210   54.0060   43.7000 C   0  0  1  0  0  3  0  0  0  0  0  0
   86.7940   55.4020   43.4960 C   0  0  0  0  0  2  0  0  0  0  0  0
   85.8040   56.3200   44.2310 C   0  0  0  0  0  2  0  0  0  0  0  0
   84.8800   55.3970   45.0710 C   0  0  2  0  0  3  0  0  0  0  0  0
   86.7340   53.9960   46.2010 C   0  0  0  0  0  1  0  0  0  0  0  0
   88.2180   50.1420   45.2830 C   0  0  0  0  0  1  0  0  0  0  0  0
   88.5300   47.1110   41.2890 O   0  0  0  0  0  0  0  0  0  0  0  0
   88.4200   46.6760   42.1480 H   0  0  0  0  0  0  0  0  0  0  0  0
   84.3190   56.0910   46.3700 C   0  0  2  0  0  3  0  0  0  0  0  0
   84.2530   57.6330   46.3570 C   0  0  0  0  0  1  0  0  0  0  0  0
   84.9920   55.6310   47.6910 C   0  0  0  0  0  2  0  0  0  0  0  0
   84.0840   54.9110   48.7130 C   0  0  0  0  0  2  0  0  0  0  0  0
   83.8850   53.3880   48.4710 C   0  0  2  0  0  3  0  0  0  0  0  0
   82.3900   53.0200   48.4400 C   0  0  0  0  0  1  0  0  0  0  0  0
   84.6620   52.5020   49.4960 C   0  0  0  0  0  3  0  0  0  0  0  0
   83.7240   51.5510   50.2600 C   0  0  0  0  0  1  0  0  0  0  0  0
   85.8250   51.7120   48.8750 C   0  0  0  0  0  1  0  0  0  0  0  0
  1 20  1  1  0  0  0
  1  2  1  0  0  0  0
  1  6  1  0  0  0  0
  2  3  1  0  0  0  0
  3  4  1  0  0  0  0
  4 19  1  1  0  0  0
  5  7  1  6  0  0  0
  5  4  1  0  0  0  0
  6  5  1  0  0  0  0
  7  8  1  0  0  0  0
  9  8  1  6  0  0  0
  9 14  1  0  0  0  0
  9 10  1  0  0  0  0
 10  4  1  0  0  0  0
 10 11  1  1  0  0  0
 11 12  1  0  0  0  0
 13 12  1  0  0  0  0
 13 18  1  1  0  0  0
 14 15  1  1  0  0  0
 14 13  1  0  0  0  0
 15 16  1  0  0  0  0
 16 17  1  0  0  0  0
 17 13  1  0  0  0  0
 17 22  1  1  0  0  0
 20 21  1  0  0  0  0
 22 23  1  6  0  0  0
 22 24  1  0  0  0  0
 24 25  1  0  0  0  0
 26 27  1  1  0  0  0
 26 25  1  0  0  0  0
 26 28  1  0  0  0  0
 28 29  1  0  0  0  0
 30 28  1  0  0  0  0
M  END
>  <MODEL>
4

>  <REMARK>
 VINA RESULT:    -8.848      2.992      7.847
 INTER + INTRA:         -12.302
 INTER:                 -11.368
 INTRA:                  -0.933
 UNBOUND:                -0.609
  Name = 
  12 active torsions:
  status: ('A' for Active; 'I' for Inactive)
    1  A    between atoms: O_1  and  C_2
    2  A    between atoms: C_5  and  C_29
    3  A    between atoms: C_14  and  C_28
    4  A    between atoms: C_18  and  C_19
    5  A    between atoms: C_19  and  C_20
    6  A    between atoms: C_19  and  C_27
    7  A    between atoms: C_20  and  C_21
    8  A    between atoms: C_21  and  C_22
    9  A    between atoms: C_22  and  C_23
   10  A    between atoms: C_22  and  C_26
   11  A    between atoms: C_23  and  C_24
   12  A    between atoms: C_23  and  C_25
                            x       y       z     vdW  Elec       q    Type
                         _______ _______ _______ _____ _____    ______ ____

>  <TORSDO>
F 6

$$$$
=
 OpenBabel09092515023D

 30 33  0  0  1  0  0  0  0  0999 V2000
   85.3080   57.4870   45.2330 C   0  0  1  0  0  3  0  0  0  0  0  0
   84.0380   56.6390   45.0050 C   0  0  0  0  0  2  0  0  0  0  0  0
   84.0570   55.9210   43.6510 C   0  0  0  0  0  2  0  0  0  0  0  0
   85.2340   54.8930   43.5320 C   0  0  1  0  0  0  0  0  0  0  0  0
   86.5440   55.4590   44.2320 C   0  0  1  0  0  3  0  0  0  0  0  0
   86.5140   56.9930   44.4020 C   0  0  0  0  0  2  0  0  0  0  0  0
   86.8740   54.7730   45.5650 C   0  0  0  0  0  2  0  0  0  0  0  0
   86.9220   53.2910   45.3750 C   0  0  0  0  0  2  0  0  0  0  0  0
   85.9400   52.6630   44.7030 C   0  0  2  0  0  3  0  0  0  0  0  0
   84.7720   53.4940   44.1560 C   0  0  2  0  0  3  0  0  0  0  0  0
   83.7980   52.6700   43.2380 C   0  0  0  0  0  2  0  0  0  0  0  0
   83.6100   51.1920   43.6450 C   0  0  0  0  0  2  0  0  0  0  0  0
   84.9760   50.4820   43.8160 C   0  0  1  0  0  0  0  0  0  0  0  0
   85.6820   51.1940   44.9730 C   0  0  1  0  0  3  0  0  0  0  0  0
   86.8280   50.2700   45.3630 C   0  0  0  0  0  2  0  0  0  0  0  0
   86.2530   48.8600   45.1610 C   0  0  0  0  0  2  0  0  0  0  0  0
   84.9180   49.0290   44.3860 C   0  0  2  0  0  3  0  0  0  0  0  0
   85.8090   50.5590   42.5040 C   0  0  0  0  0  1  0  0  0  0  0  0
   85.5640   54.7550   42.0190 C   0  0  0  0  0  1  0  0  0  0  0  0
   85.0360   58.8270   44.9130 O   0  0  0  0  0  0  0  0  0  0  0  0
   84.2020   58.8790   44.4210 H   0  0  0  0  0  0  0  0  0  0  0  0
   84.5540   47.7850   43.4910 C   0  0  2  0  0  3  0  0  0  0  0  0
   83.1190   47.2320   43.6260 C   0  0  0  0  0  1  0  0  0  0  0  0
   85.5550   46.6030   43.5860 C   0  0  0  0  0  2  0  0  0  0  0  0
   86.6420   46.5290   42.4890 C   0  0  0  0  0  2  0  0  0  0  0  0
   87.9440   45.7810   42.8910 C   0  0  2  0  0  3  0  0  0  0  0  0
   89.1610   46.3340   42.1270 C   0  0  0  0  0  1  0  0  0  0  0  0
   87.8320   44.2320   42.7240 C   0  0  0  0  0  3  0  0  0  0  0  0
   87.8530   43.5040   44.0790 C   0  0  0  0  0  1  0  0  0  0  0  0
   86.6120   43.7840   41.9020 C   0  0  0  0  0  1  0  0  0  0  0  0
  1 20  1  6  0  0  0
  2  1  1  0  0  0  0
  3  2  1  0  0  0  0
  4 19  1  6  0  0  0
  4  3  1  0  0  0  0
  4 10  1  0  0  0  0
  4  5  1  0  0  0  0
  5  6  1  1  0  0  0
  5  7  1  0  0  0  0
  6  1  1  0  0  0  0
  8  7  1  0  0  0  0
  9 14  1  0  0  0  0
  9  8  1  1  0  0  0
 10 11  1  6  0  0  0
 10  9  1  0  0  0  0
 11 12  1  0  0  0  0
 12 13  1  0  0  0  0
 13 18  1  6  0  0  0
 13 17  1  0  0  0  0
 13 14  1  0  0  0  0
 14 15  1  6  0  0  0
 16 15  1  0  0  0  0
 17 22  1  6  0  0  0
 17 16  1  0  0  0  0
 21 20  1  0  0  0  0
 22 24  1  0  0  0  0
 22 23  1  1  0  0  0
 25 26  1  0  0  0  0
 25 24  1  0  0  0  0
 26 27  1  6  0  0  0
 28 26  1  0  0  0  0
 28 29  1  0  0  0  0
 30 28  1  0  0  0  0
M  END
>  <MODEL>
5

>  <REMARK>
 VINA RESULT:    -8.456      1.840      3.512
 INTER + INTRA:         -11.784
 INTER:                 -10.962
 INTRA:                  -0.822
 UNBOUND:                -0.609
  Name = 
  12 active torsions:
  status: ('A' for Active; 'I' for Inactive)
    1  A    between atoms: O_1  and  C_2
    2  A    between atoms: C_5  and  C_29
    3  A    between atoms: C_14  and  C_28
    4  A    between atoms: C_18  and  C_19
    5  A    between atoms: C_19  and  C_20
    6  A    between atoms: C_19  and  C_27
    7  A    between atoms: C_20  and  C_21
    8  A    between atoms: C_21  and  C_22
    9  A    between atoms: C_22  and  C_23
   10  A    between atoms: C_22  and  C_26
   11  A    between atoms: C_23  and  C_24
   12  A    between atoms: C_23  and  C_25
                            x       y       z     vdW  Elec       q    Type
                         _______ _______ _______ _____ _____    ______ ____

>  <TORSDO>
F 6

$$$$
=
 OpenBabel09092515023D

 30 33  0  0  1  0  0  0  0  0999 V2000
   84.3670   57.8300   46.1940 C   0  0  1  0  0  3  0  0  0  0  0  0
   83.5660   56.8640   45.2950 C   0  0  0  0  0  2  0  0  0  0  0  0
   84.4190   56.2880   44.1590 C   0  0  0  0  0  2  0  0  0  0  0  0
   85.6150   55.4240   44.6850 C   0  0  1  0  0  0  0  0  0  0  0  0
   86.2400   56.0700   45.9960 C   0  0  1  0  0  3  0  0  0  0  0  0
   85.8890   57.5660   46.1480 C   0  0  0  0  0  2  0  0  0  0  0  0
   85.9010   55.3010   47.2810 C   0  0  0  0  0  2  0  0  0  0  0  0
   86.2690   53.8620   47.1230 C   0  0  0  0  0  2  0  0  0  0  0  0
   85.9120   53.1900   46.0130 C   0  0  2  0  0  3  0  0  0  0  0  0
   85.1100   53.9260   44.9320 C   0  0  2  0  0  3  0  0  0  0  0  0
   84.9220   53.0850   43.6180 C   0  0  0  0  0  2  0  0  0  0  0  0
   84.7720   51.5630   43.8300 C   0  0  0  0  0  2  0  0  0  0  0  0
   85.9220   51.0060   44.7070 C   0  0  1  0  0  0  0  0  0  0  0  0
   85.7760   51.6810   46.0740 C   0  0  1  0  0  3  0  0  0  0  0  0
   86.6580   50.8670   47.0110 C   0  0  0  0  0  2  0  0  0  0  0  0
   86.5050   49.4240   46.5040 C   0  0  0  0  0  2  0  0  0  0  0  0
   85.7890   49.5080   45.1290 C   0  0  2  0  0  3  0  0  0  0  0  0
   87.3060   51.3100   44.0640 C   0  0  0  0  0  1  0  0  0  0  0  0
   86.7240   55.4740   43.5960 C   0  0  0  0  0  1  0  0  0  0  0  0
   84.1090   59.1530   45.8000 O   0  0  0  0  0  0  0  0  0  0  0  0
   83.9550   59.1820   44.8430 H   0  0  0  0  0  0  0  0  0  0  0  0
   86.1580   48.3230   44.1590 C   0  0  2  0  0  3  0  0  0  0  0  0
   86.9740   48.6870   42.9000 C   0  0  0  0  0  1  0  0  0  0  0  0
   84.9570   47.4350   43.7360 C   0  0  0  0  0  2  0  0  0  0  0  0
   83.7610   48.1590   43.0790 C   0  0  0  0  0  2  0  0  0  0  0  0
   82.3940   47.9700   43.7930 C   0  0  2  0  0  3  0  0  0  0  0  0
   81.6960   46.6790   43.3280 C   0  0  0  0  0  1  0  0  0  0  0  0
   81.4500   49.2060   43.6390 C   0  0  0  0  0  3  0  0  0  0  0  0
   81.8280   50.0690   42.4230 C   0  0  0  0  0  1  0  0  0  0  0  0
   79.9580   48.8420   43.5860 C   0  0  0  0  0  1  0  0  0  0  0  0
  1 20  1  6  0  0  0
  2  1  1  0  0  0  0
  3  4  1  0  0  0  0
  3  2  1  0  0  0  0
  4 19  1  6  0  0  0
  4 10  1  0  0  0  0
  4  5  1  0  0  0  0
  5  6  1  1  0  0  0
  5  7  1  0  0  0  0
  6  1  1  0  0  0  0
  8  7  1  0  0  0  0
  9 14  1  0  0  0  0
  9  8  1  1  0  0  0
 10 11  1  6  0  0  0
 10  9  1  0  0  0  0
 11 12  1  0  0  0  0
 12 13  1  0  0  0  0
 13 18  1  6  0  0  0
 13 17  1  0  0  0  0
 13 14  1  0  0  0  0
 14 15  1  1  0  0  0
 16 15  1  0  0  0  0
 17 22  1  6  0  0  0
 17 16  1  0  0  0  0
 21 20  1  0  0  0  0
 22 23  1  6  0  0  0
 24 22  1  0  0  0  0
 25 24  1  0  0  0  0
 25 26  1  0  0  0  0
 26 27  1  6  0  0  0
 28 26  1  0  0  0  0
 29 28  1  0  0  0  0
 30 28  1  0  0  0  0
M  END
>  <MODEL>
6

>  <REMARK>
 VINA RESULT:    -8.367      2.365      4.433
 INTER + INTRA:         -11.667
 INTER:                 -11.106
 INTRA:                  -0.561
 UNBOUND:                -0.609
  Name = 
  12 active torsions:
  status: ('A' for Active; 'I' for Inactive)
    1  A    between atoms: O_1  and  C_2
    2  A    between atoms: C_5  and  C_29
    3  A    between atoms: C_14  and  C_28
    4  A    between atoms: C_18  and  C_19
    5  A    between atoms: C_19  and  C_20
    6  A    between atoms: C_19  and  C_27
    7  A    between atoms: C_20  and  C_21
    8  A    between atoms: C_21  and  C_22
    9  A    between atoms: C_22  and  C_23
   10  A    between atoms: C_22  and  C_26
   11  A    between atoms: C_23  and  C_24
   12  A    between atoms: C_23  and  C_25
                            x       y       z     vdW  Elec       q    Type
                         _______ _______ _______ _____ _____    ______ ____

>  <TORSDO>
F 6

$$$$
=
 OpenBabel09092515023D

 30 33  0  0  1  0  0  0  0  0999 V2000
   80.1910   47.3120   44.6190 C   0  0  1  0  0  3  0  0  0  0  0  0
   81.3560   46.3210   44.8280 C   0  0  0  0  0  2  0  0  0  0  0  0
   82.1140   46.0360   43.5270 C   0  0  0  0  0  2  0  0  0  0  0  0
   82.7970   47.3170   42.9350 C   0  0  1  0  0  0  0  0  0  0  0  0
   81.8670   48.5910   43.1360 C   0  0  1  0  0  3  0  0  0  0  0  0
   80.3890   48.2170   43.3820 C   0  0  0  0  0  2  0  0  0  0  0  0
   82.3700   49.5530   44.2200 C   0  0  0  0  0  2  0  0  0  0  0  0
   83.7930   49.9210   43.9530 C   0  0  0  0  0  2  0  0  0  0  0  0
   84.6940   48.9680   43.6550 C   0  0  2  0  0  3  0  0  0  0  0  0
   84.2330   47.5050   43.6150 C   0  0  2  0  0  3  0  0  0  0  0  0
   85.3340   46.5210   43.0760 C   0  0  0  0  0  2  0  0  0  0  0  0
   86.7850   46.8940   43.4490 C   0  0  0  0  0  2  0  0  0  0  0  0
   87.0970   48.3650   43.0740 C   0  0  1  0  0  0  0  0  0  0  0  0
   86.1630   49.2270   43.9280 C   0  0  1  0  0  3  0  0  0  0  0  0
   86.7260   50.6380   43.8260 C   0  0  0  0  0  2  0  0  0  0  0  0
   88.2480   50.4270   43.7780 C   0  0  0  0  0  2  0  0  0  0  0  0
   88.4800   48.9080   43.5530 C   0  0  2  0  0  3  0  0  0  0  0  0
   86.8700   48.6090   41.5540 C   0  0  0  0  0  1  0  0  0  0  0  0
   82.9220   47.0970   41.4010 C   0  0  0  0  0  1  0  0  0  0  0  0
   78.9900   46.5960   44.4880 O   0  0  0  0  0  0  0  0  0  0  0  0
   79.1690   45.6460   44.5660 H   0  0  0  0  0  0  0  0  0  0  0  0
   89.8220   48.5880   42.7910 C   0  0  2  0  0  3  0  0  0  0  0  0
   90.8780   47.7700   43.5650 C   0  0  0  0  0  1  0  0  0  0  0  0
   90.5150   49.8220   42.1530 C   0  0  0  0  0  2  0  0  0  0  0  0
   89.7340   50.5510   41.0370 C   0  0  0  0  0  2  0  0  0  0  0  0
   89.9590   52.0870   40.9620 C   0  0  2  0  0  3  0  0  0  0  0  0
   88.9090   52.8440   41.7970 C   0  0  0  0  0  1  0  0  0  0  0  0
   90.0050   52.6250   39.4960 C   0  0  0  0  0  3  0  0  0  0  0  0
   88.5950   52.8510   38.9220 C   0  0  0  0  0  1  0  0  0  0  0  0
   90.8540   53.8950   39.3290 C   0  0  0  0  0  1  0  0  0  0  0  0
  1 20  1  6  0  0  0
  1  2  1  0  0  0  0
  3  2  1  0  0  0  0
  4 19  1  6  0  0  0
  4  5  1  0  0  0  0
  4  3  1  0  0  0  0
  4 10  1  0  0  0  0
  5  6  1  1  0  0  0
  5  7  1  0  0  0  0
  6  1  1  0  0  0  0
  8  7  1  0  0  0  0
  9 14  1  0  0  0  0
  9  8  1  1  0  0  0
 10 11  1  6  0  0  0
 10  9  1  0  0  0  0
 11 12  1  0  0  0  0
 13 18  1  6  0  0  0
 13 12  1  0  0  0  0
 13 17  1  0  0  0  0
 13 14  1  0  0  0  0
 14 15  1  6  0  0  0
 16 15  1  0  0  0  0
 17 22  1  6  0  0  0
 17 16  1  0  0  0  0
 20 21  1  0  0  0  0
 22 23  1  1  0  0  0
 24 22  1  0  0  0  0
 25 24  1  0  0  0  0
 26 25  1  0  0  0  0
 26 27  1  1  0  0  0
 28 26  1  0  0  0  0
 29 28  1  0  0  0  0
 30 28  1  0  0  0  0
M  END
>  <MODEL>
7

>  <REMARK>
 VINA RESULT:    -8.295      3.574      6.785
 INTER + INTRA:         -11.572
 INTER:                 -11.115
 INTRA:                  -0.457
 UNBOUND:                -0.609
  Name = 
  12 active torsions:
  status: ('A' for Active; 'I' for Inactive)
    1  A    between atoms: O_1  and  C_2
    2  A    between atoms: C_5  and  C_29
    3  A    between atoms: C_14  and  C_28
    4  A    between atoms: C_18  and  C_19
    5  A    between atoms: C_19  and  C_20
    6  A    between atoms: C_19  and  C_27
    7  A    between atoms: C_20  and  C_21
    8  A    between atoms: C_21  and  C_22
    9  A    between atoms: C_22  and  C_23
   10  A    between atoms: C_22  and  C_26
   11  A    between atoms: C_23  and  C_24
   12  A    between atoms: C_23  and  C_25
                            x       y       z     vdW  Elec       q    Type
                         _______ _______ _______ _____ _____    ______ ____

>  <TORSDO>
F 6

$$$$
=
 OpenBabel09092515023D

 30 33  0  0  1  0  0  0  0  0999 V2000
   90.0490   47.2760   41.8790 C   0  0  1  0  0  3  0  0  0  0  0  0
   88.5280   47.1130   42.0900 C   0  0  0  0  0  2  0  0  0  0  0  0
   88.0170   47.9370   43.2760 C   0  0  0  0  0  2  0  0  0  0  0  0
   88.2150   49.4770   43.0680 C   0  0  1  0  0  0  0  0  0  0  0  0
   89.5980   49.7710   42.3400 C   0  0  1  0  0  3  0  0  0  0  0  0
   90.5960   48.5990   42.4620 C   0  0  0  0  0  2  0  0  0  0  0  0
   89.4430   50.2000   40.8750 C   0  0  0  0  0  2  0  0  0  0  0  0
   88.4920   51.3490   40.7810 C   0  0  0  0  0  2  0  0  0  0  0  0
   87.3160   51.3100   41.4320 C   0  0  2  0  0  3  0  0  0  0  0  0
   86.9690   50.0610   42.2520 C   0  0  2  0  0  3  0  0  0  0  0  0
   85.6590   50.2220   43.1060 C   0  0  0  0  0  2  0  0  0  0  0  0
   84.5570   51.0870   42.4570 C   0  0  0  0  0  2  0  0  0  0  0  0
   85.1180   52.4580   42.0040 C   0  0  1  0  0  0  0  0  0  0  0  0
   86.1620   52.1520   40.9250 C   0  0  1  0  0  3  0  0  0  0  0  0
   86.4260   53.4880   40.2430 C   0  0  0  0  0  2  0  0  0  0  0  0
   85.0550   54.1820   40.2450 C   0  0  0  0  0  2  0  0  0  0  0  0
   84.1370   53.3550   41.1840 C   0  0  2  0  0  3  0  0  0  0  0  0
   85.7440   53.2250   43.2040 C   0  0  0  0  0  1  0  0  0  0  0  0
   88.3140   50.1170   44.4820 C   0  0  0  0  0  1  0  0  0  0  0  0
   90.7180   46.1920   42.4700 O   0  0  0  0  0  0  0  0  0  0  0  0
   90.7440   46.3120   43.4320 H   0  0  0  0  0  0  0  0  0  0  0  0
   83.0070   54.2140   41.8690 C   0  0  2  0  0  3  0  0  0  0  0  0
   81.5960   54.1220   41.2500 C   0  0  0  0  0  1  0  0  0  0  0  0
   83.3660   55.7100   42.0740 C   0  0  0  0  0  2  0  0  0  0  0  0
   84.7040   56.0080   42.7870 C   0  0  0  0  0  2  0  0  0  0  0  0
   84.5950   56.8730   44.0730 C   0  0  2  0  0  3  0  0  0  0  0  0
   85.6280   58.0160   44.0640 C   0  0  0  0  0  1  0  0  0  0  0  0
   84.7010   56.0310   45.3850 C   0  0  0  0  0  3  0  0  0  0  0  0
   86.1540   55.9130   45.8760 C   0  0  0  0  0  1  0  0  0  0  0  0
   83.7980   56.5380   46.5200 C   0  0  0  0  0  1  0  0  0  0  0  0
  1  2  1  0  0  0  0
  1  6  1  0  0  0  0
  1 20  1  1  0  0  0
  2  3  1  0  0  0  0
  4  3  1  0  0  0  0
  4 19  1  1  0  0  0
  5  7  1  6  0  0  0
  5  6  1  0  0  0  0
  5  4  1  0  0  0  0
  8  7  1  0  0  0  0
  9  8  1  6  0  0  0
  9 10  1  0  0  0  0
 10  4  1  0  0  0  0
 10 11  1  1  0  0  0
 12 11  1  0  0  0  0
 13 12  1  0  0  0  0
 13 18  1  1  0  0  0
 14 15  1  1  0  0  0
 14  9  1  0  0  0  0
 14 13  1  0  0  0  0
 15 16  1  0  0  0  0
 16 17  1  0  0  0  0
 17 22  1  1  0  0  0
 17 13  1  0  0  0  0
 20 21  1  0  0  0  0
 22 23  1  6  0  0  0
 22 24  1  0  0  0  0
 24 25  1  0  0  0  0
 25 26  1  0  0  0  0
 26 27  1  1  0  0  0
 26 28  1  0  0  0  0
 28 29  1  0  0  0  0
 28 30  1  0  0  0  0
M  END
>  <MODEL>
8

>  <REMARK>
 VINA RESULT:    -8.008      3.164      8.382
 INTER + INTRA:         -11.193
 INTER:                 -10.835
 INTRA:                  -0.358
 UNBOUND:                -0.609
  Name = 
  12 active torsions:
  status: ('A' for Active; 'I' for Inactive)
    1  A    between atoms: O_1  and  C_2
    2  A    between atoms: C_5  and  C_29
    3  A    between atoms: C_14  and  C_28
    4  A    between atoms: C_18  and  C_19
    5  A    between atoms: C_19  and  C_20
    6  A    between atoms: C_19  and  C_27
    7  A    between atoms: C_20  and  C_21
    8  A    between atoms: C_21  and  C_22
    9  A    between atoms: C_22  and  C_23
   10  A    between atoms: C_22  and  C_26
   11  A    between atoms: C_23  and  C_24
   12  A    between atoms: C_23  and  C_25
                            x       y       z     vdW  Elec       q    Type
                         _______ _______ _______ _____ _____    ______ ____

>  <TORSDO>
F 6

$$$$
=
 OpenBabel09092515023D

 30 33  0  0  1  0  0  0  0  0999 V2000
   78.9820   49.2140   44.3940 C   0  0  1  0  0  3  0  0  0  0  0  0
   80.2070   49.0730   45.3240 C   0  0  0  0  0  2  0  0  0  0  0  0
   81.3480   48.2920   44.6630 C   0  0  0  0  0  2  0  0  0  0  0  0
   81.9110   49.0120   43.3900 C   0  0  1  0  0  0  0  0  0  0  0  0
   80.7340   49.6920   42.5650 C   0  0  1  0  0  3  0  0  0  0  0  0
   79.3500   49.0940   42.8980 C   0  0  0  0  0  2  0  0  0  0  0  0
   80.7060   51.2220   42.6830 C   0  0  0  0  0  2  0  0  0  0  0  0
   82.0460   51.7840   42.3350 C   0  0  0  0  0  2  0  0  0  0  0  0
   83.1620   51.2490   42.8630 C   0  0  2  0  0  3  0  0  0  0  0  0
   83.0250   50.0710   43.8360 C   0  0  2  0  0  3  0  0  0  0  0  0
   84.4040   49.4270   44.2300 C   0  0  0  0  0  2  0  0  0  0  0  0
   85.5840   50.4170   44.3310 C   0  0  0  0  0  2  0  0  0  0  0  0
   85.6990   51.2800   43.0500 C   0  0  1  0  0  0  0  0  0  0  0  0
   84.4090   52.1030   42.9750 C   0  0  1  0  0  3  0  0  0  0  0  0
   84.6940   53.1880   41.9460 C   0  0  0  0  0  2  0  0  0  0  0  0
   86.1750   53.5310   42.1690 C   0  0  0  0  0  2  0  0  0  0  0  0
   86.7530   52.4320   43.1000 C   0  0  2  0  0  3  0  0  0  0  0  0
   85.8780   50.3820   41.7910 C   0  0  0  0  0  1  0  0  0  0  0  0
   82.5140   47.9100   42.4740 C   0  0  0  0  0  1  0  0  0  0  0  0
   78.0340   48.2330   44.7230 O   0  0  0  0  0  0  0  0  0  0  0  0
   77.2770   48.2980   44.1200 H   0  0  0  0  0  0  0  0  0  0  0  0
   88.2920   52.1770   42.8860 C   0  0  2  0  0  3  0  0  0  0  0  0
   88.9230   52.7840   41.6140 C   0  0  0  0  0  1  0  0  0  0  0  0
   88.7240   50.6900   42.9970 C   0  0  0  0  0  3  0  0  0  0  0  0
   89.7760   50.1990   41.9760 C   0  0  0  0  0  3  0  0  0  0  0  0
   89.8810   48.6570   41.8180 C   0  0  2  0  0  3  0  0  0  0  0  0
   88.5130   48.0370   41.4780 C   0  0  0  0  0  1  0  0  0  0  0  0
   90.5210   47.9600   43.0610 C   0  0  0  0  0  3  0  0  0  0  0  0
   90.7710   46.4620   42.8150 C   0  0  0  0  0  1  0  0  0  0  0  0
   91.8080   48.6370   43.5570 C   0  0  0  0  0  1  0  0  0  0  0  0
  1 20  1  1  0  0  0
  1  2  1  0  0  0  0
  3  2  1  0  0  0  0
  4 19  1  6  0  0  0
  4 10  1  0  0  0  0
  4  3  1  0  0  0  0
  5  7  1  1  0  0  0
  5  6  1  0  0  0  0
  5  4  1  0  0  0  0
  6  1  1  0  0  0  0
  8  7  1  0  0  0  0
  9  8  1  1  0  0  0
  9 14  1  0  0  0  0
  9 10  1  0  0  0  0
 10 11  1  6  0  0  0
 11 12  1  0  0  0  0
 13 18  1  6  0  0  0
 13 17  1  0  0  0  0
 13 12  1  0  0  0  0
 14 15  1  6  0  0  0
 14 13  1  0  0  0  0
 15 16  1  0  0  0  0
 16 17  1  0  0  0  0
 17 22  1  6  0  0  0
 21 20  1  0  0  0  0
 22 23  1  6  0  0  0
 22 24  1  0  0  0  0
 25 24  2  0  0  0  0
 26 27  1  1  0  0  0
 26 25  1  0  0  0  0
 26 28  1  0  0  0  0
 28 30  1  0  0  0  0
 29 28  1  0  0  0  0
M  END
>  <MODEL>
9

>  <REMARK>
 VINA RESULT:    -7.881      3.774      5.899
 INTER + INTRA:         -11.024
 INTER:                 -10.414
 INTRA:                  -0.609
 UNBOUND:                -0.609
  Name = 
  12 active torsions:
  status: ('A' for Active; 'I' for Inactive)
    1  A    between atoms: O_1  and  C_2
    2  A    between atoms: C_5  and  C_29
    3  A    between atoms: C_14  and  C_28
    4  A    between atoms: C_18  and  C_19
    5  A    between atoms: C_19  and  C_20
    6  A    between atoms: C_19  and  C_27
    7  A    between atoms: C_20  and  C_21
    8  A    between atoms: C_21  and  C_22
    9  A    between atoms: C_22  and  C_23
   10  A    between atoms: C_22  and  C_26
   11  A    between atoms: C_23  and  C_24
   12  A    between atoms: C_23  and  C_25
                            x       y       z     vdW  Elec       q    Type
                         _______ _______ _______ _____ _____    ______ ____

>  <TORSDO>
F 6

$$$$
