=
 OpenBabel08112514243D

 30 33  0  0  1  0  0  0  0  0999 V2000
   85.4620   56.3710   46.1030 C   0  0  1  0  0  3  0  0  0  0  0  0
   86.2100   55.3020   46.9280 C   0  0  0  0  0  2  0  0  0  0  0  0
   85.5150   53.9380   46.8730 C   0  0  0  0  0  2  0  0  0  0  0  0
   85.4690   53.3450   45.4230 C   0  0  1  0  0  0  0  0  0  0  0  0
   85.2080   54.4940   44.3560 C   0  0  1  0  0  3  0  0  0  0  0  0
   84.5880   55.7600   44.9840 C   0  0  0  0  0  2  0  0  0  0  0  0
   86.4470   54.8520   43.5250 C   0  0  0  0  0  2  0  0  0  0  0  0
   87.0190   53.6180   42.9070 C   0  0  0  0  0  2  0  0  0  0  0  0
   87.2020   52.5110   43.6500 C   0  0  2  0  0  3  0  0  0  0  0  0
   86.8290   52.5530   45.1380 C   0  0  2  0  0  3  0  0  0  0  0  0
   86.9170   51.1490   45.8390 C   0  0  0  0  0  2  0  0  0  0  0  0
   88.0410   50.2270   45.3200 C   0  0  0  0  0  2  0  0  0  0  0  0
   87.9850   50.0930   43.7770 C   0  0  1  0  0  0  0  0  0  0  0  0
   88.2440   51.4970   43.2220 C   0  0  1  0  0  3  0  0  0  0  0  0
   88.5500   51.2860   41.7450 C   0  0  0  0  0  2  0  0  0  0  0  0
   89.3240   49.9580   41.7130 C   0  0  0  0  0  2  0  0  0  0  0  0
   89.1710   49.3190   43.1200 C   0  0  2  0  0  3  0  0  0  0  0  0
   86.6040   49.5430   43.3180 C   0  0  0  0  0  1  0  0  0  0  0  0
   84.2390   52.3950   45.3610 C   0  0  0  0  0  1  0  0  0  0  0  0
   84.6560   57.1390   46.9600 O   0  0  0  0  0  0  0  0  0  0  0  0
   83.7230   56.9240   46.8060 H   0  0  0  0  0  0  0  0  0  0  0  0
   89.2430   47.7450   43.1020 C   0  0  2  0  0  3  0  0  0  0  0  0
   90.6530   47.1170   43.1260 C   0  0  0  0  0  1  0  0  0  0  0  0
   88.4160   47.0710   41.9740 C   0  0  0  0  0  2  0  0  0  0  0  0
   88.3190   45.5290   42.0160 C   0  0  0  0  0  2  0  0  0  0  0  0
   87.4390   44.9480   43.1580 C   0  0  2  0  0  3  0  0  0  0  0  0
   87.4600   43.4090   43.1480 C   0  0  0  0  0  1  0  0  0  0  0  0
   85.9740   45.4900   43.1320 C   0  0  0  0  0  3  0  0  0  0  0  0
   84.9560   44.3810   42.8190 C   0  0  0  0  0  1  0  0  0  0  0  0
   85.5670   46.2350   44.4140 C   0  0  0  0  0  1  0  0  0  0  0  0
  1  2  1  0  0  0  0
  1 20  1  1  0  0  0
  3  2  1  0  0  0  0
  4 19  1  6  0  0  0
  4  3  1  0  0  0  0
  5  7  1  1  0  0  0
  5  6  1  0  0  0  0
  5  4  1  0  0  0  0
  6  1  1  0  0  0  0
  8  7  1  0  0  0  0
  9  8  1  1  0  0  0
  9 10  1  0  0  0  0
 10  4  1  0  0  0  0
 10 11  1  6  0  0  0
 12 11  1  0  0  0  0
 13 18  1  6  0  0  0
 13 12  1  0  0  0  0
 14 15  1  6  0  0  0
 14  9  1  0  0  0  0
 14 13  1  0  0  0  0
 16 15  1  0  0  0  0
 16 17  1  0  0  0  0
 17 22  1  6  0  0  0
 17 13  1  0  0  0  0
 21 20  1  0  0  0  0
 22 23  1  6  0  0  0
 24 25  1  0  0  0  0
 24 22  1  0  0  0  0
 25 26  1  0  0  0  0
 26 27  1  6  0  0  0
 28 26  1  0  0  0  0
 28 30  1  0  0  0  0
 29 28  1  0  0  0  0
M  END
>  <MODEL>
1

>  <REMARK>
 VINA RESULT:   -10.104      0.000      0.000
 INTER + INTRA:         -13.951
 INTER:                 -12.941
 INTRA:                  -1.010
 UNBOUND:                -0.599
  Name = 
  12 active torsions:
  status: ('A' for Active; 'I' for Inactive)
    1  A    between atoms: O_1  and  C_2
    2  A    between atoms: C_5  and  C_29
    3  A    between atoms: C_14  and  C_28
    4  A    between atoms: C_18  and  C_19
    5  A    between atoms: C_19  and  C_20
    6  A    between atoms: C_19  and  C_27
    7  A    between atoms: C_20  and  C_21
    8  A    between atoms: C_21  and  C_22
    9  A    between atoms: C_22  and  C_23
   10  A    between atoms: C_22  and  C_26
   11  A    between atoms: C_23  and  C_24
   12  A    between atoms: C_23  and  C_25
                            x       y       z     vdW  Elec       q    Type
                         _______ _______ _______ _____ _____    ______ ____

>  <TORSDO>
F 6

$$$$
=
 OpenBabel08112514243D

 30 33  0  0  1  0  0  0  0  0999 V2000
   89.4650   50.8000   40.6480 C   0  0  1  0  0  3  0  0  0  0  0  0
   89.3200   52.2330   41.2040 C   0  0  0  0  0  2  0  0  0  0  0  0
   87.8540   52.6410   41.3780 C   0  0  0  0  0  2  0  0  0  0  0  0
   87.1000   51.7450   42.4200 C   0  0  1  0  0  0  0  0  0  0  0  0
   87.5700   50.2310   42.3000 C   0  0  1  0  0  3  0  0  0  0  0  0
   88.2300   49.9180   40.9400 C   0  0  0  0  0  2  0  0  0  0  0  0
   88.4710   49.7750   43.4560 C   0  0  0  0  0  2  0  0  0  0  0  0
   87.8060   50.0650   44.7630 C   0  0  0  0  0  2  0  0  0  0  0  0
   87.2530   51.2700   44.9880 C   0  0  2  0  0  3  0  0  0  0  0  0
   87.3370   52.3360   43.8880 C   0  0  2  0  0  3  0  0  0  0  0  0
   86.4950   53.6250   44.2060 C   0  0  0  0  0  2  0  0  0  0  0  0
   86.4350   54.0160   45.6990 C   0  0  0  0  0  2  0  0  0  0  0  0
   85.9970   52.8150   46.5730 C   0  0  1  0  0  0  0  0  0  0  0  0
   87.0920   51.7550   46.4150 C   0  0  1  0  0  3  0  0  0  0  0  0
   86.8420   50.7610   47.5410 C   0  0  0  0  0  2  0  0  0  0  0  0
   86.3540   51.6350   48.7070 C   0  0  0  0  0  2  0  0  0  0  0  0
   86.0600   53.0410   48.1170 C   0  0  2  0  0  3  0  0  0  0  0  0
   84.6100   52.2750   46.1200 C   0  0  0  0  0  1  0  0  0  0  0  0
   85.5930   51.7720   42.0360 C   0  0  0  0  0  1  0  0  0  0  0  0
   89.6810   50.8600   39.2620 O   0  0  0  0  0  0  0  0  0  0  0  0
   90.1000   50.0380   38.9630 H   0  0  0  0  0  0  0  0  0  0  0  0
   84.9410   53.8260   48.9010 C   0  0  2  0  0  3  0  0  0  0  0  0
   83.7550   52.9920   49.4320 C   0  0  0  0  0  1  0  0  0  0  0  0
   84.3840   55.0710   48.1610 C   0  0  0  0  0  3  0  0  0  0  0  0
   85.4260   56.0850   47.6360 C   0  0  0  0  0  3  0  0  0  0  0  0
   84.8570   57.2240   46.7440 C   0  0  2  0  0  3  0  0  0  0  0  0
   83.3260   57.3240   46.8800 C   0  0  0  0  0  1  0  0  0  0  0  0
   85.2810   57.0940   45.2470 C   0  0  0  0  0  3  0  0  0  0  0  0
   84.1390   56.5490   44.3710 C   0  0  0  0  0  1  0  0  0  0  0  0
   85.8340   58.3950   44.6450 C   0  0  0  0  0  1  0  0  0  0  0  0
  1 20  1  6  0  0  0
  1  6  1  0  0  0  0
  1  2  1  0  0  0  0
  2  3  1  0  0  0  0
  3  4  1  0  0  0  0
  4 19  1  6  0  0  0
  4 10  1  0  0  0  0
  5  6  1  6  0  0  0
  5  4  1  0  0  0  0
  5  7  1  0  0  0  0
  7  8  1  0  0  0  0
  9  8  1  1  0  0  0
  9 14  1  0  0  0  0
 10 11  1  1  0  0  0
 10  9  1  0  0  0  0
 11 12  1  0  0  0  0
 12 13  1  0  0  0  0
 13 18  1  6  0  0  0
 13 17  1  0  0  0  0
 14 13  1  0  0  0  0
 14 15  1  1  0  0  0
 15 16  1  0  0  0  0
 17 16  1  0  0  0  0
 17 22  1  1  0  0  0
 21 20  1  0  0  0  0
 22 23  1  6  0  0  0
 24 22  1  0  0  0  0
 25 24  2  0  0  0  0
 26 27  1  6  0  0  0
 26 25  1  0  0  0  0
 28 26  1  0  0  0  0
 29 28  1  0  0  0  0
 30 28  1  0  0  0  0
M  END
>  <MODEL>
2

>  <REMARK>
 VINA RESULT:    -9.673      3.467      8.299
 INTER + INTRA:         -13.381
 INTER:                 -12.834
 INTRA:                  -0.548
 UNBOUND:                -0.599
  Name = 
  12 active torsions:
  status: ('A' for Active; 'I' for Inactive)
    1  A    between atoms: O_1  and  C_2
    2  A    between atoms: C_5  and  C_29
    3  A    between atoms: C_14  and  C_28
    4  A    between atoms: C_18  and  C_19
    5  A    between atoms: C_19  and  C_20
    6  A    between atoms: C_19  and  C_27
    7  A    between atoms: C_20  and  C_21
    8  A    between atoms: C_21  and  C_22
    9  A    between atoms: C_22  and  C_23
   10  A    between atoms: C_22  and  C_26
   11  A    between atoms: C_23  and  C_24
   12  A    between atoms: C_23  and  C_25
                            x       y       z     vdW  Elec       q    Type
                         _______ _______ _______ _____ _____    ______ ____

>  <TORSDO>
F 6

$$$$
=
 OpenBabel08112514243D

 30 33  0  0  1  0  0  0  0  0999 V2000
   84.7040   57.7870   45.7690 C   0  0  1  0  0  3  0  0  0  0  0  0
   83.6100   56.7150   45.5720 C   0  0  0  0  0  2  0  0  0  0  0  0
   83.6760   56.0700   44.1840 C   0  0  0  0  0  2  0  0  0  0  0  0
   85.0190   55.3000   43.9420 C   0  0  1  0  0  0  0  0  0  0  0  0
   86.2400   56.0850   44.5920 C   0  0  1  0  0  3  0  0  0  0  0  0
   85.9230   57.5750   44.8440 C   0  0  0  0  0  2  0  0  0  0  0  0
   86.7860   55.4250   45.8650 C   0  0  0  0  0  2  0  0  0  0  0  0
   87.1080   53.9900   45.5950 C   0  0  0  0  0  2  0  0  0  0  0  0
   86.2240   53.2080   44.9500 C   0  0  2  0  0  3  0  0  0  0  0  0
   84.8820   53.8140   44.5180 C   0  0  2  0  0  3  0  0  0  0  0  0
   84.0270   52.8500   43.6170 C   0  0  0  0  0  2  0  0  0  0  0  0
   84.1570   51.3500   43.9560 C   0  0  0  0  0  2  0  0  0  0  0  0
   85.6440   50.9170   44.0080 C   0  0  1  0  0  0  0  0  0  0  0  0
   86.2750   51.7070   45.1580 C   0  0  1  0  0  3  0  0  0  0  0  0
   87.6030   51.0140   45.4310 C   0  0  0  0  0  2  0  0  0  0  0  0
   87.3010   49.5270   45.1890 C   0  0  0  0  0  2  0  0  0  0  0  0
   85.9090   49.4600   44.5040 C   0  0  2  0  0  3  0  0  0  0  0  0
   86.3550   51.2100   42.6550 C   0  0  0  0  0  1  0  0  0  0  0  0
   85.2660   55.2900   42.4070 C   0  0  0  0  0  1  0  0  0  0  0  0
   84.1550   59.0590   45.5370 O   0  0  0  0  0  0  0  0  0  0  0  0
   84.5480   59.4400   44.7370 H   0  0  0  0  0  0  0  0  0  0  0  0
   85.7330   48.2050   43.5680 C   0  0  2  0  0  3  0  0  0  0  0  0
   84.6870   47.1570   44.0040 C   0  0  0  0  0  1  0  0  0  0  0  0
   87.0540   47.4730   43.2110 C   0  0  0  0  0  3  0  0  0  0  0  0
   87.7770   47.9400   41.9280 C   0  0  0  0  0  3  0  0  0  0  0  0
   89.2480   47.4590   41.7780 C   0  0  2  0  0  3  0  0  0  0  0  0
   89.4850   46.1480   42.5510 C   0  0  0  0  0  1  0  0  0  0  0  0
   90.2900   48.5490   42.1870 C   0  0  0  0  0  3  0  0  0  0  0  0
   89.7320   49.9720   42.0120 C   0  0  0  0  0  1  0  0  0  0  0  0
   90.8480   48.3700   43.6080 C   0  0  0  0  0  1  0  0  0  0  0  0
  1 20  1  6  0  0  0
  2  1  1  0  0  0  0
  3  2  1  0  0  0  0
  4 19  1  6  0  0  0
  4  3  1  0  0  0  0
  4 10  1  0  0  0  0
  4  5  1  0  0  0  0
  5  6  1  1  0  0  0
  5  7  1  0  0  0  0
  6  1  1  0  0  0  0
  8  7  1  0  0  0  0
  9 14  1  0  0  0  0
  9  8  1  1  0  0  0
 10 11  1  6  0  0  0
 10  9  1  0  0  0  0
 11 12  1  0  0  0  0
 12 13  1  0  0  0  0
 13 18  1  6  0  0  0
 13 17  1  0  0  0  0
 13 14  1  0  0  0  0
 14 15  1  6  0  0  0
 16 15  1  0  0  0  0
 17 22  1  6  0  0  0
 17 16  1  0  0  0  0
 21 20  1  0  0  0  0
 22 23  1  1  0  0  0
 24 22  1  0  0  0  0
 25 24  2  0  0  0  0
 26 25  1  0  0  0  0
 26 28  1  0  0  0  0
 26 27  1  1  0  0  0
 28 30  1  0  0  0  0
 29 28  1  0  0  0  0
M  END
>  <MODEL>
3

>  <REMARK>
 VINA RESULT:    -9.186      1.740      3.637
 INTER + INTRA:         -12.738
 INTER:                 -11.249
 INTRA:                  -1.489
 UNBOUND:                -0.599
  Name = 
  12 active torsions:
  status: ('A' for Active; 'I' for Inactive)
    1  A    between atoms: O_1  and  C_2
    2  A    between atoms: C_5  and  C_29
    3  A    between atoms: C_14  and  C_28
    4  A    between atoms: C_18  and  C_19
    5  A    between atoms: C_19  and  C_20
    6  A    between atoms: C_19  and  C_27
    7  A    between atoms: C_20  and  C_21
    8  A    between atoms: C_21  and  C_22
    9  A    between atoms: C_22  and  C_23
   10  A    between atoms: C_22  and  C_26
   11  A    between atoms: C_23  and  C_24
   12  A    between atoms: C_23  and  C_25
                            x       y       z     vdW  Elec       q    Type
                         _______ _______ _______ _____ _____    ______ ____

>  <TORSDO>
F 6

$$$$
=
 OpenBabel08112514243D

 30 33  0  0  1  0  0  0  0  0999 V2000
   89.7750   48.9760   42.5930 C   0  0  1  0  0  3  0  0  0  0  0  0
   89.7630   50.5160   42.4890 C   0  0  0  0  0  2  0  0  0  0  0  0
   88.3610   51.0670   42.2110 C   0  0  0  0  0  2  0  0  0  0  0  0
   87.3500   50.7500   43.3650 C   0  0  1  0  0  0  0  0  0  0  0  0
   87.6090   49.2960   43.9530 C   0  0  1  0  0  3  0  0  0  0  0  0
   88.3980   48.3920   42.9810 C   0  0  0  0  0  2  0  0  0  0  0  0
   88.2670   49.3020   45.3400 C   0  0  0  0  0  2  0  0  0  0  0  0
   87.4770   50.1630   46.2720 C   0  0  0  0  0  2  0  0  0  0  0  0
   87.0780   51.3890   45.8880 C   0  0  2  0  0  3  0  0  0  0  0  0
   87.4650   51.8840   44.4880 C   0  0  2  0  0  3  0  0  0  0  0  0
   86.7820   53.2460   44.1000 C   0  0  0  0  0  2  0  0  0  0  0  0
   86.5750   54.2310   45.2710 C   0  0  0  0  0  2  0  0  0  0  0  0
   85.8520   53.5450   46.4560 C   0  0  1  0  0  0  0  0  0  0  0  0
   86.7930   52.4390   46.9430 C   0  0  1  0  0  3  0  0  0  0  0  0
   86.2510   52.0310   48.3060 C   0  0  0  0  0  2  0  0  0  0  0  0
   85.7380   53.3490   48.9100 C   0  0  0  0  0  2  0  0  0  0  0  0
   85.7340   54.3940   47.7620 C   0  0  2  0  0  3  0  0  0  0  0  0
   84.4770   52.9690   46.0100 C   0  0  0  0  0  1  0  0  0  0  0  0
   85.9300   50.7250   42.7310 C   0  0  0  0  0  1  0  0  0  0  0  0
   90.1860   48.4310   41.3660 O   0  0  0  0  0  0  0  0  0  0  0  0
   89.9070   49.0140   40.6430 H   0  0  0  0  0  0  0  0  0  0  0  0
   84.6420   55.5150   47.9430 C   0  0  2  0  0  3  0  0  0  0  0  0
   83.1800   55.0420   48.0790 C   0  0  0  0  0  1  0  0  0  0  0  0
   84.7020   56.6530   46.8890 C   0  0  0  0  0  2  0  0  0  0  0  0
   83.8310   56.4700   45.6260 C   0  0  0  0  0  2  0  0  0  0  0  0
   84.6110   56.3870   44.2840 C   0  0  2  0  0  3  0  0  0  0  0  0
   85.2320   57.7480   43.9160 C   0  0  0  0  0  1  0  0  0  0  0  0
   83.7460   55.8280   43.1100 C   0  0  0  0  0  3  0  0  0  0  0  0
   84.4270   56.0340   41.7460 C   0  0  0  0  0  1  0  0  0  0  0  0
   83.3450   54.3540   43.2840 C   0  0  0  0  0  1  0  0  0  0  0  0
  1 20  1  6  0  0  0
  1  6  1  0  0  0  0
  2  1  1  0  0  0  0
  3  2  1  0  0  0  0
  3  4  1  0  0  0  0
  4 19  1  6  0  0  0
  4  5  1  0  0  0  0
  4 10  1  0  0  0  0
  5  6  1  6  0  0  0
  5  7  1  0  0  0  0
  7  8  1  0  0  0  0
  9  8  1  1  0  0  0
  9 14  1  0  0  0  0
 10 11  1  6  0  0  0
 10  9  1  0  0  0  0
 11 12  1  0  0  0  0
 12 13  1  0  0  0  0
 13 18  1  6  0  0  0
 13 14  1  0  0  0  0
 13 17  1  0  0  0  0
 14 15  1  1  0  0  0
 15 16  1  0  0  0  0
 17 22  1  6  0  0  0
 17 16  1  0  0  0  0
 21 20  1  0  0  0  0
 22 23  1  6  0  0  0
 24 22  1  0  0  0  0
 25 24  1  0  0  0  0
 26 27  1  6  0  0  0
 26 25  1  0  0  0  0
 28 30  1  0  0  0  0
 28 26  1  0  0  0  0
 29 28  1  0  0  0  0
M  END
>  <MODEL>
4

>  <REMARK>
 VINA RESULT:    -8.877      3.065      8.294
 INTER + INTRA:         -12.330
 INTER:                 -11.395
 INTRA:                  -0.935
 UNBOUND:                -0.599
  Name = 
  12 active torsions:
  status: ('A' for Active; 'I' for Inactive)
    1  A    between atoms: O_1  and  C_2
    2  A    between atoms: C_5  and  C_29
    3  A    between atoms: C_14  and  C_28
    4  A    between atoms: C_18  and  C_19
    5  A    between atoms: C_19  and  C_20
    6  A    between atoms: C_19  and  C_27
    7  A    between atoms: C_20  and  C_21
    8  A    between atoms: C_21  and  C_22
    9  A    between atoms: C_22  and  C_23
   10  A    between atoms: C_22  and  C_26
   11  A    between atoms: C_23  and  C_24
   12  A    between atoms: C_23  and  C_25
                            x       y       z     vdW  Elec       q    Type
                         _______ _______ _______ _____ _____    ______ ____

>  <TORSDO>
F 6

$$$$
=
 OpenBabel08112514243D

 30 33  0  0  1  0  0  0  0  0999 V2000
   84.1590   57.7550   46.5250 C   0  0  1  0  0  3  0  0  0  0  0  0
   83.4830   56.7870   45.5300 C   0  0  0  0  0  2  0  0  0  0  0  0
   84.4450   56.3230   44.4310 C   0  0  0  0  0  2  0  0  0  0  0  0
   85.6590   55.5100   44.9980 C   0  0  1  0  0  0  0  0  0  0  0  0
   86.1520   56.1270   46.3780 C   0  0  1  0  0  3  0  0  0  0  0  0
   85.6950   57.5890   46.5730 C   0  0  0  0  0  2  0  0  0  0  0  0
   85.7800   55.2760   47.5990 C   0  0  0  0  0  2  0  0  0  0  0  0
   86.2510   53.8710   47.4020 C   0  0  0  0  0  2  0  0  0  0  0  0
   86.0130   53.2350   46.2410 C   0  0  2  0  0  3  0  0  0  0  0  0
   85.2370   53.9730   45.1410 C   0  0  2  0  0  3  0  0  0  0  0  0
   85.1920   53.1880   43.7800 C   0  0  0  0  0  2  0  0  0  0  0  0
   85.1280   51.6510   43.9120 C   0  0  0  0  0  2  0  0  0  0  0  0
   86.2510   51.1240   44.8400 C   0  0  1  0  0  0  0  0  0  0  0  0
   85.9720   51.7190   46.2230 C   0  0  1  0  0  3  0  0  0  0  0  0
   86.8410   50.9160   47.1810 C   0  0  0  0  0  2  0  0  0  0  0  0
   86.8170   49.4940   46.5990 C   0  0  0  0  0  2  0  0  0  0  0  0
   86.1890   49.6020   45.1830 C   0  0  2  0  0  3  0  0  0  0  0  0
   87.6520   51.5440   44.3090 C   0  0  0  0  0  1  0  0  0  0  0  0
   86.8310   55.6820   43.9910 C   0  0  0  0  0  1  0  0  0  0  0  0
   83.8410   59.0770   46.1750 O   0  0  0  0  0  0  0  0  0  0  0  0
   84.5180   59.4250   45.5740 H   0  0  0  0  0  0  0  0  0  0  0  0
   86.6980   48.4910   44.1880 C   0  0  2  0  0  3  0  0  0  0  0  0
   86.9850   48.9390   42.7390 C   0  0  0  0  0  1  0  0  0  0  0  0
   85.8270   47.2070   44.1500 C   0  0  0  0  0  2  0  0  0  0  0  0
   85.8710   46.3820   42.8440 C   0  0  0  0  0  2  0  0  0  0  0  0
   85.9550   44.8410   43.0310 C   0  0  2  0  0  3  0  0  0  0  0  0
   85.6750   44.4430   44.4920 C   0  0  0  0  0  1  0  0  0  0  0  0
   87.3080   44.2400   42.5340 C   0  0  0  0  0  3  0  0  0  0  0  0
   88.4420   45.2790   42.5600 C   0  0  0  0  0  1  0  0  0  0  0  0
   87.7360   42.9710   43.2880 C   0  0  0  0  0  1  0  0  0  0  0  0
  1 20  1  6  0  0  0
  1  6  1  0  0  0  0
  2  1  1  0  0  0  0
  3  4  1  0  0  0  0
  3  2  1  0  0  0  0
  4 19  1  6  0  0  0
  4 10  1  0  0  0  0
  4  5  1  0  0  0  0
  5  6  1  1  0  0  0
  5  7  1  0  0  0  0
  8  7  1  0  0  0  0
  9  8  1  1  0  0  0
 10 11  1  6  0  0  0
 10  9  1  0  0  0  0
 11 12  1  0  0  0  0
 12 13  1  0  0  0  0
 13 18  1  6  0  0  0
 13 17  1  0  0  0  0
 13 14  1  0  0  0  0
 14  9  1  0  0  0  0
 14 15  1  1  0  0  0
 16 15  1  0  0  0  0
 17 22  1  6  0  0  0
 17 16  1  0  0  0  0
 21 20  1  0  0  0  0
 22 23  1  6  0  0  0
 24 22  1  0  0  0  0
 25 26  1  0  0  0  0
 25 24  1  0  0  0  0
 26 27  1  1  0  0  0
 28 29  1  0  0  0  0
 28 26  1  0  0  0  0
 28 30  1  0  0  0  0
M  END
>  <MODEL>
5

>  <REMARK>
 VINA RESULT:    -8.715      1.600      3.398
 INTER + INTRA:         -12.116
 INTER:                 -11.726
 INTRA:                  -0.391
 UNBOUND:                -0.599
  Name = 
  12 active torsions:
  status: ('A' for Active; 'I' for Inactive)
    1  A    between atoms: O_1  and  C_2
    2  A    between atoms: C_5  and  C_29
    3  A    between atoms: C_14  and  C_28
    4  A    between atoms: C_18  and  C_19
    5  A    between atoms: C_19  and  C_20
    6  A    between atoms: C_19  and  C_27
    7  A    between atoms: C_20  and  C_21
    8  A    between atoms: C_21  and  C_22
    9  A    between atoms: C_22  and  C_23
   10  A    between atoms: C_22  and  C_26
   11  A    between atoms: C_23  and  C_24
   12  A    between atoms: C_23  and  C_25
                            x       y       z     vdW  Elec       q    Type
                         _______ _______ _______ _____ _____    ______ ____

>  <TORSDO>
F 6

$$$$
=
 OpenBabel08112514243D

 30 33  0  0  1  0  0  0  0  0999 V2000
   90.2090   47.1120   43.4340 C   0  0  1  0  0  3  0  0  0  0  0  0
   90.4740   48.5540   43.9170 C   0  0  0  0  0  2  0  0  0  0  0  0
   90.3070   49.5810   42.7910 C   0  0  0  0  0  2  0  0  0  0  0  0
   88.8440   49.6240   42.2290 C   0  0  1  0  0  0  0  0  0  0  0  0
   88.2240   48.1610   42.1680 C   0  0  1  0  0  3  0  0  0  0  0  0
   89.3030   47.0560   42.1840 C   0  0  0  0  0  2  0  0  0  0  0  0
   87.1640   47.8980   43.2450 C   0  0  0  0  0  2  0  0  0  0  0  0
   86.1170   48.9640   43.1990 C   0  0  0  0  0  2  0  0  0  0  0  0
   86.4730   50.2590   43.1350 C   0  0  2  0  0  3  0  0  0  0  0  0
   87.9670   50.6130   43.1290 C   0  0  2  0  0  3  0  0  0  0  0  0
   88.2420   52.1380   42.8650 C   0  0  0  0  0  2  0  0  0  0  0  0
   87.1910   53.1050   43.4530 C   0  0  0  0  0  2  0  0  0  0  0  0
   85.7580   52.6990   43.0250 C   0  0  1  0  0  0  0  0  0  0  0  0
   85.5100   51.3170   43.6360 C   0  0  1  0  0  3  0  0  0  0  0  0
   84.0060   51.1010   43.5240 C   0  0  0  0  0  2  0  0  0  0  0  0
   83.4140   52.5000   43.7550 C   0  0  0  0  0  2  0  0  0  0  0  0
   84.5970   53.5030   43.6910 C   0  0  2  0  0  3  0  0  0  0  0  0
   85.6310   52.6690   41.4740 C   0  0  0  0  0  1  0  0  0  0  0  0
   88.9370   50.1270   40.7610 C   0  0  0  0  0  1  0  0  0  0  0  0
   91.4330   46.4840   43.1540 O   0  0  0  0  0  0  0  0  0  0  0  0
   91.4300   46.1610   42.2400 H   0  0  0  0  0  0  0  0  0  0  0  0
   84.1750   54.9380   43.1990 C   0  0  2  0  0  3  0  0  0  0  0  0
   83.3930   55.0120   41.8700 C   0  0  0  0  0  1  0  0  0  0  0  0
   85.3290   55.9750   43.1570 C   0  0  0  0  0  2  0  0  0  0  0  0
   85.9860   56.3320   44.5100 C   0  0  0  0  0  2  0  0  0  0  0  0
   84.9970   56.6210   45.6740 C   0  0  2  0  0  3  0  0  0  0  0  0
   84.8000   58.1360   45.8740 C   0  0  0  0  0  1  0  0  0  0  0  0
   85.4100   55.9270   47.0120 C   0  0  0  0  0  3  0  0  0  0  0  0
   84.2070   55.7190   47.9470 C   0  0  0  0  0  1  0  0  0  0  0  0
   86.1630   54.6020   46.8140 C   0  0  0  0  0  1  0  0  0  0  0  0
  1 20  1  6  0  0  0
  1  2  1  0  0  0  0
  3  2  1  0  0  0  0
  4 19  1  6  0  0  0
  4  3  1  0  0  0  0
  4 10  1  0  0  0  0
  5  6  1  1  0  0  0
  5  4  1  0  0  0  0
  5  7  1  0  0  0  0
  6  1  1  0  0  0  0
  8  7  1  0  0  0  0
  9  8  1  1  0  0  0
  9 14  1  0  0  0  0
 10 11  1  6  0  0  0
 10  9  1  0  0  0  0
 11 12  1  0  0  0  0
 13 18  1  6  0  0  0
 13 12  1  0  0  0  0
 13 14  1  0  0  0  0
 13 17  1  0  0  0  0
 14 15  1  6  0  0  0
 15 16  1  0  0  0  0
 17 22  1  6  0  0  0
 17 16  1  0  0  0  0
 21 20  1  0  0  0  0
 22 23  1  6  0  0  0
 24 22  1  0  0  0  0
 24 25  1  0  0  0  0
 25 26  1  0  0  0  0
 26 27  1  1  0  0  0
 26 28  1  0  0  0  0
 28 29  1  0  0  0  0
 30 28  1  0  0  0  0
M  END
>  <MODEL>
6

>  <REMARK>
 VINA RESULT:    -8.715      3.072      8.440
 INTER + INTRA:         -12.116
 INTER:                 -10.909
 INTRA:                  -1.207
 UNBOUND:                -0.599
  Name = 
  12 active torsions:
  status: ('A' for Active; 'I' for Inactive)
    1  A    between atoms: O_1  and  C_2
    2  A    between atoms: C_5  and  C_29
    3  A    between atoms: C_14  and  C_28
    4  A    between atoms: C_18  and  C_19
    5  A    between atoms: C_19  and  C_20
    6  A    between atoms: C_19  and  C_27
    7  A    between atoms: C_20  and  C_21
    8  A    between atoms: C_21  and  C_22
    9  A    between atoms: C_22  and  C_23
   10  A    between atoms: C_22  and  C_26
   11  A    between atoms: C_23  and  C_24
   12  A    between atoms: C_23  and  C_25
                            x       y       z     vdW  Elec       q    Type
                         _______ _______ _______ _____ _____    ______ ____

>  <TORSDO>
F 6

$$$$
=
 OpenBabel08112514243D

 30 33  0  0  1  0  0  0  0  0999 V2000
   86.7350   46.8020   42.6910 C   0  0  1  0  0  3  0  0  0  0  0  0
   85.5940   47.3260   43.5880 C   0  0  0  0  0  2  0  0  0  0  0  0
   86.1180   48.1340   44.7800 C   0  0  0  0  0  2  0  0  0  0  0  0
   86.8870   49.4260   44.3390 C   0  0  1  0  0  0  0  0  0  0  0  0
   87.7510   49.1470   43.0340 C   0  0  1  0  0  3  0  0  0  0  0  0
   88.0260   47.6440   42.8130 C   0  0  0  0  0  2  0  0  0  0  0  0
   87.1690   49.7830   41.7640 C   0  0  0  0  0  2  0  0  0  0  0  0
   86.9300   51.2410   41.9900 C   0  0  0  0  0  2  0  0  0  0  0  0
   86.3080   51.6600   43.1060 C   0  0  2  0  0  3  0  0  0  0  0  0
   85.8360   50.6130   44.1240 C   0  0  2  0  0  3  0  0  0  0  0  0
   85.2950   51.2440   45.4580 C   0  0  0  0  0  2  0  0  0  0  0  0
   84.5600   52.5920   45.2940 C   0  0  0  0  0  2  0  0  0  0  0  0
   85.4160   53.6010   44.4900 C   0  0  1  0  0  0  0  0  0  0  0  0
   85.5860   52.9930   43.0940 C   0  0  1  0  0  3  0  0  0  0  0  0
   86.0960   54.1360   42.2260 C   0  0  0  0  0  2  0  0  0  0  0  0
   85.3710   55.3730   42.7780 C   0  0  0  0  0  2  0  0  0  0  0  0
   84.7110   54.9430   44.1160 C   0  0  2  0  0  3  0  0  0  0  0  0
   86.7900   53.8370   45.1810 C   0  0  0  0  0  1  0  0  0  0  0  0
   87.8960   49.7640   45.4730 C   0  0  0  0  0  1  0  0  0  0  0  0
   87.0130   45.4670   43.0250 O   0  0  0  0  0  0  0  0  0  0  0  0
   87.3730   45.4260   43.9250 H   0  0  0  0  0  0  0  0  0  0  0  0
   84.5540   56.1270   45.1440 C   0  0  2  0  0  3  0  0  0  0  0  0
   84.3930   57.5420   44.5490 C   0  0  0  0  0  1  0  0  0  0  0  0
   85.6400   56.1720   46.2510 C   0  0  0  0  0  2  0  0  0  0  0  0
   85.1590   55.9300   47.7000 C   0  0  0  0  0  2  0  0  0  0  0  0
   84.1320   54.7760   47.8760 C   0  0  2  0  0  3  0  0  0  0  0  0
   82.7210   55.3260   48.1570 C   0  0  0  0  0  1  0  0  0  0  0  0
   84.5600   53.7410   48.9650 C   0  0  0  0  0  3  0  0  0  0  0  0
   83.4670   52.6890   49.2180 C   0  0  0  0  0  1  0  0  0  0  0  0
   85.9010   53.0510   48.6710 C   0  0  0  0  0  1  0  0  0  0  0  0
  1  6  1  0  0  0  0
  1 20  1  1  0  0  0
  1  2  1  0  0  0  0
  2  3  1  0  0  0  0
  4  3  1  0  0  0  0
  4 19  1  1  0  0  0
  5  7  1  6  0  0  0
  5  4  1  0  0  0  0
  6  5  1  0  0  0  0
  7  8  1  0  0  0  0
  9  8  1  6  0  0  0
  9 10  1  0  0  0  0
 10  4  1  0  0  0  0
 10 11  1  1  0  0  0
 12 11  1  0  0  0  0
 13 18  1  1  0  0  0
 13 12  1  0  0  0  0
 14 15  1  6  0  0  0
 14  9  1  0  0  0  0
 14 13  1  0  0  0  0
 15 16  1  0  0  0  0
 16 17  1  0  0  0  0
 17 13  1  0  0  0  0
 17 22  1  1  0  0  0
 20 21  1  0  0  0  0
 22 23  1  6  0  0  0
 22 24  1  0  0  0  0
 24 25  1  0  0  0  0
 25 26  1  0  0  0  0
 26 27  1  1  0  0  0
 26 28  1  0  0  0  0
 28 29  1  0  0  0  0
 30 28  1  0  0  0  0
M  END
>  <MODEL>
7

>  <REMARK>
 VINA RESULT:    -8.516      2.842      8.024
 INTER + INTRA:         -11.853
 INTER:                 -10.796
 INTRA:                  -1.057
 UNBOUND:                -0.599
  Name = 
  12 active torsions:
  status: ('A' for Active; 'I' for Inactive)
    1  A    between atoms: O_1  and  C_2
    2  A    between atoms: C_5  and  C_29
    3  A    between atoms: C_14  and  C_28
    4  A    between atoms: C_18  and  C_19
    5  A    between atoms: C_19  and  C_20
    6  A    between atoms: C_19  and  C_27
    7  A    between atoms: C_20  and  C_21
    8  A    between atoms: C_21  and  C_22
    9  A    between atoms: C_22  and  C_23
   10  A    between atoms: C_22  and  C_26
   11  A    between atoms: C_23  and  C_24
   12  A    between atoms: C_23  and  C_25
                            x       y       z     vdW  Elec       q    Type
                         _______ _______ _______ _____ _____    ______ ____

>  <TORSDO>
F 6

$$$$
=
 OpenBabel08112514243D

 30 33  0  0  1  0  0  0  0  0999 V2000
   88.9850   46.4880   42.3970 C   0  0  1  0  0  3  0  0  0  0  0  0
   87.4750   46.6090   42.6920 C   0  0  0  0  0  2  0  0  0  0  0  0
   87.1880   47.5550   43.8630 C   0  0  0  0  0  2  0  0  0  0  0  0
   87.6440   49.0260   43.5740 C   0  0  1  0  0  0  0  0  0  0  0  0
   89.0120   49.0390   42.7630 C   0  0  1  0  0  3  0  0  0  0  0  0
   89.7910   47.7110   42.8880 C   0  0  0  0  0  2  0  0  0  0  0  0
   88.8490   49.4350   41.2900 C   0  0  0  0  0  2  0  0  0  0  0  0
   88.1140   50.7320   41.1900 C   0  0  0  0  0  2  0  0  0  0  0  0
   86.9900   50.9290   41.9020 C   0  0  2  0  0  3  0  0  0  0  0  0
   86.4750   49.7930   42.7960 C   0  0  2  0  0  3  0  0  0  0  0  0
   85.2670   50.2190   43.7080 C   0  0  0  0  0  2  0  0  0  0  0  0
   84.3000   51.2440   43.0760 C   0  0  0  0  0  2  0  0  0  0  0  0
   85.0680   52.4740   42.5310 C   0  0  1  0  0  0  0  0  0  0  0  0
   85.9760   51.9460   41.4160 C   0  0  1  0  0  3  0  0  0  0  0  0
   86.4330   53.1860   40.6600 C   0  0  0  0  0  2  0  0  0  0  0  0
   85.2090   54.1150   40.7000 C   0  0  0  0  0  2  0  0  0  0  0  0
   84.2150   53.5020   41.7220 C   0  0  2  0  0  3  0  0  0  0  0  0
   85.8900   53.1590   43.6610 C   0  0  0  0  0  1  0  0  0  0  0  0
   87.9380   49.6890   44.9490 C   0  0  0  0  0  1  0  0  0  0  0  0
   89.4850   45.3240   43.0030 O   0  0  0  0  0  0  0  0  0  0  0  0
   90.1590   44.9240   42.4310 H   0  0  0  0  0  0  0  0  0  0  0  0
   83.2990   54.5740   42.4240 C   0  0  2  0  0  3  0  0  0  0  0  0
   81.8120   54.5910   42.0090 C   0  0  0  0  0  1  0  0  0  0  0  0
   83.8470   56.0260   42.3750 C   0  0  0  0  0  2  0  0  0  0  0  0
   84.9130   56.3970   43.4300 C   0  0  0  0  0  2  0  0  0  0  0  0
   84.3580   56.9530   44.7710 C   0  0  2  0  0  3  0  0  0  0  0  0
   84.9210   58.3550   45.0670 C   0  0  0  0  0  1  0  0  0  0  0  0
   84.5940   55.9860   45.9750 C   0  0  0  0  0  3  0  0  0  0  0  0
   86.0910   55.8120   46.2880 C   0  0  0  0  0  1  0  0  0  0  0  0
   83.8310   56.3850   47.2480 C   0  0  0  0  0  1  0  0  0  0  0  0
  1  2  1  0  0  0  0
  1  6  1  0  0  0  0
  1 20  1  1  0  0  0
  2  3  1  0  0  0  0
  4  3  1  0  0  0  0
  4 19  1  1  0  0  0
  5  7  1  6  0  0  0
  5  6  1  0  0  0  0
  5  4  1  0  0  0  0
  8  7  1  0  0  0  0
  9  8  1  6  0  0  0
  9 10  1  0  0  0  0
 10  4  1  0  0  0  0
 10 11  1  1  0  0  0
 12 11  1  0  0  0  0
 13 12  1  0  0  0  0
 13 18  1  1  0  0  0
 14 15  1  1  0  0  0
 14  9  1  0  0  0  0
 14 13  1  0  0  0  0
 15 16  1  0  0  0  0
 16 17  1  0  0  0  0
 17 22  1  1  0  0  0
 17 13  1  0  0  0  0
 21 20  1  0  0  0  0
 22 23  1  6  0  0  0
 24 22  1  0  0  0  0
 24 25  1  0  0  0  0
 25 26  1  0  0  0  0
 26 27  1  1  0  0  0
 26 28  1  0  0  0  0
 28 29  1  0  0  0  0
 28 30  1  0  0  0  0
M  END
>  <MODEL>
8

>  <REMARK>
 VINA RESULT:    -8.315      3.134      8.481
 INTER + INTRA:         -11.588
 INTER:                 -10.513
 INTRA:                  -1.074
 UNBOUND:                -0.599
  Name = 
  12 active torsions:
  status: ('A' for Active; 'I' for Inactive)
    1  A    between atoms: O_1  and  C_2
    2  A    between atoms: C_5  and  C_29
    3  A    between atoms: C_14  and  C_28
    4  A    between atoms: C_18  and  C_19
    5  A    between atoms: C_19  and  C_20
    6  A    between atoms: C_19  and  C_27
    7  A    between atoms: C_20  and  C_21
    8  A    between atoms: C_21  and  C_22
    9  A    between atoms: C_22  and  C_23
   10  A    between atoms: C_22  and  C_26
   11  A    between atoms: C_23  and  C_24
   12  A    between atoms: C_23  and  C_25
                            x       y       z     vdW  Elec       q    Type
                         _______ _______ _______ _____ _____    ______ ____

>  <TORSDO>
F 6

$$$$
=
 OpenBabel08112514243D

 30 33  0  0  1  0  0  0  0  0999 V2000
   84.1480   57.7700   46.1680 C   0  0  1  0  0  3  0  0  0  0  0  0
   83.6080   56.7940   45.1010 C   0  0  0  0  0  2  0  0  0  0  0  0
   84.6970   56.3470   44.1200 C   0  0  0  0  0  2  0  0  0  0  0  0
   85.8500   55.5520   44.8230 C   0  0  1  0  0  0  0  0  0  0  0  0
   86.1700   56.1740   46.2510 C   0  0  1  0  0  3  0  0  0  0  0  0
   85.6710   57.6280   46.3920 C   0  0  0  0  0  2  0  0  0  0  0  0
   85.6740   55.3140   47.4210 C   0  0  0  0  0  2  0  0  0  0  0  0
   86.1860   53.9180   47.2780 C   0  0  0  0  0  2  0  0  0  0  0  0
   86.0940   53.2800   46.0980 C   0  0  2  0  0  3  0  0  0  0  0  0
   85.4390   54.0080   44.9160 C   0  0  2  0  0  3  0  0  0  0  0  0
   85.5630   53.2260   43.5590 C   0  0  0  0  0  2  0  0  0  0  0  0
   85.5090   51.6880   43.6820 C   0  0  0  0  0  2  0  0  0  0  0  0
   86.5260   51.1760   44.7330 C   0  0  1  0  0  0  0  0  0  0  0  0
   86.0790   51.7650   46.0750 C   0  0  1  0  0  3  0  0  0  0  0  0
   86.8450   50.9720   47.1260 C   0  0  0  0  0  2  0  0  0  0  0  0
   86.9100   49.5520   46.5450 C   0  0  0  0  0  2  0  0  0  0  0  0
   86.4490   49.6530   45.0660 C   0  0  2  0  0  3  0  0  0  0  0  0
   87.9720   51.6200   44.3680 C   0  0  0  0  0  1  0  0  0  0  0  0
   87.1280   55.7450   43.9590 C   0  0  0  0  0  1  0  0  0  0  0  0
   83.8520   59.0880   45.7840 O   0  0  0  0  0  0  0  0  0  0  0  0
   84.0270   59.1970   44.8360 H   0  0  0  0  0  0  0  0  0  0  0  0
   87.0860   48.5520   44.1360 C   0  0  2  0  0  3  0  0  0  0  0  0
   88.4940   48.8500   43.5780 C   0  0  0  0  0  1  0  0  0  0  0  0
   86.1760   48.0830   42.9700 C   0  0  0  0  0  2  0  0  0  0  0  0
   85.5290   46.6870   43.1190 C   0  0  0  0  0  2  0  0  0  0  0  0
   84.2670   46.6300   44.0240 C   0  0  2  0  0  3  0  0  0  0  0  0
   83.8120   45.1770   44.2550 C   0  0  0  0  0  1  0  0  0  0  0  0
   83.0920   47.5080   43.4860 C   0  0  0  0  0  3  0  0  0  0  0  0
   81.7440   46.7710   43.5580 C   0  0  0  0  0  1  0  0  0  0  0  0
   82.9820   48.8810   44.1700 C   0  0  0  0  0  1  0  0  0  0  0  0
  1 20  1  6  0  0  0
  1  6  1  0  0  0  0
  2  1  1  0  0  0  0
  3  4  1  0  0  0  0
  3  2  1  0  0  0  0
  4 19  1  6  0  0  0
  4 10  1  0  0  0  0
  4  5  1  0  0  0  0
  5  6  1  6  0  0  0
  5  7  1  0  0  0  0
  8  7  1  0  0  0  0
  9  8  1  1  0  0  0
 10 11  1  6  0  0  0
 10  9  1  0  0  0  0
 11 12  1  0  0  0  0
 12 13  1  0  0  0  0
 13 18  1  6  0  0  0
 13 17  1  0  0  0  0
 13 14  1  0  0  0  0
 14  9  1  0  0  0  0
 14 15  1  1  0  0  0
 16 15  1  0  0  0  0
 17 22  1  6  0  0  0
 17 16  1  0  0  0  0
 21 20  1  0  0  0  0
 22 23  1  6  0  0  0
 24 25  1  0  0  0  0
 24 22  1  0  0  0  0
 25 26  1  0  0  0  0
 26 27  1  6  0  0  0
 28 29  1  0  0  0  0
 28 26  1  0  0  0  0
 28 30  1  0  0  0  0
M  END
>  <MODEL>
9

>  <REMARK>
 VINA RESULT:    -7.867      1.853      3.474
 INTER + INTRA:         -10.996
 INTER:                 -10.397
 INTRA:                  -0.599
 UNBOUND:                -0.599
  Name = 
  12 active torsions:
  status: ('A' for Active; 'I' for Inactive)
    1  A    between atoms: O_1  and  C_2
    2  A    between atoms: C_5  and  C_29
    3  A    between atoms: C_14  and  C_28
    4  A    between atoms: C_18  and  C_19
    5  A    between atoms: C_19  and  C_20
    6  A    between atoms: C_19  and  C_27
    7  A    between atoms: C_20  and  C_21
    8  A    between atoms: C_21  and  C_22
    9  A    between atoms: C_22  and  C_23
   10  A    between atoms: C_22  and  C_26
   11  A    between atoms: C_23  and  C_24
   12  A    between atoms: C_23  and  C_25
                            x       y       z     vdW  Elec       q    Type
                         _______ _______ _______ _____ _____    ______ ____

>  <TORSDO>
F 6

$$$$
