=
 OpenBabel09092515023D

 30 33  0  0  1  0  0  0  0  0999 V2000
   89.5190   51.5730   39.9800 C   0  0  1  0  0  3  0  0  0  0  0  0
   89.7460   52.8670   40.7600 C   0  0  0  0  0  2  0  0  0  0  0  0
   88.5150   53.2330   41.5970 C   0  0  0  0  0  2  0  0  0  0  0  0
   87.8860   52.0480   42.4270 C   0  0  1  0  0  0  0  0  0  0  0  0
   88.6560   50.7320   42.2350 C   0  0  0  0  0  0  0  0  0  0  0  0
   88.5890   49.7720   43.1710 C   0  0  0  0  0  3  0  0  0  0  0  0
   87.9700   50.0050   44.4810 C   0  0  0  0  0  3  0  0  0  0  0  0
   87.5870   51.2300   44.8620 C   0  0  0  0  0  0  0  0  0  0  0  0
   87.8740   52.4330   43.9630 C   0  0  2  0  0  3  0  0  0  0  0  0
   86.9520   53.6580   44.2980 C   0  0  0  0  0  2  0  0  0  0  0  0
   86.7010   53.8800   45.8070 C   0  0  0  0  0  2  0  0  0  0  0  0
   86.2020   52.5810   46.4890 C   0  0  1  0  0  0  0  0  0  0  0  0
   87.3090   51.5360   46.3150 C   0  0  1  0  0  3  0  0  0  0  0  0
   86.9500   50.4230   47.2940 C   0  0  0  0  0  2  0  0  0  0  0  0
   86.3380   51.1630   48.4960 C   0  0  0  0  0  2  0  0  0  0  0  0
   86.1220   52.6310   48.0430 C   0  0  2  0  0  3  0  0  0  0  0  0
   84.8590   52.1130   45.8560 C   0  0  0  0  0  1  0  0  0  0  0  0
   89.3900   50.3960   40.9510 C   0  0  0  0  0  2  0  0  0  0  0  0
   86.4460   51.7710   41.9150 C   0  0  0  0  0  1  0  0  0  0  0  0
   88.3700   51.6690   39.1760 O   0  0  0  0  0  0  0  0  0  0  0  0
   88.3790   50.9590   38.5140 H   0  0  0  0  0  0  0  0  0  0  0  0
   84.9560   53.3910   48.7680 C   0  0  2  0  0  3  0  0  0  0  0  0
   83.8620   52.5370   49.4390 C   0  0  0  0  0  1  0  0  0  0  0  0
   84.3140   54.4080   47.8520 C   0  0  0  0  0  3  0  0  0  0  0  0
   84.6740   55.7010   47.8720 C   0  0  0  0  0  3  0  0  0  0  0  0
   84.0890   56.6970   46.8950 C   0  0  2  0  0  3  0  0  0  0  0  0
   82.6460   56.2980   46.5440 C   0  0  0  0  0  1  0  0  0  0  0  0
   85.0110   56.8730   45.6510 C   0  0  0  0  0  3  0  0  0  0  0  0
   84.4180   56.2730   44.3660 C   0  0  0  0  0  1  0  0  0  0  0  0
   85.3990   58.3410   45.4250 C   0  0  0  0  0  1  0  0  0  0  0  0
  1 20  1  1  0  0  0
  1  2  1  0  0  0  0
  1 18  1  0  0  0  0
  2  3  1  0  0  0  0
  3  4  1  0  0  0  0
  4 19  1  6  0  0  0
  4  9  1  0  0  0  0
  5  4  1  0  0  0  0
  5  6  2  0  0  0  0
  6  7  1  0  0  0  0
  7  8  2  0  0  0  0
  8 13  1  0  0  0  0
  9 10  1  6  0  0  0
  9  8  1  0  0  0  0
 10 11  1  0  0  0  0
 11 12  1  0  0  0  0
 12 17  1  6  0  0  0
 12 16  1  0  0  0  0
 13 12  1  0  0  0  0
 13 14  1  1  0  0  0
 14 15  1  0  0  0  0
 16 15  1  0  0  0  0
 16 22  1  6  0  0  0
 18  5  1  0  0  0  0
 21 20  1  0  0  0  0
 22 23  1  6  0  0  0
 24 25  2  0  0  0  0
 24 22  1  0  0  0  0
 26 27  1  6  0  0  0
 26 25  1  0  0  0  0
 28 26  1  0  0  0  0
 29 28  1  0  0  0  0
 30 28  1  0  0  0  0
M  END
>  <MODEL>
1

>  <REMARK>
 VINA RESULT:   -10.269      0.000      0.000
 INTER + INTRA:         -13.356
 INTER:                 -12.633
 INTRA:                  -0.723
 UNBOUND:                -0.386
  Name = 
  11 active torsions:
  status: ('A' for Active; 'I' for Inactive)
    1  A    between atoms: O_1  and  C_2
    2  A    between atoms: C_5  and  C_29
    3  A    between atoms: C_13  and  C_27
    4  A    between atoms: C_17  and  C_18
    5  A    between atoms: C_18  and  C_19
    6  A    between atoms: C_18  and  C_26
    7  A    between atoms: C_20  and  C_21
    8  A    between atoms: C_21  and  C_22
    9  A    between atoms: C_21  and  C_25
   10  A    between atoms: C_22  and  C_23
   11  A    between atoms: C_22  and  C_24
                            x       y       z     vdW  Elec       q    Type
                         _______ _______ _______ _____ _____    ______ ____

>  <TORSDO>
F 5

$$$$
=
 OpenBabel09092515023D

 30 33  0  0  1  0  0  0  0  0999 V2000
   84.5230   55.4350   47.3300 C   0  0  1  0  0  3  0  0  0  0  0  0
   85.7150   54.7120   47.9530 C   0  0  0  0  0  2  0  0  0  0  0  0
   85.8370   53.2820   47.4140 C   0  0  0  0  0  2  0  0  0  0  0  0
   85.7050   53.1360   45.8480 C   0  0  1  0  0  0  0  0  0  0  0  0
   85.4820   54.4910   45.1560 C   0  0  0  0  0  0  0  0  0  0  0  0
   85.8090   54.6470   43.8640 C   0  0  0  0  0  3  0  0  0  0  0  0
   86.5690   53.6310   43.1260 C   0  0  0  0  0  3  0  0  0  0  0  0
   87.1090   52.5750   43.7500 C   0  0  0  0  0  0  0  0  0  0  0  0
   87.0150   52.4590   45.2720 C   0  0  2  0  0  3  0  0  0  0  0  0
   87.2340   50.9870   45.7700 C   0  0  0  0  0  2  0  0  0  0  0  0
   88.3370   50.2100   45.0150 C   0  0  0  0  0  2  0  0  0  0  0  0
   88.1180   50.2730   43.4820 C   0  0  1  0  0  0  0  0  0  0  0  0
   88.1860   51.7510   43.0850 C   0  0  1  0  0  3  0  0  0  0  0  0
   88.3360   51.7400   41.5670 C   0  0  0  0  0  2  0  0  0  0  0  0
   89.2030   50.5010   41.2850 C   0  0  0  0  0  2  0  0  0  0  0  0
   89.2820   49.7090   42.6170 C   0  0  2  0  0  3  0  0  0  0  0  0
   86.7510   49.6330   43.0990 C   0  0  0  0  0  1  0  0  0  0  0  0
   84.7640   55.6430   45.8320 C   0  0  0  0  0  2  0  0  0  0  0  0
   84.4500   52.2830   45.5170 C   0  0  0  0  0  1  0  0  0  0  0  0
   83.3350   54.7130   47.5350 O   0  0  0  0  0  0  0  0  0  0  0  0
   83.4630   53.7920   47.2550 H   0  0  0  0  0  0  0  0  0  0  0  0
   89.4980   48.1620   42.4640 C   0  0  2  0  0  3  0  0  0  0  0  0
   90.4520   47.6850   41.3510 C   0  0  0  0  0  1  0  0  0  0  0  0
   88.1790   47.4330   42.3490 C   0  0  0  0  0  3  0  0  0  0  0  0
   88.1200   46.1210   42.0720 C   0  0  0  0  0  3  0  0  0  0  0  0
   86.8010   45.3810   42.0430 C   0  0  2  0  0  3  0  0  0  0  0  0
   85.6880   46.2750   42.6150 C   0  0  0  0  0  1  0  0  0  0  0  0
   86.9170   43.9960   42.7470 C   0  0  0  0  0  3  0  0  0  0  0  0
   88.3470   43.6640   43.2040 C   0  0  0  0  0  1  0  0  0  0  0  0
   85.9370   43.8630   43.9220 C   0  0  0  0  0  1  0  0  0  0  0  0
  1 20  1  6  0  0  0
  1  2  1  0  0  0  0
  3  2  1  0  0  0  0
  4 19  1  6  0  0  0
  4  3  1  0  0  0  0
  5 18  1  0  0  0  0
  5  4  1  0  0  0  0
  6  5  2  0  0  0  0
  7  8  2  0  0  0  0
  7  6  1  0  0  0  0
  8  9  1  0  0  0  0
  9 10  1  6  0  0  0
  9  4  1  0  0  0  0
 11 10  1  0  0  0  0
 12 17  1  6  0  0  0
 12 11  1  0  0  0  0
 13 14  1  6  0  0  0
 13 12  1  0  0  0  0
 13  8  1  0  0  0  0
 15 14  1  0  0  0  0
 15 16  1  0  0  0  0
 16 22  1  6  0  0  0
 16 12  1  0  0  0  0
 18  1  1  0  0  0  0
 21 20  1  0  0  0  0
 22 23  1  6  0  0  0
 24 22  1  0  0  0  0
 25 24  2  0  0  0  0
 26 25  1  0  0  0  0
 26 27  1  1  0  0  0
 26 28  1  0  0  0  0
 28 29  1  0  0  0  0
 28 30  1  0  0  0  0
M  END
>  <MODEL>
2

>  <REMARK>
 VINA RESULT:   -10.118      3.330      8.356
 INTER + INTRA:         -13.166
 INTER:                 -13.047
 INTRA:                  -0.119
 UNBOUND:                -0.386
  Name = 
  11 active torsions:
  status: ('A' for Active; 'I' for Inactive)
    1  A    between atoms: O_1  and  C_2
    2  A    between atoms: C_5  and  C_29
    3  A    between atoms: C_13  and  C_27
    4  A    between atoms: C_17  and  C_18
    5  A    between atoms: C_18  and  C_19
    6  A    between atoms: C_18  and  C_26
    7  A    between atoms: C_20  and  C_21
    8  A    between atoms: C_21  and  C_22
    9  A    between atoms: C_21  and  C_25
   10  A    between atoms: C_22  and  C_23
   11  A    between atoms: C_22  and  C_24
                            x       y       z     vdW  Elec       q    Type
                         _______ _______ _______ _____ _____    ______ ____

>  <TORSDO>
F 5

$$$$
=
 OpenBabel09092515023D

 30 33  0  0  1  0  0  0  0  0999 V2000
   85.1310   58.4280   45.0830 C   0  0  1  0  0  3  0  0  0  0  0  0
   84.0560   57.6150   44.3650 C   0  0  0  0  0  2  0  0  0  0  0  0
   84.6650   56.4070   43.6430 C   0  0  0  0  0  2  0  0  0  0  0  0
   85.6940   55.5620   44.4900 C   0  0  1  0  0  0  0  0  0  0  0  0
   85.8800   56.1270   45.9080 C   0  0  0  0  0  0  0  0  0  0  0  0
   86.3130   55.3290   46.8970 C   0  0  0  0  0  3  0  0  0  0  0  0
   86.4250   53.8750   46.7300 C   0  0  0  0  0  3  0  0  0  0  0  0
   85.9490   53.2600   45.6400 C   0  0  0  0  0  0  0  0  0  0  0  0
   85.1930   54.0630   44.5810 C   0  0  2  0  0  3  0  0  0  0  0  0
   85.1530   53.3280   43.1940 C   0  0  0  0  0  2  0  0  0  0  0  0
   84.9420   51.7990   43.2830 C   0  0  0  0  0  2  0  0  0  0  0  0
   85.9620   51.1480   44.2520 C   0  0  1  0  0  0  0  0  0  0  0  0
   85.7200   51.7670   45.6320 C   0  0  1  0  0  3  0  0  0  0  0  0
   86.4660   50.8570   46.6030 C   0  0  0  0  0  2  0  0  0  0  0  0
   86.2980   49.4510   46.0010 C   0  0  0  0  0  2  0  0  0  0  0  0
   85.7060   49.6480   44.5820 C   0  0  2  0  0  3  0  0  0  0  0  0
   87.4170   51.3890   43.7550 C   0  0  0  0  0  1  0  0  0  0  0  0
   85.7320   57.6020   46.2240 C   0  0  0  0  0  2  0  0  0  0  0  0
   87.0940   55.6390   43.8200 C   0  0  0  0  0  1  0  0  0  0  0  0
   86.1380   58.8280   44.1880 O   0  0  0  0  0  0  0  0  0  0  0  0
   86.9640   58.9770   44.6760 H   0  0  0  0  0  0  0  0  0  0  0  0
   86.0560   48.5220   43.5460 C   0  0  2  0  0  3  0  0  0  0  0  0
   85.5560   47.0970   43.8530 C   0  0  0  0  0  1  0  0  0  0  0  0
   87.5390   48.4880   43.2560 C   0  0  0  0  0  3  0  0  0  0  0  0
   88.0220   47.9900   42.1070 C   0  0  0  0  0  3  0  0  0  0  0  0
   89.4990   48.0370   41.7870 C   0  0  2  0  0  3  0  0  0  0  0  0
   90.1700   46.7230   42.2210 C   0  0  0  0  0  1  0  0  0  0  0  0
   90.1660   49.3100   42.3900 C   0  0  0  0  0  3  0  0  0  0  0  0
   91.6060   49.0700   42.8720 C   0  0  0  0  0  1  0  0  0  0  0  0
   90.1180   50.5000   41.4220 C   0  0  0  0  0  1  0  0  0  0  0  0
  1 20  1  6  0  0  0
  1 18  1  0  0  0  0
  2  1  1  0  0  0  0
  3  2  1  0  0  0  0
  3  4  1  0  0  0  0
  4 19  1  6  0  0  0
  4  9  1  0  0  0  0
  4  5  1  0  0  0  0
  5 18  1  0  0  0  0
  5  6  2  0  0  0  0
  7  6  1  0  0  0  0
  8  7  2  0  0  0  0
  9 10  1  6  0  0  0
  9  8  1  0  0  0  0
 10 11  1  0  0  0  0
 11 12  1  0  0  0  0
 12 17  1  6  0  0  0
 12 16  1  0  0  0  0
 12 13  1  0  0  0  0
 13  8  1  0  0  0  0
 13 14  1  1  0  0  0
 15 14  1  0  0  0  0
 16 22  1  6  0  0  0
 16 15  1  0  0  0  0
 20 21  1  0  0  0  0
 22 23  1  1  0  0  0
 24 22  1  0  0  0  0
 25 24  2  0  0  0  0
 26 25  1  0  0  0  0
 26 27  1  1  0  0  0
 26 28  1  0  0  0  0
 28 29  1  0  0  0  0
 30 28  1  0  0  0  0
M  END
>  <MODEL>
3

>  <REMARK>
 VINA RESULT:    -9.844      2.532      7.190
 INTER + INTRA:         -12.820
 INTER:                 -12.224
 INTRA:                  -0.596
 UNBOUND:                -0.386
  Name = 
  11 active torsions:
  status: ('A' for Active; 'I' for Inactive)
    1  A    between atoms: O_1  and  C_2
    2  A    between atoms: C_5  and  C_29
    3  A    between atoms: C_13  and  C_27
    4  A    between atoms: C_17  and  C_18
    5  A    between atoms: C_18  and  C_19
    6  A    between atoms: C_18  and  C_26
    7  A    between atoms: C_20  and  C_21
    8  A    between atoms: C_21  and  C_22
    9  A    between atoms: C_21  and  C_25
   10  A    between atoms: C_22  and  C_23
   11  A    between atoms: C_22  and  C_24
                            x       y       z     vdW  Elec       q    Type
                         _______ _______ _______ _____ _____    ______ ____

>  <TORSDO>
F 5

$$$$
=
 OpenBabel09092515023D

 30 33  0  0  1  0  0  0  0  0999 V2000
   85.0200   58.4180   44.8980 C   0  0  1  0  0  3  0  0  0  0  0  0
   84.1030   57.5090   44.0820 C   0  0  0  0  0  2  0  0  0  0  0  0
   84.8750   56.3150   43.5070 C   0  0  0  0  0  2  0  0  0  0  0  0
   85.8260   55.5730   44.5240 C   0  0  1  0  0  0  0  0  0  0  0  0
   85.7830   56.2050   45.9250 C   0  0  0  0  0  0  0  0  0  0  0  0
   86.1230   55.4770   47.0010 C   0  0  0  0  0  3  0  0  0  0  0  0
   86.3410   54.0270   46.9210 C   0  0  0  0  0  3  0  0  0  0  0  0
   86.0550   53.3400   45.8080 C   0  0  0  0  0  0  0  0  0  0  0  0
   85.4060   54.0500   44.6200 C   0  0  2  0  0  3  0  0  0  0  0  0
   85.5990   53.2590   43.2770 C   0  0  0  0  0  2  0  0  0  0  0  0
   85.4660   51.7240   43.4110 C   0  0  0  0  0  2  0  0  0  0  0  0
   86.3810   51.1790   44.5380 C   0  0  1  0  0  0  0  0  0  0  0  0
   85.9170   51.8360   45.8420 C   0  0  1  0  0  3  0  0  0  0  0  0
   86.5750   51.0150   46.9460 C   0  0  0  0  0  2  0  0  0  0  0  0
   86.5740   49.5790   46.3970 C   0  0  0  0  0  2  0  0  0  0  0  0
   86.1700   49.6810   44.9020 C   0  0  2  0  0  3  0  0  0  0  0  0
   87.8740   51.4940   44.2290 C   0  0  0  0  0  1  0  0  0  0  0  0
   85.5080   57.6790   46.1470 C   0  0  0  0  0  2  0  0  0  0  0  0
   87.2970   55.7130   44.0450 C   0  0  0  0  0  1  0  0  0  0  0  0
   86.1150   58.8460   44.1270 O   0  0  0  0  0  0  0  0  0  0  0  0
   86.0250   59.7930   43.9340 H   0  0  0  0  0  0  0  0  0  0  0  0
   86.7240   48.5390   43.9790 C   0  0  2  0  0  3  0  0  0  0  0  0
   87.1730   48.9320   42.5580 C   0  0  0  0  0  1  0  0  0  0  0  0
   85.7570   47.3800   43.9030 C   0  0  0  0  0  3  0  0  0  0  0  0
   84.4630   47.5600   43.5970 C   0  0  0  0  0  3  0  0  0  0  0  0
   83.5200   46.3880   43.4380 C   0  0  2  0  0  3  0  0  0  0  0  0
   84.1440   45.3380   42.5030 C   0  0  0  0  0  1  0  0  0  0  0  0
   82.1040   46.8610   42.9930 C   0  0  0  0  0  3  0  0  0  0  0  0
   80.9630   46.1220   43.7120 C   0  0  0  0  0  1  0  0  0  0  0  0
   81.9310   48.3790   43.1370 C   0  0  0  0  0  1  0  0  0  0  0  0
  1 20  1  6  0  0  0
  1 18  1  0  0  0  0
  2  1  1  0  0  0  0
  3  2  1  0  0  0  0
  3  4  1  0  0  0  0
  4 19  1  6  0  0  0
  4  9  1  0  0  0  0
  4  5  1  0  0  0  0
  5 18  1  0  0  0  0
  5  6  2  0  0  0  0
  7  6  1  0  0  0  0
  8 13  1  0  0  0  0
  8  7  2  0  0  0  0
  9 10  1  6  0  0  0
  9  8  1  0  0  0  0
 10 11  1  0  0  0  0
 11 12  1  0  0  0  0
 12 17  1  6  0  0  0
 12 16  1  0  0  0  0
 12 13  1  0  0  0  0
 13 14  1  1  0  0  0
 15 14  1  0  0  0  0
 16 22  1  6  0  0  0
 16 15  1  0  0  0  0
 21 20  1  0  0  0  0
 22 23  1  6  0  0  0
 24 22  1  0  0  0  0
 25 24  2  0  0  0  0
 26 27  1  6  0  0  0
 26 25  1  0  0  0  0
 28 30  1  0  0  0  0
 28 26  1  0  0  0  0
 28 29  1  0  0  0  0
M  END
>  <MODEL>
4

>  <REMARK>
 VINA RESULT:    -9.401      3.509      7.158
 INTER + INTRA:         -12.259
 INTER:                 -11.772
 INTRA:                  -0.487
 UNBOUND:                -0.386
  Name = 
  11 active torsions:
  status: ('A' for Active; 'I' for Inactive)
    1  A    between atoms: O_1  and  C_2
    2  A    between atoms: C_5  and  C_29
    3  A    between atoms: C_13  and  C_27
    4  A    between atoms: C_17  and  C_18
    5  A    between atoms: C_18  and  C_19
    6  A    between atoms: C_18  and  C_26
    7  A    between atoms: C_20  and  C_21
    8  A    between atoms: C_21  and  C_22
    9  A    between atoms: C_21  and  C_25
   10  A    between atoms: C_22  and  C_23
   11  A    between atoms: C_22  and  C_24
                            x       y       z     vdW  Elec       q    Type
                         _______ _______ _______ _____ _____    ______ ____

>  <TORSDO>
F 5

$$$$
=
 OpenBabel09092515023D

 30 33  0  0  1  0  0  0  0  0999 V2000
   85.9470   45.3180   42.9660 C   0  0  1  0  0  3  0  0  0  0  0  0
   84.6130   45.9530   42.5770 C   0  0  0  0  0  2  0  0  0  0  0  0
   84.3390   47.2140   43.4050 C   0  0  0  0  0  2  0  0  0  0  0  0
   85.5500   48.2170   43.5320 C   0  0  1  0  0  0  0  0  0  0  0  0
   86.7940   47.7220   42.7740 C   0  0  0  0  0  0  0  0  0  0  0  0
   87.7260   48.5990   42.3690 C   0  0  0  0  0  3  0  0  0  0  0  0
   87.5100   50.0500   42.4370 C   0  0  0  0  0  3  0  0  0  0  0  0
   86.3150   50.5620   42.7560 C   0  0  0  0  0  0  0  0  0  0  0  0
   85.1200   49.6330   42.9700 C   0  0  2  0  0  3  0  0  0  0  0  0
   83.9770   50.3180   43.8000 C   0  0  0  0  0  2  0  0  0  0  0  0
   83.7310   51.8040   43.4520 C   0  0  0  0  0  2  0  0  0  0  0  0
   85.0490   52.6170   43.5070 C   0  0  1  0  0  0  0  0  0  0  0  0
   85.9900   52.0080   42.4630 C   0  0  1  0  0  3  0  0  0  0  0  0
   87.1010   53.0390   42.2910 C   0  0  0  0  0  2  0  0  0  0  0  0
   86.3840   54.3910   42.4460 C   0  0  0  0  0  2  0  0  0  0  0  0
   84.9580   54.0750   42.9690 C   0  0  2  0  0  3  0  0  0  0  0  0
   85.6620   52.5680   44.9380 C   0  0  0  0  0  1  0  0  0  0  0  0
   87.0990   46.2500   42.5820 C   0  0  0  0  0  2  0  0  0  0  0  0
   85.9780   48.3180   45.0210 C   0  0  0  0  0  1  0  0  0  0  0  0
   85.9860   45.0380   44.3430 O   0  0  0  0  0  0  0  0  0  0  0  0
   85.1350   45.2760   44.7450 H   0  0  0  0  0  0  0  0  0  0  0  0
   84.2890   55.2100   43.8210 C   0  0  2  0  0  3  0  0  0  0  0  0
   84.1150   56.5890   43.1530 C   0  0  0  0  0  1  0  0  0  0  0  0
   84.9830   55.3760   45.1530 C   0  0  0  0  0  3  0  0  0  0  0  0
   84.2920   55.5330   46.2930 C   0  0  0  0  0  3  0  0  0  0  0  0
   84.9910   55.6120   47.6320 C   0  0  2  0  0  3  0  0  0  0  0  0
   86.4950   55.8570   47.4230 C   0  0  0  0  0  1  0  0  0  0  0  0
   84.6750   54.3620   48.5070 C   0  0  0  0  0  3  0  0  0  0  0  0
   83.4020   53.6190   48.0680 C   0  0  0  0  0  1  0  0  0  0  0  0
   85.8620   53.3920   48.5770 C   0  0  0  0  0  1  0  0  0  0  0  0
  1 20  1  1  0  0  0
  2  1  1  0  0  0  0
  2  3  1  0  0  0  0
  3  4  1  0  0  0  0
  4 19  1  1  0  0  0
  5  4  1  0  0  0  0
  6  7  1  0  0  0  0
  6  5  2  0  0  0  0
  7  8  2  0  0  0  0
  8  9  1  0  0  0  0
  9  4  1  0  0  0  0
  9 10  1  1  0  0  0
 11 12  1  0  0  0  0
 11 10  1  0  0  0  0
 12 17  1  1  0  0  0
 13 14  1  1  0  0  0
 13  8  1  0  0  0  0
 13 12  1  0  0  0  0
 14 15  1  0  0  0  0
 15 16  1  0  0  0  0
 16 12  1  0  0  0  0
 16 22  1  1  0  0  0
 18  5  1  0  0  0  0
 18  1  1  0  0  0  0
 20 21  1  0  0  0  0
 22 23  1  6  0  0  0
 22 24  1  0  0  0  0
 24 25  2  0  0  0  0
 25 26  1  0  0  0  0
 26 27  1  6  0  0  0
 26 28  1  0  0  0  0
 28 30  1  0  0  0  0
 29 28  1  0  0  0  0
M  END
>  <MODEL>
5

>  <REMARK>
 VINA RESULT:    -8.958      2.981      5.063
 INTER + INTRA:         -11.700
 INTER:                 -11.011
 INTRA:                  -0.688
 UNBOUND:                -0.386
  Name = 
  11 active torsions:
  status: ('A' for Active; 'I' for Inactive)
    1  A    between atoms: O_1  and  C_2
    2  A    between atoms: C_5  and  C_29
    3  A    between atoms: C_13  and  C_27
    4  A    between atoms: C_17  and  C_18
    5  A    between atoms: C_18  and  C_19
    6  A    between atoms: C_18  and  C_26
    7  A    between atoms: C_20  and  C_21
    8  A    between atoms: C_21  and  C_22
    9  A    between atoms: C_21  and  C_25
   10  A    between atoms: C_22  and  C_23
   11  A    between atoms: C_22  and  C_24
                            x       y       z     vdW  Elec       q    Type
                         _______ _______ _______ _____ _____    ______ ____

>  <TORSDO>
F 5

$$$$
=
 OpenBabel09092515023D

 30 33  0  0  1  0  0  0  0  0999 V2000
   90.1870   48.1160   41.7850 C   0  0  1  0  0  3  0  0  0  0  0  0
   90.5300   49.5320   41.3260 C   0  0  0  0  0  2  0  0  0  0  0  0
   89.2800   50.4190   41.2850 C   0  0  0  0  0  2  0  0  0  0  0  0
   88.3460   50.3300   42.5530 C   0  0  1  0  0  0  0  0  0  0  0  0
   88.8920   49.3550   43.6090 C   0  0  0  0  0  0  0  0  0  0  0  0
   88.5310   49.4860   44.8950 C   0  0  0  0  0  3  0  0  0  0  0  0
   87.7900   50.6570   45.3790 C   0  0  0  0  0  3  0  0  0  0  0  0
   87.5800   51.7220   44.5940 C   0  0  0  0  0  0  0  0  0  0  0  0
   88.1940   51.7700   43.1940 C   0  0  2  0  0  3  0  0  0  0  0  0
   87.4650   52.8000   42.2610 C   0  0  0  0  0  2  0  0  0  0  0  0
   87.0540   54.1180   42.9560 C   0  0  0  0  0  2  0  0  0  0  0  0
   86.2470   53.8420   44.2500 C   0  0  1  0  0  0  0  0  0  0  0  0
   87.1660   53.0490   45.1850 C   0  0  1  0  0  3  0  0  0  0  0  0
   86.4880   53.1190   46.5490 C   0  0  0  0  0  2  0  0  0  0  0  0
   85.8580   54.5220   46.5830 C   0  0  0  0  0  2  0  0  0  0  0  0
   85.9660   55.0860   45.1420 C   0  0  2  0  0  3  0  0  0  0  0  0
   84.9410   53.0600   43.9220 C   0  0  0  0  0  1  0  0  0  0  0  0
   89.7230   48.1400   43.2440 C   0  0  0  0  0  2  0  0  0  0  0  0
   86.9630   49.7630   42.1330 C   0  0  0  0  0  1  0  0  0  0  0  0
   89.1930   47.5520   40.9670 O   0  0  0  0  0  0  0  0  0  0  0  0
   89.2810   47.8990   40.0650 H   0  0  0  0  0  0  0  0  0  0  0  0
   84.8640   56.1310   44.7460 C   0  0  2  0  0  3  0  0  0  0  0  0
   83.9200   56.6220   45.8610 C   0  0  0  0  0  1  0  0  0  0  0  0
   84.0500   55.6480   43.5680 C   0  0  0  0  0  3  0  0  0  0  0  0
   84.2820   56.0900   42.3220 C   0  0  0  0  0  3  0  0  0  0  0  0
   83.5210   55.5380   41.1370 C   0  0  2  0  0  3  0  0  0  0  0  0
   82.5680   54.4230   41.6000 C   0  0  0  0  0  1  0  0  0  0  0  0
   84.4910   55.1010   39.9990 C   0  0  0  0  0  3  0  0  0  0  0  0
   84.8550   53.6080   40.0510 C   0  0  0  0  0  1  0  0  0  0  0  0
   83.9530   55.4710   38.6090 C   0  0  0  0  0  1  0  0  0  0  0  0
  1 20  1  6  0  0  0
  1 18  1  0  0  0  0
  2  1  1  0  0  0  0
  3  2  1  0  0  0  0
  3  4  1  0  0  0  0
  4 19  1  6  0  0  0
  4  9  1  0  0  0  0
  4  5  1  0  0  0  0
  5  6  2  0  0  0  0
  6  7  1  0  0  0  0
  8 13  1  0  0  0  0
  8  7  2  0  0  0  0
  9 10  1  6  0  0  0
  9  8  1  0  0  0  0
 10 11  1  0  0  0  0
 11 12  1  0  0  0  0
 12 17  1  6  0  0  0
 12 16  1  0  0  0  0
 12 13  1  0  0  0  0
 13 14  1  1  0  0  0
 14 15  1  0  0  0  0
 16 22  1  6  0  0  0
 16 15  1  0  0  0  0
 18  5  1  0  0  0  0
 21 20  1  0  0  0  0
 22 23  1  1  0  0  0
 24 22  1  0  0  0  0
 25 24  2  0  0  0  0
 26 27  1  1  0  0  0
 26 25  1  0  0  0  0
 28 29  1  0  0  0  0
 28 26  1  0  0  0  0
 30 28  1  0  0  0  0
M  END
>  <MODEL>
6

>  <REMARK>
 VINA RESULT:    -8.685      2.245      3.877
 INTER + INTRA:         -11.355
 INTER:                 -10.876
 INTRA:                  -0.479
 UNBOUND:                -0.386
  Name = 
  11 active torsions:
  status: ('A' for Active; 'I' for Inactive)
    1  A    between atoms: O_1  and  C_2
    2  A    between atoms: C_5  and  C_29
    3  A    between atoms: C_13  and  C_27
    4  A    between atoms: C_17  and  C_18
    5  A    between atoms: C_18  and  C_19
    6  A    between atoms: C_18  and  C_26
    7  A    between atoms: C_20  and  C_21
    8  A    between atoms: C_21  and  C_22
    9  A    between atoms: C_21  and  C_25
   10  A    between atoms: C_22  and  C_23
   11  A    between atoms: C_22  and  C_24
                            x       y       z     vdW  Elec       q    Type
                         _______ _______ _______ _____ _____    ______ ____

>  <TORSDO>
F 5

$$$$
=
 OpenBabel09092515023D

 30 33  0  0  1  0  0  0  0  0999 V2000
   79.6670   46.4830   44.0430 C   0  0  1  0  0  3  0  0  0  0  0  0
   80.7690   46.4640   45.1010 C   0  0  0  0  0  2  0  0  0  0  0  0
   82.1350   46.7840   44.4820 C   0  0  0  0  0  2  0  0  0  0  0  0
   82.1610   48.0220   43.5040 C   0  0  1  0  0  0  0  0  0  0  0  0
   80.7800   48.6830   43.3690 C   0  0  0  0  0  0  0  0  0  0  0  0
   80.6850   49.9680   42.9920 C   0  0  0  0  0  3  0  0  0  0  0  0
   81.8620   50.8400   42.8980 C   0  0  0  0  0  3  0  0  0  0  0  0
   83.0620   50.4400   43.3390 C   0  0  0  0  0  0  0  0  0  0  0  0
   83.2060   49.0870   44.0350 C   0  0  2  0  0  3  0  0  0  0  0  0
   84.6890   48.5700   44.0280 C   0  0  0  0  0  2  0  0  0  0  0  0
   85.7520   49.6660   44.2700 C   0  0  0  0  0  2  0  0  0  0  0  0
   85.5540   50.8620   43.3040 C   0  0  1  0  0  0  0  0  0  0  0  0
   84.1650   51.4400   43.5920 C   0  0  1  0  0  3  0  0  0  0  0  0
   84.1600   52.8020   42.9040 C   0  0  0  0  0  2  0  0  0  0  0  0
   85.6020   53.3110   43.0700 C   0  0  0  0  0  2  0  0  0  0  0  0
   86.4320   52.1120   43.5990 C   0  0  2  0  0  3  0  0  0  0  0  0
   85.6920   50.3960   41.8240 C   0  0  0  0  0  1  0  0  0  0  0  0
   79.4860   47.9050   43.5040 C   0  0  0  0  0  2  0  0  0  0  0  0
   82.5380   47.5400   42.0770 C   0  0  0  0  0  1  0  0  0  0  0  0
   79.9660   45.5990   42.9920 O   0  0  0  0  0  0  0  0  0  0  0  0
   80.9280   45.5590   42.8670 H   0  0  0  0  0  0  0  0  0  0  0  0
   87.9560   52.1350   43.2250 C   0  0  2  0  0  3  0  0  0  0  0  0
   88.3320   52.6210   41.8110 C   0  0  0  0  0  1  0  0  0  0  0  0
   88.6060   50.7970   43.4900 C   0  0  0  0  0  3  0  0  0  0  0  0
   89.2960   50.1470   42.5400 C   0  0  0  0  0  3  0  0  0  0  0  0
   90.0140   48.8490   42.8360 C   0  0  2  0  0  3  0  0  0  0  0  0
   91.5320   49.0950   42.8990 C   0  0  0  0  0  1  0  0  0  0  0  0
   89.6020   47.7340   41.8300 C   0  0  0  0  0  3  0  0  0  0  0  0
   90.2720   46.3800   42.1150 C   0  0  0  0  0  1  0  0  0  0  0  0
   88.0780   47.5680   41.7470 C   0  0  0  0  0  1  0  0  0  0  0  0
  1 20  1  6  0  0  0
  1  2  1  0  0  0  0
  3  2  1  0  0  0  0
  4 19  1  6  0  0  0
  4  9  1  0  0  0  0
  4  3  1  0  0  0  0
  5 18  1  0  0  0  0
  5  4  1  0  0  0  0
  6  5  2  0  0  0  0
  7  6  1  0  0  0  0
  7  8  2  0  0  0  0
  8 13  1  0  0  0  0
  8  9  1  0  0  0  0
  9 10  1  6  0  0  0
 10 11  1  0  0  0  0
 12 17  1  6  0  0  0
 12 13  1  0  0  0  0
 12 16  1  0  0  0  0
 12 11  1  0  0  0  0
 13 14  1  6  0  0  0
 14 15  1  0  0  0  0
 15 16  1  0  0  0  0
 16 22  1  6  0  0  0
 18  1  1  0  0  0  0
 21 20  1  0  0  0  0
 22 23  1  6  0  0  0
 22 24  1  0  0  0  0
 25 26  1  0  0  0  0
 25 24  2  0  0  0  0
 26 27  1  6  0  0  0
 28 29  1  0  0  0  0
 28 26  1  0  0  0  0
 30 28  1  0  0  0  0
M  END
>  <MODEL>
7

>  <REMARK>
 VINA RESULT:    -8.582      4.494      8.315
 INTER + INTRA:         -11.225
 INTER:                 -10.376
 INTRA:                  -0.849
 UNBOUND:                -0.386
  Name = 
  11 active torsions:
  status: ('A' for Active; 'I' for Inactive)
    1  A    between atoms: O_1  and  C_2
    2  A    between atoms: C_5  and  C_29
    3  A    between atoms: C_13  and  C_27
    4  A    between atoms: C_17  and  C_18
    5  A    between atoms: C_18  and  C_19
    6  A    between atoms: C_18  and  C_26
    7  A    between atoms: C_20  and  C_21
    8  A    between atoms: C_21  and  C_22
    9  A    between atoms: C_21  and  C_25
   10  A    between atoms: C_22  and  C_23
   11  A    between atoms: C_22  and  C_24
                            x       y       z     vdW  Elec       q    Type
                         _______ _______ _______ _____ _____    ______ ____

>  <TORSDO>
F 5

$$$$
=
 OpenBabel09092515023D

 30 33  0  0  1  0  0  0  0  0999 V2000
   84.6750   57.3990   45.9800 C   0  0  1  0  0  3  0  0  0  0  0  0
   85.9550   56.8020   46.5640 C   0  0  0  0  0  2  0  0  0  0  0  0
   85.9290   55.2700   46.5010 C   0  0  0  0  0  2  0  0  0  0  0  0
   85.4690   54.6580   45.1210 C   0  0  1  0  0  0  0  0  0  0  0  0
   85.1370   55.7450   44.0860 C   0  0  0  0  0  0  0  0  0  0  0  0
   85.1910   55.4630   42.7750 C   0  0  0  0  0  3  0  0  0  0  0  0
   85.7570   54.2050   42.2730 C   0  0  0  0  0  3  0  0  0  0  0  0
   86.3910   53.3520   43.0880 C   0  0  0  0  0  0  0  0  0  0  0  0
   86.6150   53.7230   44.5540 C   0  0  2  0  0  3  0  0  0  0  0  0
   86.8990   52.4650   45.4490 C   0  0  0  0  0  2  0  0  0  0  0  0
   87.8020   51.3980   44.7880 C   0  0  0  0  0  2  0  0  0  0  0  0
   87.2690   51.0010   43.3880 C   0  0  1  0  0  0  0  0  0  0  0  0
   87.2860   52.2700   42.5310 C   0  0  1  0  0  3  0  0  0  0  0  0
   87.1150   51.7750   41.0980 C   0  0  0  0  0  2  0  0  0  0  0  0
   87.8760   50.4390   41.0710 C   0  0  0  0  0  2  0  0  0  0  0  0
   88.2130   50.0950   42.5460 C   0  0  2  0  0  3  0  0  0  0  0  0
   85.8380   50.3970   43.5000 C   0  0  0  0  0  1  0  0  0  0  0  0
   84.6030   57.1090   44.4780 C   0  0  0  0  0  2  0  0  0  0  0  0
   84.1540   53.8590   45.3280 C   0  0  0  0  0  1  0  0  0  0  0  0
   83.5400   56.8840   46.6300 O   0  0  0  0  0  0  0  0  0  0  0  0
   83.2810   56.0470   46.2130 H   0  0  0  0  0  0  0  0  0  0  0  0
   88.3580   48.5650   42.8610 C   0  0  2  0  0  3  0  0  0  0  0  0
   89.2920   47.7390   41.9540 C   0  0  0  0  0  1  0  0  0  0  0  0
   87.0070   47.8920   42.9430 C   0  0  0  0  0  3  0  0  0  0  0  0
   86.6950   47.0550   43.9440 C   0  0  0  0  0  3  0  0  0  0  0  0
   85.3130   46.4530   44.0660 C   0  0  2  0  0  3  0  0  0  0  0  0
   85.4100   44.9180   44.0670 C   0  0  0  0  0  1  0  0  0  0  0  0
   84.3540   47.0190   42.9760 C   0  0  0  0  0  3  0  0  0  0  0  0
   83.7950   45.9380   42.0370 C   0  0  0  0  0  1  0  0  0  0  0  0
   83.2080   47.8390   43.5870 C   0  0  0  0  0  1  0  0  0  0  0  0
  1  2  1  0  0  0  0
  1 20  1  1  0  0  0
  3  2  1  0  0  0  0
  4 19  1  1  0  0  0
  4  3  1  0  0  0  0
  5 18  1  0  0  0  0
  5  4  1  0  0  0  0
  6  5  2  0  0  0  0
  7  6  1  0  0  0  0
  7  8  2  0  0  0  0
  8  9  1  0  0  0  0
  9  4  1  0  0  0  0
  9 10  1  1  0  0  0
 11 10  1  0  0  0  0
 12 17  1  1  0  0  0
 12 11  1  0  0  0  0
 13 14  1  6  0  0  0
 13  8  1  0  0  0  0
 13 12  1  0  0  0  0
 15 14  1  0  0  0  0
 15 16  1  0  0  0  0
 16 22  1  6  0  0  0
 16 12  1  0  0  0  0
 18  1  1  0  0  0  0
 21 20  1  0  0  0  0
 22 23  1  6  0  0  0
 22 24  1  0  0  0  0
 24 25  2  0  0  0  0
 25 26  1  0  0  0  0
 26 27  1  6  0  0  0
 28 30  1  0  0  0  0
 28 26  1  0  0  0  0
 29 28  1  0  0  0  0
M  END
>  <MODEL>
8

>  <REMARK>
 VINA RESULT:    -8.413      3.271      7.594
 INTER + INTRA:         -11.011
 INTER:                 -10.626
 INTRA:                  -0.386
 UNBOUND:                -0.386
  Name = 
  11 active torsions:
  status: ('A' for Active; 'I' for Inactive)
    1  A    between atoms: O_1  and  C_2
    2  A    between atoms: C_5  and  C_29
    3  A    between atoms: C_13  and  C_27
    4  A    between atoms: C_17  and  C_18
    5  A    between atoms: C_18  and  C_19
    6  A    between atoms: C_18  and  C_26
    7  A    between atoms: C_20  and  C_21
    8  A    between atoms: C_21  and  C_22
    9  A    between atoms: C_21  and  C_25
   10  A    between atoms: C_22  and  C_23
   11  A    between atoms: C_22  and  C_24
                            x       y       z     vdW  Elec       q    Type
                         _______ _______ _______ _____ _____    ______ ____

>  <TORSDO>
F 5

$$$$
=
 OpenBabel09092515023D

 30 33  0  0  1  0  0  0  0  0999 V2000
   90.1980   47.5590   41.3900 C   0  0  1  0  0  3  0  0  0  0  0  0
   90.2490   47.3430   42.9020 C   0  0  0  0  0  2  0  0  0  0  0  0
   90.0970   48.6700   43.6550 C   0  0  0  0  0  2  0  0  0  0  0  0
   88.9330   49.6060   43.1470 C   0  0  1  0  0  0  0  0  0  0  0  0
   88.1580   48.9840   41.9740 C   0  0  0  0  0  0  0  0  0  0  0  0
   86.8980   49.3710   41.7220 C   0  0  0  0  0  3  0  0  0  0  0  0
   86.1450   50.2230   42.6510 C   0  0  0  0  0  3  0  0  0  0  0  0
   86.6240   50.5220   43.8660 C   0  0  0  0  0  0  0  0  0  0  0  0
   87.9360   49.8990   44.3420 C   0  0  2  0  0  3  0  0  0  0  0  0
   88.5860   50.7090   45.5190 C   0  0  0  0  0  2  0  0  0  0  0  0
   87.5780   51.2490   46.5600 C   0  0  0  0  0  2  0  0  0  0  0  0
   86.4360   52.0420   45.8760 C   0  0  1  0  0  0  0  0  0  0  0  0
   85.7140   51.0640   44.9430 C   0  0  1  0  0  3  0  0  0  0  0  0
   84.4060   51.7620   44.5840 C   0  0  0  0  0  2  0  0  0  0  0  0
   84.0220   52.5200   45.8660 C   0  0  0  0  0  2  0  0  0  0  0  0
   85.2540   52.4470   46.8050 C   0  0  2  0  0  3  0  0  0  0  0  0
   87.0080   53.2660   45.1030 C   0  0  0  0  0  1  0  0  0  0  0  0
   88.8040   48.0400   40.9790 C   0  0  0  0  0  2  0  0  0  0  0  0
   89.5400   50.9260   42.5970 C   0  0  0  0  0  1  0  0  0  0  0  0
   91.1730   48.4870   40.9840 O   0  0  0  0  0  0  0  0  0  0  0  0
   90.8450   48.9870   40.2190 H   0  0  0  0  0  0  0  0  0  0  0  0
   85.3950   53.6370   47.8190 C   0  0  2  0  0  3  0  0  0  0  0  0
   84.6790   53.5000   49.1770 C   0  0  0  0  0  1  0  0  0  0  0  0
   85.0170   54.9510   47.1760 C   0  0  0  0  0  3  0  0  0  0  0  0
   85.9340   55.8920   46.9020 C   0  0  0  0  0  3  0  0  0  0  0  0
   85.5620   57.1680   46.1810 C   0  0  2  0  0  3  0  0  0  0  0  0
   84.1030   57.5390   46.4950 C   0  0  0  0  0  1  0  0  0  0  0  0
   85.8680   57.0640   44.6560 C   0  0  0  0  0  3  0  0  0  0  0  0
   84.7680   56.3380   43.8640 C   0  0  0  0  0  1  0  0  0  0  0  0
   86.1580   58.4360   44.0320 C   0  0  0  0  0  1  0  0  0  0  0  0
  1 20  1  1  0  0  0
  1  2  1  0  0  0  0
  2  3  1  0  0  0  0
  4 19  1  6  0  0  0
  4  3  1  0  0  0  0
  4  9  1  0  0  0  0
  5  4  1  0  0  0  0
  6  5  2  0  0  0  0
  6  7  1  0  0  0  0
  7  8  2  0  0  0  0
  8  9  1  0  0  0  0
  8 13  1  0  0  0  0
  9 10  1  1  0  0  0
 10 11  1  0  0  0  0
 12 17  1  6  0  0  0
 12 11  1  0  0  0  0
 12 16  1  0  0  0  0
 13 14  1  6  0  0  0
 13 12  1  0  0  0  0
 14 15  1  0  0  0  0
 15 16  1  0  0  0  0
 16 22  1  6  0  0  0
 18  1  1  0  0  0  0
 18  5  1  0  0  0  0
 21 20  1  0  0  0  0
 22 23  1  1  0  0  0
 24 22  1  0  0  0  0
 25 24  2  0  0  0  0
 26 27  1  6  0  0  0
 26 25  1  0  0  0  0
 28 26  1  0  0  0  0
 29 28  1  0  0  0  0
 30 28  1  0  0  0  0
M  END
>  <MODEL>
9

>  <REMARK>
 VINA RESULT:    -8.379      1.699      2.841
 INTER + INTRA:         -10.969
 INTER:                 -10.031
 INTRA:                  -0.938
 UNBOUND:                -0.386
  Name = 
  11 active torsions:
  status: ('A' for Active; 'I' for Inactive)
    1  A    between atoms: O_1  and  C_2
    2  A    between atoms: C_5  and  C_29
    3  A    between atoms: C_13  and  C_27
    4  A    between atoms: C_17  and  C_18
    5  A    between atoms: C_18  and  C_19
    6  A    between atoms: C_18  and  C_26
    7  A    between atoms: C_20  and  C_21
    8  A    between atoms: C_21  and  C_22
    9  A    between atoms: C_21  and  C_25
   10  A    between atoms: C_22  and  C_23
   11  A    between atoms: C_22  and  C_24
                            x       y       z     vdW  Elec       q    Type
                         _______ _______ _______ _____ _____    ______ ____

>  <TORSDO>
F 5

$$$$
