MODEL 1
REMARK VINA RESULT:    -9.904      0.000      0.000
REMARK INTER + INTRA:         -12.459
REMARK INTER:                 -13.120
REMARK INTRA:                   0.661
REMARK UNBOUND:                 0.050
REMARK  Name = 
REMARK  11 active torsions:
REMARK  status: ('A' for Active; 'I' for Inactive)
REMARK    1  A    between atoms: O_1  and  C_2
REMARK    2  A    between atoms: C_5  and  C_29
REMARK    3  A    between atoms: C_13  and  C_27
REMARK    4  A    between atoms: C_17  and  C_18
REMARK    5  A    between atoms: C_18  and  C_19
REMARK    6  A    between atoms: C_18  and  C_26
REMARK    7  A    between atoms: C_20  and  C_21
REMARK    8  A    between atoms: C_21  and  C_22
REMARK    9  A    between atoms: C_21  and  C_25
REMARK   10  A    between atoms: C_22  and  C_23
REMARK   11  A    between atoms: C_22  and  C_24
REMARK                            x       y       z     vdW  Elec       q    Type
REMARK                         _______ _______ _______ _____ _____    ______ ____
ROOT
ATOM      1  C   UNL     1      84.660  55.697  46.709  0.00  0.00    +0.059 C 
ATOM      2  C   UNL     1      84.536  54.320  47.378  0.00  0.00    -0.026 C 
ATOM      3  C   UNL     1      85.603  53.355  46.840  0.00  0.00    -0.041 C 
ATOM      4  C   UNL     1      85.565  53.172  45.289  0.00  0.00    -0.008 C 
ATOM      5  C   UNL     1      85.498  54.563  44.632  0.00  0.00    -0.065 C 
ATOM      6  C   UNL     1      86.160  54.857  43.491  0.00  0.00    -0.084 C 
ATOM      7  C   UNL     1      87.229  53.985  42.900  0.00  0.00    -0.031 C 
ATOM      8  C   UNL     1      87.078  52.507  43.293  0.00  0.00    -0.031 C 
ATOM      9  C   UNL     1      86.868  52.407  44.835  0.00  0.00    -0.029 C 
ATOM     10  C   UNL     1      86.959  50.937  45.359  0.00  0.00    -0.049 C 
ATOM     11  C   UNL     1      88.192  50.165  44.834  0.00  0.00    -0.047 C 
ATOM     12  C   UNL     1      88.281  50.226  43.288  0.00  0.00    -0.026 C 
ATOM     13  C   UNL     1      88.347  51.715  42.911  0.00  0.00    -0.032 C 
ATOM     14  C   UNL     1      88.799  51.736  41.460  0.00  0.00    -0.049 C 
ATOM     15  C   UNL     1      89.740  50.529  41.349  0.00  0.00    -0.049 C 
ATOM     16  C   UNL     1      89.624  49.728  42.674  0.00  0.00    -0.029 C 
ATOM     17  C   UNL     1      87.072  49.480  42.637  0.00  0.00    -0.059 C 
ATOM     18  C   UNL     1      84.524  55.588  45.185  0.00  0.00    -0.005 C 
ATOM     19  C   UNL     1      84.281  52.390  44.895  0.00  0.00    -0.056 C 
ENDROOT
BRANCH   1  20
ATOM     20  O   UNL     1      83.707  56.590  47.228  0.00  0.00    -0.391 OA
ATOM     21  H   UNL     1      82.820  56.320  46.941  0.00  0.00    +0.000 HD
ENDBRANCH   1  20
BRANCH  16  22
ATOM     22  C   UNL     1      89.813  48.195  42.445  0.00  0.00    -0.022 C 
ATOM     23  C   UNL     1      90.496  47.871  41.109  0.00  0.00    -0.059 C 
BRANCH  22  24
ATOM     24  C   UNL     1      88.461  47.513  42.455  0.00  0.00    -0.085 C 
ATOM     25  C   UNL     1      88.321  46.212  42.156  0.00  0.00    -0.085 C 
BRANCH  25  26
ATOM     26  C   UNL     1      86.976  45.521  42.204  0.00  0.00    -0.023 C 
ATOM     27  C   UNL     1      85.974  46.401  42.963  0.00  0.00    -0.059 C 
BRANCH  26  28
ATOM     28  C   UNL     1      87.069  44.085  42.795  0.00  0.00    -0.041 C 
ATOM     29  C   UNL     1      86.086  43.825  43.951  0.00  0.00    -0.062 C 
ATOM     30  C   UNL     1      88.504  43.764  43.244  0.00  0.00    -0.062 C 
ENDBRANCH  26  28
ENDBRANCH  25  26
ENDBRANCH  22  24
ENDBRANCH  16  22
TORSDOF 5
ENDMDL
MODEL 2
REMARK VINA RESULT:    -9.818      1.712      3.974
REMARK INTER + INTRA:         -12.351
REMARK INTER:                 -11.968
REMARK INTRA:                  -0.383
REMARK UNBOUND:                 0.050
REMARK  Name = 
REMARK  11 active torsions:
REMARK  status: ('A' for Active; 'I' for Inactive)
REMARK    1  A    between atoms: O_1  and  C_2
REMARK    2  A    between atoms: C_5  and  C_29
REMARK    3  A    between atoms: C_13  and  C_27
REMARK    4  A    between atoms: C_17  and  C_18
REMARK    5  A    between atoms: C_18  and  C_19
REMARK    6  A    between atoms: C_18  and  C_26
REMARK    7  A    between atoms: C_20  and  C_21
REMARK    8  A    between atoms: C_21  and  C_22
REMARK    9  A    between atoms: C_21  and  C_25
REMARK   10  A    between atoms: C_22  and  C_23
REMARK   11  A    between atoms: C_22  and  C_24
REMARK                            x       y       z     vdW  Elec       q    Type
REMARK                         _______ _______ _______ _____ _____    ______ ____
ROOT
ATOM      1  C   UNL     1      84.459  57.811  45.288  0.00  0.00    +0.059 C 
ATOM      2  C   UNL     1      84.451  57.454  43.795  0.00  0.00    -0.026 C 
ATOM      3  C   UNL     1      84.365  55.934  43.597  0.00  0.00    -0.041 C 
ATOM      4  C   UNL     1      85.509  55.139  44.304  0.00  0.00    -0.008 C 
ATOM      5  C   UNL     1      85.633  55.641  45.755  0.00  0.00    -0.065 C 
ATOM      6  C   UNL     1      85.895  54.811  46.788  0.00  0.00    -0.084 C 
ATOM      7  C   UNL     1      85.819  53.314  46.694  0.00  0.00    -0.031 C 
ATOM      8  C   UNL     1      86.047  52.794  45.267  0.00  0.00    -0.031 C 
ATOM      9  C   UNL     1      85.153  53.602  44.279  0.00  0.00    -0.029 C 
ATOM     10  C   UNL     1      85.125  52.979  42.845  0.00  0.00    -0.049 C 
ATOM     11  C   UNL     1      84.866  51.454  42.836  0.00  0.00    -0.047 C 
ATOM     12  C   UNL     1      85.856  50.706  43.765  0.00  0.00    -0.026 C 
ATOM     13  C   UNL     1      85.671  51.300  45.171  0.00  0.00    -0.032 C 
ATOM     14  C   UNL     1      86.362  50.322  46.107  0.00  0.00    -0.049 C 
ATOM     15  C   UNL     1      86.131  48.954  45.450  0.00  0.00    -0.049 C 
ATOM     16  C   UNL     1      85.511  49.213  44.049  0.00  0.00    -0.029 C 
ATOM     17  C   UNL     1      87.318  50.837  43.230  0.00  0.00    -0.059 C 
ATOM     18  C   UNL     1      85.630  57.137  46.014  0.00  0.00    -0.005 C 
ATOM     19  C   UNL     1      86.854  55.421  43.579  0.00  0.00    -0.056 C 
ENDROOT
BRANCH   1  20
ATOM     20  O   UNL     1      84.501  59.204  45.468  0.00  0.00    -0.391 OA
ATOM     21  H   UNL     1      84.779  59.405  46.376  0.00  0.00    +0.000 HD
ENDBRANCH   1  20
BRANCH  16  22
ATOM     22  C   UNL     1      85.954  48.136  43.010  0.00  0.00    -0.022 C 
ATOM     23  C   UNL     1      85.431  46.733  43.344  0.00  0.00    -0.059 C 
BRANCH  22  24
ATOM     24  C   UNL     1      87.466  48.072  42.965  0.00  0.00    -0.085 C 
ATOM     25  C   UNL     1      88.121  47.470  41.959  0.00  0.00    -0.085 C 
BRANCH  25  26
ATOM     26  C   UNL     1      89.632  47.440  41.894  0.00  0.00    -0.023 C 
ATOM     27  C   UNL     1      90.141  46.083  42.399  0.00  0.00    -0.059 C 
BRANCH  26  28
ATOM     28  C   UNL     1      90.281  48.635  42.650  0.00  0.00    -0.041 C 
ATOM     29  C   UNL     1      90.709  49.792  41.730  0.00  0.00    -0.062 C 
ATOM     30  C   UNL     1      91.475  48.169  43.499  0.00  0.00    -0.062 C 
ENDBRANCH  26  28
ENDBRANCH  25  26
ENDBRANCH  22  24
ENDBRANCH  16  22
TORSDOF 5
ENDMDL
MODEL 3
REMARK VINA RESULT:    -9.491      2.299      4.092
REMARK INTER + INTRA:         -11.937
REMARK INTER:                 -11.817
REMARK INTRA:                  -0.120
REMARK UNBOUND:                 0.050
REMARK  Name = 
REMARK  11 active torsions:
REMARK  status: ('A' for Active; 'I' for Inactive)
REMARK    1  A    between atoms: O_1  and  C_2
REMARK    2  A    between atoms: C_5  and  C_29
REMARK    3  A    between atoms: C_13  and  C_27
REMARK    4  A    between atoms: C_17  and  C_18
REMARK    5  A    between atoms: C_18  and  C_19
REMARK    6  A    between atoms: C_18  and  C_26
REMARK    7  A    between atoms: C_20  and  C_21
REMARK    8  A    between atoms: C_21  and  C_22
REMARK    9  A    between atoms: C_21  and  C_25
REMARK   10  A    between atoms: C_22  and  C_23
REMARK   11  A    between atoms: C_22  and  C_24
REMARK                            x       y       z     vdW  Elec       q    Type
REMARK                         _______ _______ _______ _____ _____    ______ ____
ROOT
ATOM      1  C   UNL     1      84.369  58.153  45.352  0.00  0.00    +0.059 C 
ATOM      2  C   UNL     1      84.523  57.649  43.910  0.00  0.00    -0.026 C 
ATOM      3  C   UNL     1      84.570  56.114  43.869  0.00  0.00    -0.041 C 
ATOM      4  C   UNL     1      85.701  55.493  44.748  0.00  0.00    -0.008 C 
ATOM      5  C   UNL     1      85.655  56.147  46.142  0.00  0.00    -0.065 C 
ATOM      6  C   UNL     1      85.884  55.448  47.277  0.00  0.00    -0.084 C 
ATOM      7  C   UNL     1      85.929  53.949  47.338  0.00  0.00    -0.031 C 
ATOM      8  C   UNL     1      86.324  53.309  45.998  0.00  0.00    -0.031 C 
ATOM      9  C   UNL     1      85.464  53.937  44.858  0.00  0.00    -0.029 C 
ATOM     10  C   UNL     1      85.614  53.173  43.502  0.00  0.00    -0.049 C 
ATOM     11  C   UNL     1      85.471  51.639  43.635  0.00  0.00    -0.047 C 
ATOM     12  C   UNL     1      86.426  51.073  44.717  0.00  0.00    -0.026 C 
ATOM     13  C   UNL     1      86.070  51.787  46.031  0.00  0.00    -0.032 C 
ATOM     14  C   UNL     1      86.745  50.969  47.120  0.00  0.00    -0.049 C 
ATOM     15  C   UNL     1      86.678  49.528  46.596  0.00  0.00    -0.049 C 
ATOM     16  C   UNL     1      86.169  49.593  45.130  0.00  0.00    -0.029 C 
ATOM     17  C   UNL     1      87.917  51.272  44.293  0.00  0.00    -0.059 C 
ATOM     18  C   UNL     1      85.517  57.655  46.239  0.00  0.00    -0.005 C 
ATOM     19  C   UNL     1      87.082  55.813  44.111  0.00  0.00    -0.056 C 
ENDROOT
BRANCH   1  20
ATOM     20  O   UNL     1      84.291  59.555  45.384  0.00  0.00    -0.391 OA
ATOM     21  H   UNL     1      84.969  59.904  45.985  0.00  0.00    +0.000 HD
ENDBRANCH   1  20
BRANCH  16  22
ATOM     22  C   UNL     1      86.784  48.458  44.251  0.00  0.00    -0.022 C 
ATOM     23  C   UNL     1      87.040  48.897  42.803  0.00  0.00    -0.059 C 
BRANCH  22  24
ATOM     24  C   UNL     1      85.837  47.277  44.220  0.00  0.00    -0.085 C 
ATOM     25  C   UNL     1      84.644  47.341  43.608  0.00  0.00    -0.085 C 
BRANCH  25  26
ATOM     26  C   UNL     1      83.714  46.149  43.543  0.00  0.00    -0.023 C 
ATOM     27  C   UNL     1      84.260  45.126  42.539  0.00  0.00    -0.059 C 
BRANCH  26  28
ATOM     28  C   UNL     1      82.246  46.560  43.232  0.00  0.00    -0.041 C 
ATOM     29  C   UNL     1      82.086  48.040  42.842  0.00  0.00    -0.062 C 
ATOM     30  C   UNL     1      81.316  46.224  44.409  0.00  0.00    -0.062 C 
ENDBRANCH  26  28
ENDBRANCH  25  26
ENDBRANCH  22  24
ENDBRANCH  16  22
TORSDOF 5
ENDMDL
MODEL 4
REMARK VINA RESULT:    -9.418      1.493      2.987
REMARK INTER + INTRA:         -11.845
REMARK INTER:                 -11.021
REMARK INTRA:                  -0.824
REMARK UNBOUND:                 0.050
REMARK  Name = 
REMARK  11 active torsions:
REMARK  status: ('A' for Active; 'I' for Inactive)
REMARK    1  A    between atoms: O_1  and  C_2
REMARK    2  A    between atoms: C_5  and  C_29
REMARK    3  A    between atoms: C_13  and  C_27
REMARK    4  A    between atoms: C_17  and  C_18
REMARK    5  A    between atoms: C_18  and  C_19
REMARK    6  A    between atoms: C_18  and  C_26
REMARK    7  A    between atoms: C_20  and  C_21
REMARK    8  A    between atoms: C_21  and  C_22
REMARK    9  A    between atoms: C_21  and  C_25
REMARK   10  A    between atoms: C_22  and  C_23
REMARK   11  A    between atoms: C_22  and  C_24
REMARK                            x       y       z     vdW  Elec       q    Type
REMARK                         _______ _______ _______ _____ _____    ______ ____
ROOT
ATOM      1  C   UNL     1      84.560  57.697  45.138  0.00  0.00    +0.059 C 
ATOM      2  C   UNL     1      85.721  57.596  44.138  0.00  0.00    -0.026 C 
ATOM      3  C   UNL     1      85.862  56.160  43.610  0.00  0.00    -0.041 C 
ATOM      4  C   UNL     1      86.063  55.092  44.731  0.00  0.00    -0.008 C 
ATOM      5  C   UNL     1      85.005  55.324  45.826  0.00  0.00    -0.065 C 
ATOM      6  C   UNL     1      84.395  54.305  46.471  0.00  0.00    -0.084 C 
ATOM      7  C   UNL     1      84.462  52.875  46.021  0.00  0.00    -0.031 C 
ATOM      8  C   UNL     1      85.725  52.566  45.202  0.00  0.00    -0.031 C 
ATOM      9  C   UNL     1      85.900  53.655  44.101  0.00  0.00    -0.029 C 
ATOM     10  C   UNL     1      87.009  53.286  43.062  0.00  0.00    -0.049 C 
ATOM     11  C   UNL     1      86.895  51.843  42.518  0.00  0.00    -0.047 C 
ATOM     12  C   UNL     1      86.825  50.808  43.669  0.00  0.00    -0.026 C 
ATOM     13  C   UNL     1      85.603  51.185  44.523  0.00  0.00    -0.032 C 
ATOM     14  C   UNL     1      85.344  49.971  45.400  0.00  0.00    -0.049 C 
ATOM     15  C   UNL     1      85.746  48.783  44.516  0.00  0.00    -0.049 C 
ATOM     16  C   UNL     1      86.429  49.361  43.246  0.00  0.00    -0.029 C 
ATOM     17  C   UNL     1      88.161  50.794  44.479  0.00  0.00    -0.059 C 
ATOM     18  C   UNL     1      84.760  56.739  46.319  0.00  0.00    -0.005 C 
ATOM     19  C   UNL     1      87.467  55.275  45.370  0.00  0.00    -0.056 C 
ENDROOT
BRANCH   1  20
ATOM     20  O   UNL     1      84.409  59.018  45.593  0.00  0.00    -0.391 OA
ATOM     21  H   UNL     1      83.526  59.128  45.980  0.00  0.00    +0.000 HD
ENDBRANCH   1  20
BRANCH  16  22
ATOM     22  C   UNL     1      87.544  48.413  42.704  0.00  0.00    -0.022 C 
ATOM     23  C   UNL     1      88.006  48.784  41.287  0.00  0.00    -0.059 C 
BRANCH  22  24
ATOM     24  C   UNL     1      87.022  46.992  42.667  0.00  0.00    -0.085 C 
ATOM     25  C   UNL     1      87.677  46.013  42.021  0.00  0.00    -0.085 C 
BRANCH  25  26
ATOM     26  C   UNL     1      87.176  44.585  42.017  0.00  0.00    -0.023 C 
ATOM     27  C   UNL     1      85.720  44.550  42.499  0.00  0.00    -0.059 C 
BRANCH  26  28
ATOM     28  C   UNL     1      88.095  43.634  42.837  0.00  0.00    -0.041 C 
ATOM     29  C   UNL     1      87.437  43.086  44.115  0.00  0.00    -0.062 C 
ATOM     30  C   UNL     1      89.428  44.317  43.184  0.00  0.00    -0.062 C 
ENDBRANCH  26  28
ENDBRANCH  25  26
ENDBRANCH  22  24
ENDBRANCH  16  22
TORSDOF 5
ENDMDL
MODEL 5
REMARK VINA RESULT:    -8.797      3.002      7.906
REMARK INTER + INTRA:         -11.061
REMARK INTER:                 -10.920
REMARK INTRA:                  -0.141
REMARK UNBOUND:                 0.050
REMARK  Name = 
REMARK  11 active torsions:
REMARK  status: ('A' for Active; 'I' for Inactive)
REMARK    1  A    between atoms: O_1  and  C_2
REMARK    2  A    between atoms: C_5  and  C_29
REMARK    3  A    between atoms: C_13  and  C_27
REMARK    4  A    between atoms: C_17  and  C_18
REMARK    5  A    between atoms: C_18  and  C_19
REMARK    6  A    between atoms: C_18  and  C_26
REMARK    7  A    between atoms: C_20  and  C_21
REMARK    8  A    between atoms: C_21  and  C_22
REMARK    9  A    between atoms: C_21  and  C_25
REMARK   10  A    between atoms: C_22  and  C_23
REMARK   11  A    between atoms: C_22  and  C_24
REMARK                            x       y       z     vdW  Elec       q    Type
REMARK                         _______ _______ _______ _____ _____    ______ ____
ROOT
ATOM      1  C   UNL     1      87.451  47.981  41.692  0.00  0.00    +0.059 C 
ATOM      2  C   UNL     1      87.123  47.876  43.188  0.00  0.00    -0.026 C 
ATOM      3  C   UNL     1      86.311  49.093  43.656  0.00  0.00    -0.041 C 
ATOM      4  C   UNL     1      87.011  50.462  43.383  0.00  0.00    -0.008 C 
ATOM      5  C   UNL     1      87.506  50.480  41.924  0.00  0.00    -0.065 C 
ATOM      6  C   UNL     1      87.451  51.589  41.155  0.00  0.00    -0.084 C 
ATOM      7  C   UNL     1      86.669  52.818  41.519  0.00  0.00    -0.031 C 
ATOM      8  C   UNL     1      86.477  52.975  43.035  0.00  0.00    -0.031 C 
ATOM      9  C   UNL     1      85.973  51.624  43.629  0.00  0.00    -0.029 C 
ATOM     10  C   UNL     1      85.507  51.757  45.116  0.00  0.00    -0.049 C 
ATOM     11  C   UNL     1      84.561  52.955  45.365  0.00  0.00    -0.047 C 
ATOM     12  C   UNL     1      85.171  54.278  44.838  0.00  0.00    -0.026 C 
ATOM     13  C   UNL     1      85.433  54.072  43.337  0.00  0.00    -0.032 C 
ATOM     14  C   UNL     1      85.674  55.466  42.782  0.00  0.00    -0.049 C 
ATOM     15  C   UNL     1      84.760  56.364  43.627  0.00  0.00    -0.049 C 
ATOM     16  C   UNL     1      84.195  55.491  44.781  0.00  0.00    -0.029 C 
ATOM     17  C   UNL     1      86.459  54.649  45.641  0.00  0.00    -0.059 C 
ATOM     18  C   UNL     1      88.235  49.263  41.384  0.00  0.00    -0.005 C 
ATOM     19  C   UNL     1      88.248  50.601  44.313  0.00  0.00    -0.056 C 
ENDROOT
BRANCH   1  20
ATOM     20  O   UNL     1      88.164  46.849  41.259  0.00  0.00    -0.391 OA
ATOM     21  H   UNL     1      88.405  46.305  42.025  0.00  0.00    +0.000 HD
ENDBRANCH   1  20
BRANCH  16  22
ATOM     22  C   UNL     1      83.968  56.325  46.082  0.00  0.00    -0.022 C 
ATOM     23  C   UNL     1      84.601  57.722  46.014  0.00  0.00    -0.059 C 
BRANCH  22  24
ATOM     24  C   UNL     1      84.577  55.594  47.260  0.00  0.00    -0.085 C 
ATOM     25  C   UNL     1      83.854  54.765  48.030  0.00  0.00    -0.085 C 
BRANCH  25  26
ATOM     26  C   UNL     1      84.471  54.004  49.184  0.00  0.00    -0.023 C 
ATOM     27  C   UNL     1      85.945  54.403  49.332  0.00  0.00    -0.059 C 
BRANCH  26  28
ATOM     28  C   UNL     1      84.283  52.466  49.045  0.00  0.00    -0.041 C 
ATOM     29  C   UNL     1      83.542  51.823  50.231  0.00  0.00    -0.062 C 
ATOM     30  C   UNL     1      85.632  51.763  48.825  0.00  0.00    -0.062 C 
ENDBRANCH  26  28
ENDBRANCH  25  26
ENDBRANCH  22  24
ENDBRANCH  16  22
TORSDOF 5
ENDMDL
MODEL 6
REMARK VINA RESULT:    -8.627      3.551      6.674
REMARK INTER + INTRA:         -10.846
REMARK INTER:                 -10.836
REMARK INTRA:                  -0.010
REMARK UNBOUND:                 0.050
REMARK  Name = 
REMARK  11 active torsions:
REMARK  status: ('A' for Active; 'I' for Inactive)
REMARK    1  A    between atoms: O_1  and  C_2
REMARK    2  A    between atoms: C_5  and  C_29
REMARK    3  A    between atoms: C_13  and  C_27
REMARK    4  A    between atoms: C_17  and  C_18
REMARK    5  A    between atoms: C_18  and  C_19
REMARK    6  A    between atoms: C_18  and  C_26
REMARK    7  A    between atoms: C_20  and  C_21
REMARK    8  A    between atoms: C_21  and  C_22
REMARK    9  A    between atoms: C_21  and  C_25
REMARK   10  A    between atoms: C_22  and  C_23
REMARK   11  A    between atoms: C_22  and  C_24
REMARK                            x       y       z     vdW  Elec       q    Type
REMARK                         _______ _______ _______ _____ _____    ______ ____
ROOT
ATOM      1  C   UNL     1      80.136  46.905  44.594  0.00  0.00    +0.059 C 
ATOM      2  C   UNL     1      80.962  45.797  43.925  0.00  0.00    -0.026 C 
ATOM      3  C   UNL     1      82.463  46.112  44.003  0.00  0.00    -0.041 C 
ATOM      4  C   UNL     1      82.853  47.487  43.373  0.00  0.00    -0.008 C 
ATOM      5  C   UNL     1      81.891  48.564  43.910  0.00  0.00    -0.065 C 
ATOM      6  C   UNL     1      82.303  49.815  44.212  0.00  0.00    -0.084 C 
ATOM      7  C   UNL     1      83.746  50.213  44.328  0.00  0.00    -0.031 C 
ATOM      8  C   UNL     1      84.678  49.323  43.493  0.00  0.00    -0.031 C 
ATOM      9  C   UNL     1      84.341  47.826  43.770  0.00  0.00    -0.029 C 
ATOM     10  C   UNL     1      85.400  46.849  43.163  0.00  0.00    -0.049 C 
ATOM     11  C   UNL     1      86.862  47.242  43.482  0.00  0.00    -0.047 C 
ATOM     12  C   UNL     1      87.152  48.712  43.088  0.00  0.00    -0.026 C 
ATOM     13  C   UNL     1      86.153  49.580  43.872  0.00  0.00    -0.032 C 
ATOM     14  C   UNL     1      86.688  50.998  43.760  0.00  0.00    -0.049 C 
ATOM     15  C   UNL     1      88.212  50.818  43.741  0.00  0.00    -0.049 C 
ATOM     16  C   UNL     1      88.496  49.296  43.618  0.00  0.00    -0.029 C 
ATOM     17  C   UNL     1      87.046  48.899  41.541  0.00  0.00    -0.059 C 
ATOM     18  C   UNL     1      80.403  48.267  43.941  0.00  0.00    -0.005 C 
ATOM     19  C   UNL     1      82.680  47.413  41.830  0.00  0.00    -0.056 C 
ENDROOT
BRANCH   1  20
ATOM     20  O   UNL     1      78.765  46.597  44.554  0.00  0.00    -0.391 OA
ATOM     21  H   UNL     1      78.618  45.855  43.947  0.00  0.00    +0.000 HD
ENDBRANCH   1  20
BRANCH  16  22
ATOM     22  C   UNL     1      89.800  49.012  42.808  0.00  0.00    -0.022 C 
ATOM     23  C   UNL     1      90.913  48.393  43.666  0.00  0.00    -0.059 C 
BRANCH  22  24
ATOM     24  C   UNL     1      90.325  50.309  42.228  0.00  0.00    -0.085 C 
ATOM     25  C   UNL     1      89.567  51.092  41.445  0.00  0.00    -0.085 C 
BRANCH  25  26
ATOM     26  C   UNL     1      90.077  52.408  40.897  0.00  0.00    -0.023 C 
ATOM     27  C   UNL     1      89.381  53.569  41.617  0.00  0.00    -0.059 C 
BRANCH  26  28
ATOM     28  C   UNL     1      89.936  52.499  39.350  0.00  0.00    -0.041 C 
ATOM     29  C   UNL     1      90.788  53.612  38.714  0.00  0.00    -0.062 C 
ATOM     30  C   UNL     1      88.464  52.664  38.938  0.00  0.00    -0.062 C 
ENDBRANCH  26  28
ENDBRANCH  25  26
ENDBRANCH  22  24
ENDBRANCH  16  22
TORSDOF 5
ENDMDL
MODEL 7
REMARK VINA RESULT:    -8.548      3.115      6.141
REMARK INTER + INTRA:         -10.746
REMARK INTER:                 -10.973
REMARK INTRA:                   0.227
REMARK UNBOUND:                 0.050
REMARK  Name = 
REMARK  11 active torsions:
REMARK  status: ('A' for Active; 'I' for Inactive)
REMARK    1  A    between atoms: O_1  and  C_2
REMARK    2  A    between atoms: C_5  and  C_29
REMARK    3  A    between atoms: C_13  and  C_27
REMARK    4  A    between atoms: C_17  and  C_18
REMARK    5  A    between atoms: C_18  and  C_19
REMARK    6  A    between atoms: C_18  and  C_26
REMARK    7  A    between atoms: C_20  and  C_21
REMARK    8  A    between atoms: C_21  and  C_22
REMARK    9  A    between atoms: C_21  and  C_25
REMARK   10  A    between atoms: C_22  and  C_23
REMARK   11  A    between atoms: C_22  and  C_24
REMARK                            x       y       z     vdW  Elec       q    Type
REMARK                         _______ _______ _______ _____ _____    ______ ____
ROOT
ATOM      1  C   UNL     1      80.388  50.149  42.837  0.00  0.00    +0.059 C 
ATOM      2  C   UNL     1      81.297  51.378  42.696  0.00  0.00    -0.026 C 
ATOM      3  C   UNL     1      82.711  50.965  42.260  0.00  0.00    -0.041 C 
ATOM      4  C   UNL     1      83.392  49.937  43.218  0.00  0.00    -0.008 C 
ATOM      5  C   UNL     1      82.396  48.797  43.505  0.00  0.00    -0.065 C 
ATOM      6  C   UNL     1      82.783  47.506  43.608  0.00  0.00    -0.084 C 
ATOM      7  C   UNL     1      84.136  47.006  43.191  0.00  0.00    -0.031 C 
ATOM      8  C   UNL     1      85.217  48.097  43.244  0.00  0.00    -0.031 C 
ATOM      9  C   UNL     1      84.691  49.374  42.521  0.00  0.00    -0.029 C 
ATOM     10  C   UNL     1      85.810  50.444  42.302  0.00  0.00    -0.049 C 
ATOM     11  C   UNL     1      87.113  49.866  41.703  0.00  0.00    -0.047 C 
ATOM     12  C   UNL     1      87.630  48.662  42.530  0.00  0.00    -0.026 C 
ATOM     13  C   UNL     1      86.502  47.617  42.535  0.00  0.00    -0.032 C 
ATOM     14  C   UNL     1      87.154  46.332  43.019  0.00  0.00    -0.049 C 
ATOM     15  C   UNL     1      88.582  46.409  42.461  0.00  0.00    -0.049 C 
ATOM     16  C   UNL     1      88.770  47.832  41.866  0.00  0.00    -0.029 C 
ATOM     17  C   UNL     1      88.051  49.118  43.964  0.00  0.00    -0.059 C 
ATOM     18  C   UNL     1      80.960  49.150  43.851  0.00  0.00    -0.005 C 
ATOM     19  C   UNL     1      83.727  50.634  44.565  0.00  0.00    -0.056 C 
ENDROOT
BRANCH   1  20
ATOM     20  O   UNL     1      79.086  50.532  43.201  0.00  0.00    -0.391 OA
ATOM     21  H   UNL     1      79.121  51.361  43.704  0.00  0.00    +0.000 HD
ENDBRANCH   1  20
BRANCH  16  22
ATOM     22  C   UNL     1      90.240  48.334  42.015  0.00  0.00    -0.022 C 
ATOM     23  C   UNL     1      90.917  47.826  43.296  0.00  0.00    -0.059 C 
BRANCH  22  24
ATOM     24  C   UNL     1      90.253  49.848  42.050  0.00  0.00    -0.085 C 
ATOM     25  C   UNL     1      90.123  50.583  40.934  0.00  0.00    -0.085 C 
BRANCH  25  26
ATOM     26  C   UNL     1      90.097  52.096  40.972  0.00  0.00    -0.023 C 
ATOM     27  C   UNL     1      88.939  52.567  41.861  0.00  0.00    -0.059 C 
BRANCH  26  28
ATOM     28  C   UNL     1      90.045  52.723  39.549  0.00  0.00    -0.041 C 
ATOM     29  C   UNL     1      90.802  54.057  39.431  0.00  0.00    -0.062 C 
ATOM     30  C   UNL     1      88.593  52.899  39.076  0.00  0.00    -0.062 C 
ENDBRANCH  26  28
ENDBRANCH  25  26
ENDBRANCH  22  24
ENDBRANCH  16  22
TORSDOF 5
ENDMDL
MODEL 8
REMARK VINA RESULT:    -8.503      3.059      8.365
REMARK INTER + INTRA:         -10.690
REMARK INTER:                 -10.066
REMARK INTRA:                  -0.623
REMARK UNBOUND:                 0.050
REMARK  Name = 
REMARK  11 active torsions:
REMARK  status: ('A' for Active; 'I' for Inactive)
REMARK    1  A    between atoms: O_1  and  C_2
REMARK    2  A    between atoms: C_5  and  C_29
REMARK    3  A    between atoms: C_13  and  C_27
REMARK    4  A    between atoms: C_17  and  C_18
REMARK    5  A    between atoms: C_18  and  C_19
REMARK    6  A    between atoms: C_18  and  C_26
REMARK    7  A    between atoms: C_20  and  C_21
REMARK    8  A    between atoms: C_21  and  C_22
REMARK    9  A    between atoms: C_21  and  C_25
REMARK   10  A    between atoms: C_22  and  C_23
REMARK   11  A    between atoms: C_22  and  C_24
REMARK                            x       y       z     vdW  Elec       q    Type
REMARK                         _______ _______ _______ _____ _____    ______ ____
ROOT
ATOM      1  C   UNL     1      86.439  44.774  42.081  0.00  0.00    +0.059 C 
ATOM      2  C   UNL     1      85.057  45.100  42.665  0.00  0.00    -0.026 C 
ATOM      3  C   UNL     1      84.743  46.596  42.521  0.00  0.00    -0.041 C 
ATOM      4  C   UNL     1      85.806  47.531  43.179  0.00  0.00    -0.008 C 
ATOM      5  C   UNL     1      87.208  47.073  42.733  0.00  0.00    -0.065 C 
ATOM      6  C   UNL     1      88.200  47.947  42.455  0.00  0.00    -0.084 C 
ATOM      7  C   UNL     1      87.987  49.422  42.278  0.00  0.00    -0.031 C 
ATOM      8  C   UNL     1      86.751  49.940  43.031  0.00  0.00    -0.031 C 
ATOM      9  C   UNL     1      85.536  49.015  42.717  0.00  0.00    -0.029 C 
ATOM     10  C   UNL     1      84.183  49.606  43.232  0.00  0.00    -0.049 C 
ATOM     11  C   UNL     1      83.968  51.090  42.852  0.00  0.00    -0.047 C 
ATOM     12  C   UNL     1      85.172  51.964  43.283  0.00  0.00    -0.026 C 
ATOM     13  C   UNL     1      86.411  51.378  42.585  0.00  0.00    -0.032 C 
ATOM     14  C   UNL     1      87.483  52.447  42.721  0.00  0.00    -0.049 C 
ATOM     15  C   UNL     1      86.702  53.766  42.654  0.00  0.00    -0.049 C 
ATOM     16  C   UNL     1      85.191  53.411  42.706  0.00  0.00    -0.029 C 
ATOM     17  C   UNL     1      85.301  51.995  44.840  0.00  0.00    -0.059 C 
ATOM     18  C   UNL     1      87.539  45.592  42.768  0.00  0.00    -0.005 C 
ATOM     19  C   UNL     1      85.724  47.394  44.725  0.00  0.00    -0.056 C 
ENDROOT
BRANCH   1  20
ATOM     20  O   UNL     1      86.710  43.398  42.181  0.00  0.00    -0.391 OA
ATOM     21  H   UNL     1      87.276  43.235  42.952  0.00  0.00    +0.000 HD
ENDBRANCH   1  20
BRANCH  16  22
ATOM     22  C   UNL     1      84.360  54.514  43.436  0.00  0.00    -0.022 C 
ATOM     23  C   UNL     1      84.180  55.782  42.591  0.00  0.00    -0.059 C 
BRANCH  22  24
ATOM     24  C   UNL     1      85.061  54.904  44.720  0.00  0.00    -0.085 C 
ATOM     25  C   UNL     1      84.403  55.477  45.741  0.00  0.00    -0.085 C 
BRANCH  25  26
ATOM     26  C   UNL     1      85.095  55.831  47.040  0.00  0.00    -0.023 C 
ATOM     27  C   UNL     1      86.615  55.743  46.852  0.00  0.00    -0.059 C 
BRANCH  26  28
ATOM     28  C   UNL     1      84.593  54.966  48.232  0.00  0.00    -0.041 C 
ATOM     29  C   UNL     1      85.477  53.740  48.523  0.00  0.00    -0.062 C 
ATOM     30  C   UNL     1      83.136  54.525  48.020  0.00  0.00    -0.062 C 
ENDBRANCH  26  28
ENDBRANCH  25  26
ENDBRANCH  22  24
ENDBRANCH  16  22
TORSDOF 5
ENDMDL
MODEL 9
REMARK VINA RESULT:    -8.488      3.835      5.910
REMARK INTER + INTRA:         -10.671
REMARK INTER:                 -10.721
REMARK INTRA:                   0.050
REMARK UNBOUND:                 0.050
REMARK  Name = 
REMARK  11 active torsions:
REMARK  status: ('A' for Active; 'I' for Inactive)
REMARK    1  A    between atoms: O_1  and  C_2
REMARK    2  A    between atoms: C_5  and  C_29
REMARK    3  A    between atoms: C_13  and  C_27
REMARK    4  A    between atoms: C_17  and  C_18
REMARK    5  A    between atoms: C_18  and  C_19
REMARK    6  A    between atoms: C_18  and  C_26
REMARK    7  A    between atoms: C_20  and  C_21
REMARK    8  A    between atoms: C_21  and  C_22
REMARK    9  A    between atoms: C_21  and  C_25
REMARK   10  A    between atoms: C_22  and  C_23
REMARK   11  A    between atoms: C_22  and  C_24
REMARK                            x       y       z     vdW  Elec       q    Type
REMARK                         _______ _______ _______ _____ _____    ______ ____
ROOT
ATOM      1  C   UNL     1      79.532  47.347  44.441  0.00  0.00    +0.059 C 
ATOM      2  C   UNL     1      80.790  46.479  44.580  0.00  0.00    -0.026 C 
ATOM      3  C   UNL     1      82.052  47.353  44.653  0.00  0.00    -0.041 C 
ATOM      4  C   UNL     1      82.227  48.310  43.432  0.00  0.00    -0.008 C 
ATOM      5  C   UNL     1      80.894  49.040  43.183  0.00  0.00    -0.065 C 
ATOM      6  C   UNL     1      80.838  50.338  42.809  0.00  0.00    -0.084 C 
ATOM      7  C   UNL     1      82.012  51.272  42.862  0.00  0.00    -0.031 C 
ATOM      8  C   UNL     1      83.360  50.542  42.758  0.00  0.00    -0.031 C 
ATOM      9  C   UNL     1      83.373  49.345  43.757  0.00  0.00    -0.029 C 
ATOM     10  C   UNL     1      84.790  48.701  43.905  0.00  0.00    -0.049 C 
ATOM     11  C   UNL     1      85.920  49.732  44.133  0.00  0.00    -0.047 C 
ATOM     12  C   UNL     1      85.907  50.836  43.045  0.00  0.00    -0.026 C 
ATOM     13  C   UNL     1      84.520  51.498  43.111  0.00  0.00    -0.032 C 
ATOM     14  C   UNL     1      84.659  52.785  42.315  0.00  0.00    -0.049 C 
ATOM     15  C   UNL     1      86.105  53.229  42.578  0.00  0.00    -0.049 C 
ATOM     16  C   UNL     1      86.814  52.070  43.331  0.00  0.00    -0.029 C 
ATOM     17  C   UNL     1      86.233  50.231  41.642  0.00  0.00    -0.059 C 
ATOM     18  C   UNL     1      79.607  48.236  43.193  0.00  0.00    -0.005 C 
ATOM     19  C   UNL     1      82.562  47.473  42.166  0.00  0.00    -0.056 C 
ENDROOT
BRANCH   1  20
ATOM     20  O   UNL     1      78.376  46.548  44.411  0.00  0.00    -0.391 OA
ATOM     21  H   UNL     1      78.158  46.261  45.311  0.00  0.00    +0.000 HD
ENDBRANCH   1  20
BRANCH  16  22
ATOM     22  C   UNL     1      88.329  51.980  42.965  0.00  0.00    -0.022 C 
ATOM     23  C   UNL     1      88.663  52.672  41.636  0.00  0.00    -0.059 C 
BRANCH  22  24
ATOM     24  C   UNL     1      88.733  50.526  42.849  0.00  0.00    -0.085 C 
ATOM     25  C   UNL     1      89.644  50.113  41.952  0.00  0.00    -0.085 C 
BRANCH  25  26
ATOM     26  C   UNL     1      90.077  48.665  41.862  0.00  0.00    -0.023 C 
ATOM     27  C   UNL     1      88.879  47.795  41.463  0.00  0.00    -0.059 C 
BRANCH  26  28
ATOM     28  C   UNL     1      90.760  48.170  43.170  0.00  0.00    -0.041 C 
ATOM     29  C   UNL     1      92.082  48.890  43.490  0.00  0.00    -0.062 C 
ATOM     30  C   UNL     1      90.985  46.650  43.134  0.00  0.00    -0.062 C 
ENDBRANCH  26  28
ENDBRANCH  25  26
ENDBRANCH  22  24
ENDBRANCH  16  22
TORSDOF 5
ENDMDL
