=
 OpenBabel08112514243D

 30 33  0  0  1  0  0  0  0  0999 V2000
   89.6040   51.2010   40.1780 C   0  0  1  0  0  3  0  0  0  0  0  0
   89.8030   52.5690   40.8280 C   0  0  0  0  0  2  0  0  0  0  0  0
   88.5400   53.0150   41.5750 C   0  0  0  0  0  2  0  0  0  0  0  0
   87.8780   51.9210   42.4980 C   0  0  1  0  0  0  0  0  0  0  0  0
   88.6540   50.5940   42.4730 C   0  0  0  0  0  0  0  0  0  0  0  0
   88.5500   49.7350   43.4990 C   0  0  0  0  0  3  0  0  0  0  0  0
   87.8800   50.1000   44.7540 C   0  0  0  0  0  3  0  0  0  0  0  0
   87.4840   51.3570   44.9910 C   0  0  0  0  0  0  0  0  0  0  0  0
   87.8080   52.4620   43.9850 C   0  0  2  0  0  3  0  0  0  0  0  0
   86.8750   53.7130   44.1550 C   0  0  0  0  0  2  0  0  0  0  0  0
   86.5660   54.0890   45.6230 C   0  0  0  0  0  2  0  0  0  0  0  0
   86.0390   52.8650   46.4160 C   0  0  1  0  0  0  0  0  0  0  0  0
   87.1510   51.8110   46.3930 C   0  0  1  0  0  3  0  0  0  0  0  0
   86.7530   50.8030   47.4670 C   0  0  0  0  0  2  0  0  0  0  0  0
   86.0960   51.6620   48.5610 C   0  0  0  0  0  2  0  0  0  0  0  0
   85.8990   53.0750   47.9510 C   0  0  2  0  0  3  0  0  0  0  0  0
   84.7210   52.3310   45.7830 C   0  0  0  0  0  1  0  0  0  0  0  0
   89.4360   50.1300   41.2590 C   0  0  0  0  0  2  0  0  0  0  0  0
   86.4590   51.5880   41.9620 C   0  0  0  0  0  1  0  0  0  0  0  0
   88.4880   51.2100   39.3240 O   0  0  0  0  0  0  0  0  0  0  0  0
   88.4050   50.3450   38.8910 H   0  0  0  0  0  0  0  0  0  0  0  0
   84.7060   53.9020   48.5480 C   0  0  2  0  0  3  0  0  0  0  0  0
   83.4080   53.1390   48.8770 C   0  0  0  0  0  1  0  0  0  0  0  0
   84.3850   55.1000   47.6840 C   0  0  0  0  0  3  0  0  0  0  0  0
   85.2430   56.1220   47.5490 C   0  0  0  0  0  3  0  0  0  0  0  0
   84.9530   57.2770   46.6160 C   0  0  2  0  0  3  0  0  0  0  0  0
   83.5030   57.7540   46.8100 C   0  0  0  0  0  1  0  0  0  0  0  0
   85.3000   56.9110   45.1410 C   0  0  0  0  0  3  0  0  0  0  0  0
   84.0760   56.4740   44.3200 C   0  0  0  0  0  1  0  0  0  0  0  0
   86.0450   58.0460   44.4260 C   0  0  0  0  0  1  0  0  0  0  0  0
  1 20  1  6  0  0  0
  1  2  1  0  0  0  0
  1 18  1  0  0  0  0
  2  3  1  0  0  0  0
  3  4  1  0  0  0  0
  4 19  1  6  0  0  0
  4  9  1  0  0  0  0
  5  4  1  0  0  0  0
  5  6  2  0  0  0  0
  6  7  1  0  0  0  0
  7  8  2  0  0  0  0
  8 13  1  0  0  0  0
  9 10  1  6  0  0  0
  9  8  1  0  0  0  0
 10 11  1  0  0  0  0
 11 12  1  0  0  0  0
 12 17  1  6  0  0  0
 12 16  1  0  0  0  0
 13 12  1  0  0  0  0
 13 14  1  1  0  0  0
 14 15  1  0  0  0  0
 16 22  1  6  0  0  0
 16 15  1  0  0  0  0
 18  5  1  0  0  0  0
 21 20  1  0  0  0  0
 22 23  1  6  0  0  0
 24 22  1  0  0  0  0
 25 24  2  0  0  0  0
 26 27  1  6  0  0  0
 26 25  1  0  0  0  0
 28 26  1  0  0  0  0
 29 28  1  0  0  0  0
 30 28  1  0  0  0  0
M  END
>  <MODEL>
1

>  <REMARK>
 VINA RESULT:   -10.585      0.000      0.000
 INTER + INTRA:         -13.714
 INTER:                 -13.387
 INTRA:                  -0.327
 UNBOUND:                -0.344
  Name = 
  11 active torsions:
  status: ('A' for Active; 'I' for Inactive)
    1  A    between atoms: O_1  and  C_2
    2  A    between atoms: C_5  and  C_29
    3  A    between atoms: C_13  and  C_27
    4  A    between atoms: C_17  and  C_18
    5  A    between atoms: C_18  and  C_19
    6  A    between atoms: C_18  and  C_26
    7  A    between atoms: C_20  and  C_21
    8  A    between atoms: C_21  and  C_22
    9  A    between atoms: C_21  and  C_25
   10  A    between atoms: C_22  and  C_23
   11  A    between atoms: C_22  and  C_24
                            x       y       z     vdW  Elec       q    Type
                         _______ _______ _______ _____ _____    ______ ____

>  <TORSDO>
F 5

$$$$
=
 OpenBabel08112514243D

 30 33  0  0  1  0  0  0  0  0999 V2000
   85.0210   56.2600   46.9770 C   0  0  1  0  0  3  0  0  0  0  0  0
   86.0780   55.4090   47.6790 C   0  0  0  0  0  2  0  0  0  0  0  0
   85.9840   53.9410   47.2460 C   0  0  0  0  0  2  0  0  0  0  0  0
   85.8500   53.7020   45.6920 C   0  0  1  0  0  0  0  0  0  0  0  0
   85.8490   55.0200   44.9000 C   0  0  0  0  0  0  0  0  0  0  0  0
   86.2140   55.0270   43.6090 C   0  0  0  0  0  3  0  0  0  0  0  0
   86.8160   53.8530   42.9640 C   0  0  0  0  0  3  0  0  0  0  0  0
   87.1760   52.7770   43.6740 C   0  0  0  0  0  0  0  0  0  0  0  0
   87.0460   52.7900   45.1970 C   0  0  2  0  0  3  0  0  0  0  0  0
   87.0260   51.3420   45.8050 C   0  0  0  0  0  2  0  0  0  0  0  0
   88.0050   50.3510   45.1340 C   0  0  0  0  0  2  0  0  0  0  0  0
   87.8170   50.3330   43.5950 C   0  0  1  0  0  0  0  0  0  0  0  0
   88.1200   51.7490   43.0950 C   0  0  1  0  0  3  0  0  0  0  0  0
   88.2860   51.6020   41.5860 C   0  0  0  0  0  2  0  0  0  0  0  0
   88.9530   50.2260   41.4150 C   0  0  0  0  0  2  0  0  0  0  0  0
   88.8900   49.5330   42.8010 C   0  0  2  0  0  3  0  0  0  0  0  0
   86.3730   49.8850   43.2270 C   0  0  0  0  0  1  0  0  0  0  0  0
   85.3120   56.3160   45.4750 C   0  0  0  0  0  2  0  0  0  0  0  0
   84.4820   53.0310   45.3930 C   0  0  0  0  0  1  0  0  0  0  0  0
   83.7330   55.7470   47.2050 O   0  0  0  0  0  0  0  0  0  0  0  0
   83.7290   55.2380   48.0320 H   0  0  0  0  0  0  0  0  0  0  0  0
   88.8650   47.9640   42.7650 C   0  0  2  0  0  3  0  0  0  0  0  0
   89.9370   47.2570   41.9120 C   0  0  0  0  0  1  0  0  0  0  0  0
   87.4960   47.4470   42.3890 C   0  0  0  0  0  3  0  0  0  0  0  0
   86.9070   46.4510   43.0680 C   0  0  0  0  0  3  0  0  0  0  0  0
   85.5020   45.9970   42.7410 C   0  0  2  0  0  3  0  0  0  0  0  0
   84.4880   46.7720   43.6000 C   0  0  0  0  0  1  0  0  0  0  0  0
   85.3680   44.4490   42.8580 C   0  0  0  0  0  3  0  0  0  0  0  0
   86.6280   43.6940   42.4010 C   0  0  0  0  0  1  0  0  0  0  0  0
   84.9680   44.0100   44.2740 C   0  0  0  0  0  1  0  0  0  0  0  0
  1 20  1  6  0  0  0
  1  2  1  0  0  0  0
  3  2  1  0  0  0  0
  4 19  1  6  0  0  0
  4  3  1  0  0  0  0
  5 18  1  0  0  0  0
  5  4  1  0  0  0  0
  6  5  2  0  0  0  0
  7  6  1  0  0  0  0
  7  8  2  0  0  0  0
  8  9  1  0  0  0  0
  9  4  1  0  0  0  0
  9 10  1  6  0  0  0
 11 10  1  0  0  0  0
 12 17  1  6  0  0  0
 12 11  1  0  0  0  0
 13 14  1  6  0  0  0
 13 12  1  0  0  0  0
 13  8  1  0  0  0  0
 15 14  1  0  0  0  0
 15 16  1  0  0  0  0
 16 22  1  6  0  0  0
 16 12  1  0  0  0  0
 18  1  1  0  0  0  0
 20 21  1  0  0  0  0
 22 23  1  6  0  0  0
 24 22  1  0  0  0  0
 24 25  2  0  0  0  0
 26 28  1  0  0  0  0
 26 25  1  0  0  0  0
 26 27  1  1  0  0  0
 28 30  1  0  0  0  0
 29 28  1  0  0  0  0
M  END
>  <MODEL>
2

>  <REMARK>
 VINA RESULT:    -9.864      3.396      8.207
 INTER + INTRA:         -12.803
 INTER:                 -12.609
 INTRA:                  -0.195
 UNBOUND:                -0.344
  Name = 
  11 active torsions:
  status: ('A' for Active; 'I' for Inactive)
    1  A    between atoms: O_1  and  C_2
    2  A    between atoms: C_5  and  C_29
    3  A    between atoms: C_13  and  C_27
    4  A    between atoms: C_17  and  C_18
    5  A    between atoms: C_18  and  C_19
    6  A    between atoms: C_18  and  C_26
    7  A    between atoms: C_20  and  C_21
    8  A    between atoms: C_21  and  C_22
    9  A    between atoms: C_21  and  C_25
   10  A    between atoms: C_22  and  C_23
   11  A    between atoms: C_22  and  C_24
                            x       y       z     vdW  Elec       q    Type
                         _______ _______ _______ _____ _____    ______ ____

>  <TORSDO>
F 5

$$$$
=
 OpenBabel08112514243D

 30 33  0  0  1  0  0  0  0  0999 V2000
   84.9470   58.2920   45.1230 C   0  0  1  0  0  3  0  0  0  0  0  0
   83.8290   57.4280   44.5420 C   0  0  0  0  0  2  0  0  0  0  0  0
   84.3970   56.2030   43.8170 C   0  0  0  0  0  2  0  0  0  0  0  0
   85.5200   55.4150   44.5970 C   0  0  1  0  0  0  0  0  0  0  0  0
   85.8230   56.0440   45.9670 C   0  0  0  0  0  0  0  0  0  0  0  0
   86.3650   55.2980   46.9430 C   0  0  0  0  0  3  0  0  0  0  0  0
   86.4950   53.8400   46.8260 C   0  0  0  0  0  3  0  0  0  0  0  0
   85.9340   53.1700   45.8120 C   0  0  0  0  0  0  0  0  0  0  0  0
   85.0650   53.9120   44.7960 C   0  0  2  0  0  3  0  0  0  0  0  0
   84.9130   53.1170   43.4510 C   0  0  0  0  0  2  0  0  0  0  0  0
   84.7470   51.5900   43.6220 C   0  0  0  0  0  2  0  0  0  0  0  0
   85.8670   51.0010   44.5160 C   0  0  1  0  0  0  0  0  0  0  0  0
   85.7410   51.6740   45.8860 C   0  0  1  0  0  3  0  0  0  0  0  0
   86.5940   50.8210   46.8190 C   0  0  0  0  0  2  0  0  0  0  0  0
   86.4050   49.3870   46.2940 C   0  0  0  0  0  2  0  0  0  0  0  0
   85.6780   49.5120   44.9290 C   0  0  2  0  0  3  0  0  0  0  0  0
   87.2640   51.2490   43.8750 C   0  0  0  0  0  1  0  0  0  0  0  0
   85.6710   57.5280   46.2350 C   0  0  0  0  0  2  0  0  0  0  0  0
   86.8490   55.4900   43.7970 C   0  0  0  0  0  1  0  0  0  0  0  0
   85.8570   58.6730   44.1220 O   0  0  0  0  0  0  0  0  0  0  0  0
   86.6860   58.1810   44.2350 H   0  0  0  0  0  0  0  0  0  0  0  0
   85.9570   48.3500   43.9130 C   0  0  2  0  0  3  0  0  0  0  0  0
   85.5270   46.9280   44.3250 C   0  0  0  0  0  1  0  0  0  0  0  0
   87.4060   48.3350   43.4820 C   0  0  0  0  0  3  0  0  0  0  0  0
   87.7790   47.8790   42.2770 C   0  0  0  0  0  3  0  0  0  0  0  0
   89.2190   47.9470   41.8190 C   0  0  2  0  0  3  0  0  0  0  0  0
   89.9540   46.6530   42.2120 C   0  0  0  0  0  1  0  0  0  0  0  0
   89.9140   49.2430   42.3350 C   0  0  0  0  0  3  0  0  0  0  0  0
   91.3640   49.0150   42.7910 C   0  0  0  0  0  1  0  0  0  0  0  0
   89.8500   50.3790   41.3050 C   0  0  0  0  0  1  0  0  0  0  0  0
  1 20  1  6  0  0  0
  1 18  1  0  0  0  0
  2  1  1  0  0  0  0
  3  2  1  0  0  0  0
  3  4  1  0  0  0  0
  4 19  1  6  0  0  0
  4  9  1  0  0  0  0
  4  5  1  0  0  0  0
  5 18  1  0  0  0  0
  5  6  2  0  0  0  0
  7  6  1  0  0  0  0
  8 13  1  0  0  0  0
  8  7  2  0  0  0  0
  9 10  1  6  0  0  0
  9  8  1  0  0  0  0
 10 11  1  0  0  0  0
 11 12  1  0  0  0  0
 12 17  1  6  0  0  0
 12 16  1  0  0  0  0
 12 13  1  0  0  0  0
 13 14  1  1  0  0  0
 15 14  1  0  0  0  0
 16 22  1  6  0  0  0
 16 15  1  0  0  0  0
 20 21  1  0  0  0  0
 22 23  1  1  0  0  0
 24 22  1  0  0  0  0
 25 24  2  0  0  0  0
 26 27  1  1  0  0  0
 26 25  1  0  0  0  0
 26 28  1  0  0  0  0
 28 29  1  0  0  0  0
 30 28  1  0  0  0  0
M  END
>  <MODEL>
3

>  <REMARK>
 VINA RESULT:    -9.860      2.554      7.232
 INTER + INTRA:         -12.798
 INTER:                 -12.181
 INTRA:                  -0.617
 UNBOUND:                -0.344
  Name = 
  11 active torsions:
  status: ('A' for Active; 'I' for Inactive)
    1  A    between atoms: O_1  and  C_2
    2  A    between atoms: C_5  and  C_29
    3  A    between atoms: C_13  and  C_27
    4  A    between atoms: C_17  and  C_18
    5  A    between atoms: C_18  and  C_19
    6  A    between atoms: C_18  and  C_26
    7  A    between atoms: C_20  and  C_21
    8  A    between atoms: C_21  and  C_22
    9  A    between atoms: C_21  and  C_25
   10  A    between atoms: C_22  and  C_23
   11  A    between atoms: C_22  and  C_24
                            x       y       z     vdW  Elec       q    Type
                         _______ _______ _______ _____ _____    ______ ____

>  <TORSDO>
F 5

$$$$
=
 OpenBabel08112514243D

 30 33  0  0  1  0  0  0  0  0999 V2000
   84.8160   58.2110   44.9740 C   0  0  1  0  0  3  0  0  0  0  0  0
   83.8960   57.2740   44.1940 C   0  0  0  0  0  2  0  0  0  0  0  0
   84.6870   56.1260   43.5570 C   0  0  0  0  0  2  0  0  0  0  0  0
   85.7260   55.4120   44.5050 C   0  0  1  0  0  0  0  0  0  0  0  0
   85.7340   56.0190   45.9180 C   0  0  0  0  0  0  0  0  0  0  0  0
   86.1650   55.2900   46.9590 C   0  0  0  0  0  3  0  0  0  0  0  0
   86.4430   53.8540   46.8420 C   0  0  0  0  0  3  0  0  0  0  0  0
   86.1260   53.1720   45.7330 C   0  0  0  0  0  0  0  0  0  0  0  0
   85.3800   53.8700   44.5960 C   0  0  2  0  0  3  0  0  0  0  0  0
   85.5320   53.1100   43.2310 C   0  0  0  0  0  2  0  0  0  0  0  0
   85.4760   51.5690   43.3440 C   0  0  0  0  0  2  0  0  0  0  0  0
   86.4760   51.0480   44.4080 C   0  0  1  0  0  0  0  0  0  0  0  0
   86.0580   51.6630   45.7470 C   0  0  1  0  0  3  0  0  0  0  0  0
   86.8120   50.8560   46.7990 C   0  0  0  0  0  2  0  0  0  0  0  0
   86.8440   49.4290   46.2240 C   0  0  0  0  0  2  0  0  0  0  0  0
   86.3530   49.5360   44.7560 C   0  0  2  0  0  3  0  0  0  0  0  0
   87.9340   51.4350   44.0230 C   0  0  0  0  0  1  0  0  0  0  0  0
   85.4050   57.4760   46.1810 C   0  0  0  0  0  2  0  0  0  0  0  0
   87.1600   55.6260   43.9480 C   0  0  0  0  0  1  0  0  0  0  0  0
   85.8460   58.7000   44.1530 O   0  0  0  0  0  0  0  0  0  0  0  0
   86.3530   59.3730   44.6350 H   0  0  0  0  0  0  0  0  0  0  0  0
   86.9050   48.4350   43.7830 C   0  0  2  0  0  3  0  0  0  0  0  0
   87.4400   48.9020   42.4150 C   0  0  0  0  0  1  0  0  0  0  0  0
   85.8960   47.3280   43.5820 C   0  0  0  0  0  3  0  0  0  0  0  0
   84.6260   47.4460   44.0000 C   0  0  0  0  0  3  0  0  0  0  0  0
   83.6010   46.3700   43.7190 C   0  0  2  0  0  3  0  0  0  0  0  0
   84.1570   45.3760   42.6860 C   0  0  0  0  0  1  0  0  0  0  0  0
   82.2290   46.9900   43.3170 C   0  0  0  0  0  3  0  0  0  0  0  0
   81.0300   46.2940   43.9820 C   0  0  0  0  0  1  0  0  0  0  0  0
   82.1810   48.5020   43.5790 C   0  0  0  0  0  1  0  0  0  0  0  0
  1 20  1  6  0  0  0
  1 18  1  0  0  0  0
  2  1  1  0  0  0  0
  3  2  1  0  0  0  0
  3  4  1  0  0  0  0
  4 19  1  6  0  0  0
  4  9  1  0  0  0  0
  4  5  1  0  0  0  0
  5 18  1  0  0  0  0
  5  6  2  0  0  0  0
  7  6  1  0  0  0  0
  8 13  1  0  0  0  0
  8  7  2  0  0  0  0
  9 10  1  6  0  0  0
  9  8  1  0  0  0  0
 10 11  1  0  0  0  0
 11 12  1  0  0  0  0
 12 17  1  6  0  0  0
 12 16  1  0  0  0  0
 12 13  1  0  0  0  0
 13 14  1  1  0  0  0
 15 14  1  0  0  0  0
 16 22  1  6  0  0  0
 16 15  1  0  0  0  0
 20 21  1  0  0  0  0
 22 23  1  6  0  0  0
 24 22  1  0  0  0  0
 24 25  2  0  0  0  0
 26 27  1  6  0  0  0
 26 25  1  0  0  0  0
 28 30  1  0  0  0  0
 28 26  1  0  0  0  0
 28 29  1  0  0  0  0
M  END
>  <MODEL>
4

>  <REMARK>
 VINA RESULT:    -9.387      3.486      7.317
 INTER + INTRA:         -12.201
 INTER:                 -11.659
 INTRA:                  -0.542
 UNBOUND:                -0.344
  Name = 
  11 active torsions:
  status: ('A' for Active; 'I' for Inactive)
    1  A    between atoms: O_1  and  C_2
    2  A    between atoms: C_5  and  C_29
    3  A    between atoms: C_13  and  C_27
    4  A    between atoms: C_17  and  C_18
    5  A    between atoms: C_18  and  C_19
    6  A    between atoms: C_18  and  C_26
    7  A    between atoms: C_20  and  C_21
    8  A    between atoms: C_21  and  C_22
    9  A    between atoms: C_21  and  C_25
   10  A    between atoms: C_22  and  C_23
   11  A    between atoms: C_22  and  C_24
                            x       y       z     vdW  Elec       q    Type
                         _______ _______ _______ _____ _____    ______ ____

>  <TORSDO>
F 5

$$$$
=
 OpenBabel08112514243D

 30 33  0  0  1  0  0  0  0  0999 V2000
   85.0930   57.9120   44.8060 C   0  0  1  0  0  3  0  0  0  0  0  0
   83.7920   57.1330   44.6230 C   0  0  0  0  0  2  0  0  0  0  0  0
   84.0220   55.8580   43.8030 C   0  0  0  0  0  2  0  0  0  0  0  0
   85.2690   54.9940   44.2330 C   0  0  1  0  0  0  0  0  0  0  0  0
   86.0210   55.6120   45.4230 C   0  0  0  0  0  0  0  0  0  0  0  0
   86.7800   54.8360   46.2130 C   0  0  0  0  0  3  0  0  0  0  0  0
   86.7620   53.3720   46.1150 C   0  0  0  0  0  3  0  0  0  0  0  0
   85.8720   52.7370   45.3420 C   0  0  0  0  0  0  0  0  0  0  0  0
   84.7900   53.5330   44.6130 C   0  0  2  0  0  3  0  0  0  0  0  0
   84.1780   52.7380   43.4060 C   0  0  0  0  0  2  0  0  0  0  0  0
   83.9620   51.2310   43.6740 C   0  0  0  0  0  2  0  0  0  0  0  0
   85.2560   50.5640   44.2060 C   0  0  1  0  0  0  0  0  0  0  0  0
   85.6030   51.2610   45.5250 C   0  0  1  0  0  3  0  0  0  0  0  0
   86.6370   50.3540   46.1840 C   0  0  0  0  0  2  0  0  0  0  0  0
   86.1930   48.9340   45.7930 C   0  0  0  0  0  2  0  0  0  0  0  0
   85.0960   49.1010   44.7090 C   0  0  2  0  0  3  0  0  0  0  0  0
   86.4050   50.6930   43.1630 C   0  0  0  0  0  1  0  0  0  0  0  0
   86.0650   57.1070   45.6720 C   0  0  0  0  0  2  0  0  0  0  0  0
   86.2920   54.9530   43.0640 C   0  0  0  0  0  1  0  0  0  0  0  0
   85.6790   58.2080   43.5630 O   0  0  0  0  0  0  0  0  0  0  0  0
   86.3710   57.5560   43.3680 H   0  0  0  0  0  0  0  0  0  0  0  0
   84.9660   47.9080   43.6980 C   0  0  2  0  0  3  0  0  0  0  0  0
   83.6040   47.1910   43.6160 C   0  0  0  0  0  1  0  0  0  0  0  0
   86.0630   46.8890   43.9100 C   0  0  0  0  0  3  0  0  0  0  0  0
   86.8530   46.4830   42.9030 C   0  0  0  0  0  3  0  0  0  0  0  0
   88.0020   45.5290   43.1400 C   0  0  2  0  0  3  0  0  0  0  0  0
   89.2000   45.9250   42.2590 C   0  0  0  0  0  1  0  0  0  0  0  0
   87.5520   44.0490   42.9560 C   0  0  0  0  0  3  0  0  0  0  0  0
   87.6480   43.2200   44.2480 C   0  0  0  0  0  1  0  0  0  0  0  0
   86.1420   43.9450   42.3590 C   0  0  0  0  0  1  0  0  0  0  0  0
  1 20  1  6  0  0  0
  1 18  1  0  0  0  0
  2  1  1  0  0  0  0
  3  4  1  0  0  0  0
  3  2  1  0  0  0  0
  4 19  1  6  0  0  0
  4  9  1  0  0  0  0
  4  5  1  0  0  0  0
  5 18  1  0  0  0  0
  5  6  2  0  0  0  0
  7  6  1  0  0  0  0
  8 13  1  0  0  0  0
  8  7  2  0  0  0  0
  9 10  1  6  0  0  0
  9  8  1  0  0  0  0
 10 11  1  0  0  0  0
 11 12  1  0  0  0  0
 12 17  1  6  0  0  0
 12 16  1  0  0  0  0
 12 13  1  0  0  0  0
 13 14  1  6  0  0  0
 15 14  1  0  0  0  0
 16 22  1  6  0  0  0
 16 15  1  0  0  0  0
 21 20  1  0  0  0  0
 22 23  1  1  0  0  0
 22 24  1  0  0  0  0
 25 26  1  0  0  0  0
 25 24  2  0  0  0  0
 26 27  1  6  0  0  0
 28 26  1  0  0  0  0
 28 29  1  0  0  0  0
 30 28  1  0  0  0  0
M  END
>  <MODEL>
5

>  <REMARK>
 VINA RESULT:    -9.360      3.496      7.934
 INTER + INTRA:         -12.166
 INTER:                 -11.358
 INTRA:                  -0.808
 UNBOUND:                -0.344
  Name = 
  11 active torsions:
  status: ('A' for Active; 'I' for Inactive)
    1  A    between atoms: O_1  and  C_2
    2  A    between atoms: C_5  and  C_29
    3  A    between atoms: C_13  and  C_27
    4  A    between atoms: C_17  and  C_18
    5  A    between atoms: C_18  and  C_19
    6  A    between atoms: C_18  and  C_26
    7  A    between atoms: C_20  and  C_21
    8  A    between atoms: C_21  and  C_22
    9  A    between atoms: C_21  and  C_25
   10  A    between atoms: C_22  and  C_23
   11  A    between atoms: C_22  and  C_24
                            x       y       z     vdW  Elec       q    Type
                         _______ _______ _______ _____ _____    ______ ____

>  <TORSDO>
F 5

$$$$
=
 OpenBabel08112514243D

 30 33  0  0  1  0  0  0  0  0999 V2000
   89.7430   47.9760   42.0100 C   0  0  1  0  0  3  0  0  0  0  0  0
   90.1510   49.3690   41.5340 C   0  0  0  0  0  2  0  0  0  0  0  0
   88.9560   50.3290   41.5450 C   0  0  0  0  0  2  0  0  0  0  0  0
   88.0740   50.2960   42.8530 C   0  0  1  0  0  0  0  0  0  0  0  0
   88.6050   49.2890   43.8860 C   0  0  0  0  0  0  0  0  0  0  0  0
   88.3090   49.4410   45.1860 C   0  0  0  0  0  3  0  0  0  0  0  0
   87.6620   50.6540   45.6990 C   0  0  0  0  0  3  0  0  0  0  0  0
   87.4830   51.7300   44.9220 C   0  0  0  0  0  0  0  0  0  0  0  0
   88.0370   51.7420   43.4970 C   0  0  2  0  0  3  0  0  0  0  0  0
   87.3320   52.8150   42.5940 C   0  0  0  0  0  2  0  0  0  0  0  0
   87.0320   54.1550   43.3040 C   0  0  0  0  0  2  0  0  0  0  0  0
   86.2660   53.9270   44.6320 C   0  0  1  0  0  0  0  0  0  0  0  0
   87.1750   53.0790   45.5280 C   0  0  1  0  0  3  0  0  0  0  0  0
   86.5620   53.1900   46.9200 C   0  0  0  0  0  2  0  0  0  0  0  0
   86.0200   54.6280   46.9780 C   0  0  0  0  0  2  0  0  0  0  0  0
   86.1000   55.1860   45.5320 C   0  0  2  0  0  3  0  0  0  0  0  0
   84.9020   53.2260   44.3620 C   0  0  0  0  0  1  0  0  0  0  0  0
   89.3450   48.0260   43.4880 C   0  0  0  0  0  2  0  0  0  0  0  0
   86.6420   49.8140   42.4930 C   0  0  0  0  0  1  0  0  0  0  0  0
   88.6830   47.4730   41.2370 O   0  0  0  0  0  0  0  0  0  0  0  0
   88.0440   47.0260   41.8150 H   0  0  0  0  0  0  0  0  0  0  0  0
   85.0470   56.2960   45.1830 C   0  0  2  0  0  3  0  0  0  0  0  0
   84.1750   56.8330   46.3340 C   0  0  0  0  0  1  0  0  0  0  0  0
   84.1630   55.8690   44.0340 C   0  0  0  0  0  3  0  0  0  0  0  0
   84.4270   56.2320   42.7690 C   0  0  0  0  0  3  0  0  0  0  0  0
   83.5880   55.7310   41.6140 C   0  0  2  0  0  3  0  0  0  0  0  0
   82.4730   54.8100   42.1390 C   0  0  0  0  0  1  0  0  0  0  0  0
   84.4760   55.0760   40.5150 C   0  0  0  0  0  3  0  0  0  0  0  0
   84.4250   53.5390   40.5280 C   0  0  0  0  0  1  0  0  0  0  0  0
   84.1460   55.6090   39.1140 C   0  0  0  0  0  1  0  0  0  0  0  0
  1 20  1  6  0  0  0
  1 18  1  0  0  0  0
  2  3  1  0  0  0  0
  2  1  1  0  0  0  0
  3  4  1  0  0  0  0
  4 19  1  6  0  0  0
  4  9  1  0  0  0  0
  4  5  1  0  0  0  0
  5  6  2  0  0  0  0
  6  7  1  0  0  0  0
  8 13  1  0  0  0  0
  8  7  2  0  0  0  0
  9 10  1  6  0  0  0
  9  8  1  0  0  0  0
 10 11  1  0  0  0  0
 11 12  1  0  0  0  0
 12 17  1  6  0  0  0
 12 13  1  0  0  0  0
 12 16  1  0  0  0  0
 13 14  1  1  0  0  0
 14 15  1  0  0  0  0
 16 22  1  6  0  0  0
 16 15  1  0  0  0  0
 18  5  1  0  0  0  0
 20 21  1  0  0  0  0
 22 23  1  1  0  0  0
 24 22  1  0  0  0  0
 25 24  2  0  0  0  0
 26 27  1  1  0  0  0
 26 25  1  0  0  0  0
 28 29  1  0  0  0  0
 28 26  1  0  0  0  0
 30 28  1  0  0  0  0
M  END
>  <MODEL>
6

>  <REMARK>
 VINA RESULT:    -9.244      2.065      3.439
 INTER + INTRA:         -12.021
 INTER:                 -11.526
 INTRA:                  -0.495
 UNBOUND:                -0.344
  Name = 
  11 active torsions:
  status: ('A' for Active; 'I' for Inactive)
    1  A    between atoms: O_1  and  C_2
    2  A    between atoms: C_5  and  C_29
    3  A    between atoms: C_13  and  C_27
    4  A    between atoms: C_17  and  C_18
    5  A    between atoms: C_18  and  C_19
    6  A    between atoms: C_18  and  C_26
    7  A    between atoms: C_20  and  C_21
    8  A    between atoms: C_21  and  C_22
    9  A    between atoms: C_21  and  C_25
   10  A    between atoms: C_22  and  C_23
   11  A    between atoms: C_22  and  C_24
                            x       y       z     vdW  Elec       q    Type
                         _______ _______ _______ _____ _____    ______ ____

>  <TORSDO>
F 5

$$$$
=
 OpenBabel08112514243D

 30 33  0  0  1  0  0  0  0  0999 V2000
   90.2420   46.6340   42.4350 C   0  0  1  0  0  3  0  0  0  0  0  0
   88.7410   46.3510   42.4490 C   0  0  0  0  0  2  0  0  0  0  0  0
   87.9750   47.4630   43.1740 C   0  0  0  0  0  2  0  0  0  0  0  0
   88.3780   48.9350   42.7720 C   0  0  1  0  0  0  0  0  0  0  0  0
   89.4810   48.9610   41.7000 C   0  0  0  0  0  0  0  0  0  0  0  0
   89.6210   50.0360   40.9080 C   0  0  0  0  0  3  0  0  0  0  0  0
   88.6300   51.1180   40.8820 C   0  0  0  0  0  3  0  0  0  0  0  0
   87.4610   51.0070   41.5260 C   0  0  0  0  0  0  0  0  0  0  0  0
   87.1010   49.7000   42.2330 C   0  0  2  0  0  3  0  0  0  0  0  0
   85.9840   49.8990   43.3170 C   0  0  0  0  0  2  0  0  0  0  0  0
   84.8580   50.8760   42.9080 C   0  0  0  0  0  2  0  0  0  0  0  0
   85.4390   52.2300   42.4240 C   0  0  1  0  0  0  0  0  0  0  0  0
   86.3070   51.9260   41.1990 C   0  0  1  0  0  3  0  0  0  0  0  0
   86.5500   53.2840   40.5480 C   0  0  0  0  0  2  0  0  0  0  0  0
   85.2380   54.0520   40.7830 C   0  0  0  0  0  2  0  0  0  0  0  0
   84.4100   53.2090   41.7880 C   0  0  2  0  0  3  0  0  0  0  0  0
   86.2570   52.9100   43.5600 C   0  0  0  0  0  1  0  0  0  0  0  0
   90.5300   47.8730   41.5820 C   0  0  0  0  0  2  0  0  0  0  0  0
   88.9770   49.6590   44.0080 C   0  0  0  0  0  1  0  0  0  0  0  0
   90.7300   46.8170   43.7400 O   0  0  0  0  0  0  0  0  0  0  0  0
   90.0360   47.2120   44.2920 H   0  0  0  0  0  0  0  0  0  0  0  0
   83.4100   54.0240   42.6820 C   0  0  2  0  0  3  0  0  0  0  0  0
   82.0250   54.3430   42.0870 C   0  0  0  0  0  1  0  0  0  0  0  0
   84.0470   55.2950   43.1960 C   0  0  0  0  0  3  0  0  0  0  0  0
   84.3140   55.4730   44.4990 C   0  0  0  0  0  3  0  0  0  0  0  0
   85.0290   56.7110   44.9940 C   0  0  2  0  0  3  0  0  0  0  0  0
   86.3890   56.8450   44.2900 C   0  0  0  0  0  1  0  0  0  0  0  0
   85.1240   56.7210   46.5500 C   0  0  0  0  0  3  0  0  0  0  0  0
   83.7700   56.4990   47.2430 C   0  0  0  0  0  1  0  0  0  0  0  0
   86.1610   55.7160   47.0700 C   0  0  0  0  0  1  0  0  0  0  0  0
  1  2  1  0  0  0  0
  1 20  1  1  0  0  0
  2  3  1  0  0  0  0
  4  3  1  0  0  0  0
  4 19  1  1  0  0  0
  5  4  1  0  0  0  0
  6  5  2  0  0  0  0
  7  6  1  0  0  0  0
  7  8  2  0  0  0  0
  8  9  1  0  0  0  0
  9  4  1  0  0  0  0
  9 10  1  1  0  0  0
 11 10  1  0  0  0  0
 12 11  1  0  0  0  0
 12 17  1  1  0  0  0
 13 14  1  1  0  0  0
 13  8  1  0  0  0  0
 13 12  1  0  0  0  0
 14 15  1  0  0  0  0
 15 16  1  0  0  0  0
 16 12  1  0  0  0  0
 16 22  1  1  0  0  0
 18  5  1  0  0  0  0
 18  1  1  0  0  0  0
 20 21  1  0  0  0  0
 22 23  1  6  0  0  0
 22 24  1  0  0  0  0
 24 25  2  0  0  0  0
 25 26  1  0  0  0  0
 26 27  1  6  0  0  0
 26 28  1  0  0  0  0
 28 30  1  0  0  0  0
 28 29  1  0  0  0  0
M  END
>  <MODEL>
7

>  <REMARK>
 VINA RESULT:    -8.845      2.468      4.683
 INTER + INTRA:         -11.517
 INTER:                 -10.728
 INTRA:                  -0.788
 UNBOUND:                -0.344
  Name = 
  11 active torsions:
  status: ('A' for Active; 'I' for Inactive)
    1  A    between atoms: O_1  and  C_2
    2  A    between atoms: C_5  and  C_29
    3  A    between atoms: C_13  and  C_27
    4  A    between atoms: C_17  and  C_18
    5  A    between atoms: C_18  and  C_19
    6  A    between atoms: C_18  and  C_26
    7  A    between atoms: C_20  and  C_21
    8  A    between atoms: C_21  and  C_22
    9  A    between atoms: C_21  and  C_25
   10  A    between atoms: C_22  and  C_23
   11  A    between atoms: C_22  and  C_24
                            x       y       z     vdW  Elec       q    Type
                         _______ _______ _______ _____ _____    ______ ____

>  <TORSDO>
F 5

$$$$
=
 OpenBabel08112514243D

 30 33  0  0  1  0  0  0  0  0999 V2000
   86.0590   45.0960   43.2310 C   0  0  1  0  0  3  0  0  0  0  0  0
   84.7070   45.6880   42.8380 C   0  0  0  0  0  2  0  0  0  0  0  0
   84.4060   46.9590   43.6400 C   0  0  0  0  0  2  0  0  0  0  0  0
   85.5920   47.9950   43.7350 C   0  0  1  0  0  0  0  0  0  0  0  0
   86.8430   47.5160   42.9800 C   0  0  0  0  0  0  0  0  0  0  0  0
   87.7490   48.4080   42.5490 C   0  0  0  0  0  3  0  0  0  0  0  0
   87.4970   49.8530   42.5860 C   0  0  0  0  0  3  0  0  0  0  0  0
   86.2910   50.3420   42.9030 C   0  0  0  0  0  0  0  0  0  0  0  0
   85.1220   49.3880   43.1460 C   0  0  2  0  0  3  0  0  0  0  0  0
   83.9660   50.0610   43.9680 C   0  0  0  0  0  2  0  0  0  0  0  0
   83.6810   51.5320   43.5890 C   0  0  0  0  0  2  0  0  0  0  0  0
   84.9780   52.3800   43.6170 C   0  0  1  0  0  0  0  0  0  0  0  0
   85.9270   51.7720   42.5800 C   0  0  1  0  0  3  0  0  0  0  0  0
   87.0100   52.8270   42.3770 C   0  0  0  0  0  2  0  0  0  0  0  0
   86.2590   54.1640   42.5070 C   0  0  0  0  0  2  0  0  0  0  0  0
   84.8450   53.8220   43.0470 C   0  0  2  0  0  3  0  0  0  0  0  0
   85.6000   52.3780   45.0440 C   0  0  0  0  0  1  0  0  0  0  0  0
   87.1850   46.0480   42.8180 C   0  0  0  0  0  2  0  0  0  0  0  0
   86.0270   48.1410   45.2190 C   0  0  0  0  0  1  0  0  0  0  0  0
   86.1140   44.8480   44.6140 O   0  0  0  0  0  0  0  0  0  0  0  0
   86.0110   43.8960   44.7760 H   0  0  0  0  0  0  0  0  0  0  0  0
   84.1520   54.9590   43.8780 C   0  0  2  0  0  3  0  0  0  0  0  0
   83.8910   56.3010   43.1650 C   0  0  0  0  0  1  0  0  0  0  0  0
   84.8830   55.2090   45.1780 C   0  0  0  0  0  3  0  0  0  0  0  0
   84.2430   55.6500   46.2720 C   0  0  0  0  0  3  0  0  0  0  0  0
   84.9640   55.8160   47.5920 C   0  0  2  0  0  3  0  0  0  0  0  0
   86.4790   55.9180   47.3510 C   0  0  0  0  0  1  0  0  0  0  0  0
   84.5630   54.6960   48.5970 C   0  0  0  0  0  3  0  0  0  0  0  0
   83.1320   54.1730   48.3870 C   0  0  0  0  0  1  0  0  0  0  0  0
   85.5630   53.5310   48.5910 C   0  0  0  0  0  1  0  0  0  0  0  0
  1 20  1  1  0  0  0
  2  1  1  0  0  0  0
  2  3  1  0  0  0  0
  3  4  1  0  0  0  0
  4 19  1  1  0  0  0
  5  4  1  0  0  0  0
  6  7  1  0  0  0  0
  6  5  2  0  0  0  0
  7  8  2  0  0  0  0
  8  9  1  0  0  0  0
  9  4  1  0  0  0  0
  9 10  1  1  0  0  0
 11 12  1  0  0  0  0
 11 10  1  0  0  0  0
 12 17  1  1  0  0  0
 13 14  1  1  0  0  0
 13  8  1  0  0  0  0
 13 12  1  0  0  0  0
 14 15  1  0  0  0  0
 15 16  1  0  0  0  0
 16 12  1  0  0  0  0
 16 22  1  1  0  0  0
 18  5  1  0  0  0  0
 18  1  1  0  0  0  0
 20 21  1  0  0  0  0
 22 23  1  6  0  0  0
 22 24  1  0  0  0  0
 24 25  2  0  0  0  0
 25 26  1  0  0  0  0
 26 27  1  6  0  0  0
 26 28  1  0  0  0  0
 29 28  1  0  0  0  0
 30 28  1  0  0  0  0
M  END
>  <MODEL>
8

>  <REMARK>
 VINA RESULT:    -8.674      2.999      4.977
 INTER + INTRA:         -11.300
 INTER:                 -10.638
 INTRA:                  -0.662
 UNBOUND:                -0.344
  Name = 
  11 active torsions:
  status: ('A' for Active; 'I' for Inactive)
    1  A    between atoms: O_1  and  C_2
    2  A    between atoms: C_5  and  C_29
    3  A    between atoms: C_13  and  C_27
    4  A    between atoms: C_17  and  C_18
    5  A    between atoms: C_18  and  C_19
    6  A    between atoms: C_18  and  C_26
    7  A    between atoms: C_20  and  C_21
    8  A    between atoms: C_21  and  C_22
    9  A    between atoms: C_21  and  C_25
   10  A    between atoms: C_22  and  C_23
   11  A    between atoms: C_22  and  C_24
                            x       y       z     vdW  Elec       q    Type
                         _______ _______ _______ _____ _____    ______ ____

>  <TORSDO>
F 5

$$$$
=
 OpenBabel08112514243D

 30 33  0  0  1  0  0  0  0  0999 V2000
   90.5750   46.4490   42.7040 C   0  0  1  0  0  3  0  0  0  0  0  0
   90.9210   47.6580   43.5710 C   0  0  0  0  0  2  0  0  0  0  0  0
   90.2550   48.9310   43.0360 C   0  0  0  0  0  2  0  0  0  0  0  0
   88.7300   48.7880   42.6590 C   0  0  1  0  0  0  0  0  0  0  0  0
   88.1990   47.3680   42.9150 C   0  0  0  0  0  0  0  0  0  0  0  0
   86.8860   47.1670   43.1110 C   0  0  0  0  0  3  0  0  0  0  0  0
   85.9480   48.2800   43.2960 C   0  0  0  0  0  3  0  0  0  0  0  0
   86.3810   49.5400   43.4380 C   0  0  0  0  0  0  0  0  0  0  0  0
   87.8810   49.8280   43.4990 C   0  0  2  0  0  3  0  0  0  0  0  0
   88.2130   51.3250   43.1660 C   0  0  0  0  0  2  0  0  0  0  0  0
   87.2180   52.3500   43.7570 C   0  0  0  0  0  2  0  0  0  0  0  0
   85.7560   51.9890   43.3890 C   0  0  1  0  0  0  0  0  0  0  0  0
   85.4740   50.6110   43.9960 C   0  0  1  0  0  3  0  0  0  0  0  0
   83.9580   50.4610   43.9350 C   0  0  0  0  0  2  0  0  0  0  0  0
   83.4300   51.8850   44.1850 C   0  0  0  0  0  2  0  0  0  0  0  0
   84.6590   52.8280   44.1050 C   0  0  2  0  0  3  0  0  0  0  0  0
   85.5660   51.9900   41.8430 C   0  0  0  0  0  1  0  0  0  0  0  0
   89.0800   46.1380   42.8160 C   0  0  0  0  0  2  0  0  0  0  0  0
   88.5540   49.0330   41.1350 C   0  0  0  0  0  1  0  0  0  0  0  0
   90.9250   46.6790   41.3620 O   0  0  0  0  0  0  0  0  0  0  0  0
   90.2040   46.3800   40.7840 H   0  0  0  0  0  0  0  0  0  0  0  0
   84.3470   54.3000   43.6580 C   0  0  2  0  0  3  0  0  0  0  0  0
   85.1560   54.8680   42.4750 C   0  0  0  0  0  1  0  0  0  0  0  0
   84.4200   55.2540   44.8280 C   0  0  0  0  0  3  0  0  0  0  0  0
   85.5950   55.6850   45.3130 C   0  0  0  0  0  3  0  0  0  0  0  0
   85.6590   56.7060   46.4280 C   0  0  2  0  0  3  0  0  0  0  0  0
   84.6070   56.3760   47.5000 C   0  0  0  0  0  1  0  0  0  0  0  0
   85.5500   58.1570   45.8690 C   0  0  0  0  0  3  0  0  0  0  0  0
   85.9380   58.2670   44.3850 C   0  0  0  0  0  1  0  0  0  0  0  0
   84.1590   58.7620   46.1040 C   0  0  0  0  0  1  0  0  0  0  0  0
  1 20  1  6  0  0  0
  1 18  1  0  0  0  0
  1  2  1  0  0  0  0
  3  2  1  0  0  0  0
  4 19  1  6  0  0  0
  4  5  1  0  0  0  0
  4  3  1  0  0  0  0
  4  9  1  0  0  0  0
  5  6  2  0  0  0  0
  6  7  1  0  0  0  0
  7  8  2  0  0  0  0
  8  9  1  0  0  0  0
  8 13  1  0  0  0  0
  9 10  1  6  0  0  0
 10 11  1  0  0  0  0
 12 17  1  6  0  0  0
 12 11  1  0  0  0  0
 12 13  1  0  0  0  0
 12 16  1  0  0  0  0
 13 14  1  6  0  0  0
 14 15  1  0  0  0  0
 16 22  1  6  0  0  0
 16 15  1  0  0  0  0
 18  5  1  0  0  0  0
 21 20  1  0  0  0  0
 22 23  1  6  0  0  0
 22 24  1  0  0  0  0
 24 25  2  0  0  0  0
 25 26  1  0  0  0  0
 26 27  1  1  0  0  0
 28 30  1  0  0  0  0
 28 26  1  0  0  0  0
 29 28  1  0  0  0  0
M  END
>  <MODEL>
9

>  <REMARK>
 VINA RESULT:    -8.569      2.380      3.802
 INTER + INTRA:         -11.168
 INTER:                 -10.823
 INTRA:                  -0.344
 UNBOUND:                -0.344
  Name = 
  11 active torsions:
  status: ('A' for Active; 'I' for Inactive)
    1  A    between atoms: O_1  and  C_2
    2  A    between atoms: C_5  and  C_29
    3  A    between atoms: C_13  and  C_27
    4  A    between atoms: C_17  and  C_18
    5  A    between atoms: C_18  and  C_19
    6  A    between atoms: C_18  and  C_26
    7  A    between atoms: C_20  and  C_21
    8  A    between atoms: C_21  and  C_22
    9  A    between atoms: C_21  and  C_25
   10  A    between atoms: C_22  and  C_23
   11  A    between atoms: C_22  and  C_24
                            x       y       z     vdW  Elec       q    Type
                         _______ _______ _______ _____ _____    ______ ____

>  <TORSDO>
F 5

$$$$
