MODEL 1
REMARK VINA RESULT:    -5.893      0.000      0.000
REMARK INTER + INTRA:          -6.776
REMARK INTER:                  -7.111
REMARK INTRA:                   0.335
REMARK UNBOUND:                 0.323
REMARK  Name = 
REMARK  9 active torsions:
REMARK  status: ('A' for Active; 'I' for Inactive)
REMARK    1  A    between atoms: C_1  and  O_2
REMARK    2  A    between atoms: O_2  and  C_3
REMARK    3  A    between atoms: C_5  and  C_6
REMARK    4  A    between atoms: C_7  and  O_15
REMARK    5  A    between atoms: C_8  and  O_13
REMARK    6  A    between atoms: C_9  and  C_10
REMARK    7  A    between atoms: C_10  and  C_11
REMARK    8  A    between atoms: C_10  and  C_12
REMARK    9  A    between atoms: O_13  and  C_14
REMARK                            x       y       z     vdW  Elec       q    Type
REMARK                         _______ _______ _______ _____ _____    ______ ____
ROOT
ATOM      1  C   UNL     1      80.805  50.040  43.265  0.00  0.00    +0.127 A 
ATOM      2  C   UNL     1      79.628  50.801  43.302  0.00  0.00    -0.013 A 
ATOM      3  C   UNL     1      78.572  50.461  44.150  0.00  0.00    -0.002 A 
ATOM      4  C   UNL     1      77.330  51.314  44.150  0.00  0.00    -0.036 C 
ATOM      5  C   UNL     1      78.684  49.333  44.989  0.00  0.00    +0.162 A 
ATOM      6  C   UNL     1      79.868  48.548  44.967  0.00  0.00    +0.168 A 
ATOM      7  C   UNL     1      80.934  48.905  44.100  0.00  0.00    +0.042 A 
ENDROOT
BRANCH   7   8
ATOM      8  C   UNL     1      82.226  48.080  44.051  0.00  0.00    -0.014 C 
ATOM      9  C   UNL     1      82.268  47.143  42.836  0.00  0.00    -0.058 C 
ATOM     10  C   UNL     1      83.479  48.963  44.132  0.00  0.00    -0.058 C 
ENDBRANCH   7   8
BRANCH   1  12
ATOM     11  C   UNL     1      82.121  51.700  41.914  0.00  0.00    +0.079 C 
ATOM     12  O   UNL     1      81.864  50.389  42.406  0.00  0.00    -0.495 OA
ENDBRANCH   1  12
BRANCH   6  13
ATOM     13  O   UNL     1      80.039  47.411  45.781  0.00  0.00    -0.491 OA
ATOM     14  C   UNL     1      79.721  46.062  45.459  0.00  0.00    +0.079 C 
ENDBRANCH   6  13
BRANCH   5  15
ATOM     15  O   UNL     1      77.633  48.986  45.841  0.00  0.00    -0.503 OA
ATOM     16  H   UNL     1      77.796  48.845  46.753  0.00  0.00    +0.000 HD
ENDBRANCH   5  15
TORSDOF 4
ENDMDL
MODEL 2
REMARK VINA RESULT:    -5.621      6.246      8.713
REMARK INTER + INTRA:          -6.448
REMARK INTER:                  -6.652
REMARK INTRA:                   0.204
REMARK UNBOUND:                 0.323
REMARK  Name = 
REMARK  9 active torsions:
REMARK  status: ('A' for Active; 'I' for Inactive)
REMARK    1  A    between atoms: C_1  and  O_2
REMARK    2  A    between atoms: O_2  and  C_3
REMARK    3  A    between atoms: C_5  and  C_6
REMARK    4  A    between atoms: C_7  and  O_15
REMARK    5  A    between atoms: C_8  and  O_13
REMARK    6  A    between atoms: C_9  and  C_10
REMARK    7  A    between atoms: C_10  and  C_11
REMARK    8  A    between atoms: C_10  and  C_12
REMARK    9  A    between atoms: O_13  and  C_14
REMARK                            x       y       z     vdW  Elec       q    Type
REMARK                         _______ _______ _______ _____ _____    ______ ____
ROOT
ATOM      1  C   UNL     1      85.138  54.887  46.081  0.00  0.00    +0.127 A 
ATOM      2  C   UNL     1      85.002  56.214  46.514  0.00  0.00    -0.013 A 
ATOM      3  C   UNL     1      85.035  57.277  45.609  0.00  0.00    -0.002 A 
ATOM      4  C   UNL     1      84.883  58.684  46.128  0.00  0.00    -0.036 C 
ATOM      5  C   UNL     1      85.208  57.020  44.234  0.00  0.00    +0.162 A 
ATOM      6  C   UNL     1      85.348  55.684  43.774  0.00  0.00    +0.168 A 
ATOM      7  C   UNL     1      85.312  54.611  44.704  0.00  0.00    +0.042 A 
ENDROOT
BRANCH   7   8
ATOM      8  C   UNL     1      85.460  53.156  44.242  0.00  0.00    -0.014 C 
ATOM      9  C   UNL     1      86.750  52.511  44.768  0.00  0.00    -0.058 C 
ATOM     10  C   UNL     1      84.223  52.313  44.582  0.00  0.00    -0.058 C 
ENDBRANCH   7   8
BRANCH   1  12
ATOM     11  C   UNL     1      85.646  53.857  48.316  0.00  0.00    +0.079 C 
ATOM     12  O   UNL     1      85.105  53.821  46.999  0.00  0.00    -0.495 OA
ENDBRANCH   1  12
BRANCH   6  13
ATOM     13  O   UNL     1      85.523  55.365  42.413  0.00  0.00    -0.491 OA
ATOM     14  C   UNL     1      84.515  55.256  41.414  0.00  0.00    +0.079 C 
ENDBRANCH   6  13
BRANCH   5  15
ATOM     15  O   UNL     1      85.241  58.079  43.322  0.00  0.00    -0.503 OA
ATOM     16  H   UNL     1      85.457  57.917  42.424  0.00  0.00    +0.000 HD
ENDBRANCH   5  15
TORSDOF 4
ENDMDL
MODEL 3
REMARK VINA RESULT:    -5.473      6.383      9.010
REMARK INTER + INTRA:          -6.269
REMARK INTER:                  -6.564
REMARK INTRA:                   0.295
REMARK UNBOUND:                 0.323
REMARK  Name = 
REMARK  9 active torsions:
REMARK  status: ('A' for Active; 'I' for Inactive)
REMARK    1  A    between atoms: C_1  and  O_2
REMARK    2  A    between atoms: O_2  and  C_3
REMARK    3  A    between atoms: C_5  and  C_6
REMARK    4  A    between atoms: C_7  and  O_15
REMARK    5  A    between atoms: C_8  and  O_13
REMARK    6  A    between atoms: C_9  and  C_10
REMARK    7  A    between atoms: C_10  and  C_11
REMARK    8  A    between atoms: C_10  and  C_12
REMARK    9  A    between atoms: O_13  and  C_14
REMARK                            x       y       z     vdW  Elec       q    Type
REMARK                         _______ _______ _______ _____ _____    ______ ____
ROOT
ATOM      1  C   UNL     1      89.031  49.852  42.956  0.00  0.00    +0.127 A 
ATOM      2  C   UNL     1      89.542  50.565  41.862  0.00  0.00    -0.013 A 
ATOM      3  C   UNL     1      89.123  51.869  41.588  0.00  0.00    -0.002 A 
ATOM      4  C   UNL     1      89.706  52.590  40.400  0.00  0.00    -0.036 C 
ATOM      5  C   UNL     1      88.170  52.487  42.424  0.00  0.00    +0.162 A 
ATOM      6  C   UNL     1      87.640  51.783  43.537  0.00  0.00    +0.168 A 
ATOM      7  C   UNL     1      88.074  50.457  43.804  0.00  0.00    +0.042 A 
ENDROOT
BRANCH   7   8
ATOM      8  C   UNL     1      87.522  49.668  44.998  0.00  0.00    -0.014 C 
ATOM      9  C   UNL     1      87.603  50.466  46.306  0.00  0.00    -0.058 C 
ATOM     10  C   UNL     1      86.103  49.144  44.738  0.00  0.00    -0.058 C 
ENDBRANCH   7   8
BRANCH   1  12
ATOM     11  C   UNL     1      90.780  48.165  43.596  0.00  0.00    +0.079 C 
ATOM     12  O   UNL     1      89.457  48.538  43.223  0.00  0.00    -0.495 OA
ENDBRANCH   1  12
BRANCH   6  13
ATOM     13  O   UNL     1      86.687  52.347  44.407  0.00  0.00    -0.491 OA
ATOM     14  C   UNL     1      85.317  52.619  44.130  0.00  0.00    +0.079 C 
ENDBRANCH   6  13
BRANCH   5  15
ATOM     15  O   UNL     1      87.747  53.792  42.158  0.00  0.00    -0.503 OA
ATOM     16  H   UNL     1      87.831  54.145  41.294  0.00  0.00    +0.000 HD
ENDBRANCH   5  15
TORSDOF 4
ENDMDL
MODEL 4
REMARK VINA RESULT:    -5.321      7.037      8.345
REMARK INTER + INTRA:          -6.086
REMARK INTER:                  -6.385
REMARK INTRA:                   0.299
REMARK UNBOUND:                 0.323
REMARK  Name = 
REMARK  9 active torsions:
REMARK  status: ('A' for Active; 'I' for Inactive)
REMARK    1  A    between atoms: C_1  and  O_2
REMARK    2  A    between atoms: O_2  and  C_3
REMARK    3  A    between atoms: C_5  and  C_6
REMARK    4  A    between atoms: C_7  and  O_15
REMARK    5  A    between atoms: C_8  and  O_13
REMARK    6  A    between atoms: C_9  and  C_10
REMARK    7  A    between atoms: C_10  and  C_11
REMARK    8  A    between atoms: C_10  and  C_12
REMARK    9  A    between atoms: O_13  and  C_14
REMARK                            x       y       z     vdW  Elec       q    Type
REMARK                         _______ _______ _______ _____ _____    ______ ____
ROOT
ATOM      1  C   UNL     1      85.384  53.357  45.761  0.00  0.00    +0.127 A 
ATOM      2  C   UNL     1      84.941  52.863  46.996  0.00  0.00    -0.013 A 
ATOM      3  C   UNL     1      84.265  53.681  47.903  0.00  0.00    -0.002 A 
ATOM      4  C   UNL     1      83.809  53.098  49.216  0.00  0.00    -0.036 C 
ATOM      5  C   UNL     1      84.019  55.032  47.579  0.00  0.00    +0.162 A 
ATOM      6  C   UNL     1      84.460  55.553  46.333  0.00  0.00    +0.168 A 
ATOM      7  C   UNL     1      85.147  54.709  45.420  0.00  0.00    +0.042 A 
ENDROOT
BRANCH   7   8
ATOM      8  C   UNL     1      85.637  55.239  44.066  0.00  0.00    -0.014 C 
ATOM      9  C   UNL     1      84.522  55.945  43.284  0.00  0.00    -0.058 C 
ATOM     10  C   UNL     1      86.881  56.127  44.209  0.00  0.00    -0.058 C 
ENDBRANCH   7   8
BRANCH   1  12
ATOM     11  C   UNL     1      87.275  51.826  45.132  0.00  0.00    +0.079 C 
ATOM     12  O   UNL     1      86.066  52.525  44.854  0.00  0.00    -0.495 OA
ENDBRANCH   1  12
BRANCH   6  13
ATOM     13  O   UNL     1      84.245  56.892  45.953  0.00  0.00    -0.491 OA
ATOM     14  C   UNL     1      84.940  58.044  46.415  0.00  0.00    +0.079 C 
ENDBRANCH   6  13
BRANCH   5  15
ATOM     15  O   UNL     1      83.343  55.857  48.480  0.00  0.00    -0.503 OA
ATOM     16  H   UNL     1      83.585  56.759  48.562  0.00  0.00    +0.000 HD
ENDBRANCH   5  15
TORSDOF 4
ENDMDL
MODEL 5
REMARK VINA RESULT:    -5.301      6.808      8.288
REMARK INTER + INTRA:          -6.063
REMARK INTER:                  -6.264
REMARK INTRA:                   0.202
REMARK UNBOUND:                 0.323
REMARK  Name = 
REMARK  9 active torsions:
REMARK  status: ('A' for Active; 'I' for Inactive)
REMARK    1  A    between atoms: C_1  and  O_2
REMARK    2  A    between atoms: O_2  and  C_3
REMARK    3  A    between atoms: C_5  and  C_6
REMARK    4  A    between atoms: C_7  and  O_15
REMARK    5  A    between atoms: C_8  and  O_13
REMARK    6  A    between atoms: C_9  and  C_10
REMARK    7  A    between atoms: C_10  and  C_11
REMARK    8  A    between atoms: C_10  and  C_12
REMARK    9  A    between atoms: O_13  and  C_14
REMARK                            x       y       z     vdW  Elec       q    Type
REMARK                         _______ _______ _______ _____ _____    ______ ____
ROOT
ATOM      1  C   UNL     1      85.446  55.586  43.230  0.00  0.00    +0.127 A 
ATOM      2  C   UNL     1      85.087  56.850  43.720  0.00  0.00    -0.013 A 
ATOM      3  C   UNL     1      85.230  57.170  45.072  0.00  0.00    -0.002 A 
ATOM      4  C   UNL     1      84.830  58.544  45.545  0.00  0.00    -0.036 C 
ATOM      5  C   UNL     1      85.745  56.210  45.967  0.00  0.00    +0.162 A 
ATOM      6  C   UNL     1      86.115  54.924  45.492  0.00  0.00    +0.168 A 
ATOM      7  C   UNL     1      85.964  54.611  44.115  0.00  0.00    +0.042 A 
ENDROOT
BRANCH   7   8
ATOM      8  C   UNL     1      86.353  53.232  43.568  0.00  0.00    -0.014 C 
ATOM      9  C   UNL     1      85.132  52.430  43.100  0.00  0.00    -0.058 C 
ATOM     10  C   UNL     1      87.426  53.326  42.474  0.00  0.00    -0.058 C 
ENDBRANCH   7   8
BRANCH   1  12
ATOM     11  C   UNL     1      84.079  55.356  41.135  0.00  0.00    +0.079 C 
ATOM     12  O   UNL     1      85.297  55.271  41.867  0.00  0.00    -0.495 OA
ENDBRANCH   1  12
BRANCH   6  13
ATOM     13  O   UNL     1      86.635  53.924  46.337  0.00  0.00    -0.491 OA
ATOM     14  C   UNL     1      85.907  53.057  47.199  0.00  0.00    +0.079 C 
ENDBRANCH   6  13
BRANCH   5  15
ATOM     15  O   UNL     1      85.893  56.523  47.321  0.00  0.00    -0.503 OA
ATOM     16  H   UNL     1      86.403  55.968  47.877  0.00  0.00    +0.000 HD
ENDBRANCH   5  15
TORSDOF 4
ENDMDL
MODEL 6
REMARK VINA RESULT:    -5.284      6.658      8.062
REMARK INTER + INTRA:          -6.042
REMARK INTER:                  -6.241
REMARK INTRA:                   0.199
REMARK UNBOUND:                 0.323
REMARK  Name = 
REMARK  9 active torsions:
REMARK  status: ('A' for Active; 'I' for Inactive)
REMARK    1  A    between atoms: C_1  and  O_2
REMARK    2  A    between atoms: O_2  and  C_3
REMARK    3  A    between atoms: C_5  and  C_6
REMARK    4  A    between atoms: C_7  and  O_15
REMARK    5  A    between atoms: C_8  and  O_13
REMARK    6  A    between atoms: C_9  and  C_10
REMARK    7  A    between atoms: C_10  and  C_11
REMARK    8  A    between atoms: C_10  and  C_12
REMARK    9  A    between atoms: O_13  and  C_14
REMARK                            x       y       z     vdW  Elec       q    Type
REMARK                         _______ _______ _______ _____ _____    ______ ____
ROOT
ATOM      1  C   UNL     1      84.352  56.294  44.816  0.00  0.00    +0.127 A 
ATOM      2  C   UNL     1      84.129  56.370  43.434  0.00  0.00    -0.013 A 
ATOM      3  C   UNL     1      84.241  55.242  42.619  0.00  0.00    -0.002 A 
ATOM      4  C   UNL     1      83.989  55.380  41.140  0.00  0.00    -0.036 C 
ATOM      5  C   UNL     1      84.584  53.998  43.190  0.00  0.00    +0.162 A 
ATOM      6  C   UNL     1      84.815  53.899  44.587  0.00  0.00    +0.168 A 
ATOM      7  C   UNL     1      84.698  55.054  45.405  0.00  0.00    +0.042 A 
ENDROOT
BRANCH   7   8
ATOM      8  C   UNL     1      84.940  54.983  46.917  0.00  0.00    -0.014 C 
ATOM      9  C   UNL     1      86.246  55.677  47.327  0.00  0.00    -0.058 C 
ATOM     10  C   UNL     1      83.741  55.507  47.720  0.00  0.00    -0.058 C 
ENDBRANCH   7   8
BRANCH   1  12
ATOM     11  C   UNL     1      84.996  58.632  45.474  0.00  0.00    +0.079 C 
ATOM     12  O   UNL     1      84.239  57.436  45.630  0.00  0.00    -0.495 OA
ENDBRANCH   1  12
BRANCH   6  13
ATOM     13  O   UNL     1      85.160  52.686  45.214  0.00  0.00    -0.491 OA
ATOM     14  C   UNL     1      86.453  52.099  45.308  0.00  0.00    +0.079 C 
ENDBRANCH   6  13
BRANCH   5  15
ATOM     15  O   UNL     1      84.697  52.864  42.381  0.00  0.00    -0.503 OA
ATOM     16  H   UNL     1      84.948  52.044  42.758  0.00  0.00    +0.000 HD
ENDBRANCH   5  15
TORSDOF 4
ENDMDL
MODEL 7
REMARK VINA RESULT:    -5.265      6.431      8.254
REMARK INTER + INTRA:          -6.020
REMARK INTER:                  -6.220
REMARK INTRA:                   0.201
REMARK UNBOUND:                 0.323
REMARK  Name = 
REMARK  9 active torsions:
REMARK  status: ('A' for Active; 'I' for Inactive)
REMARK    1  A    between atoms: C_1  and  O_2
REMARK    2  A    between atoms: O_2  and  C_3
REMARK    3  A    between atoms: C_5  and  C_6
REMARK    4  A    between atoms: C_7  and  O_15
REMARK    5  A    between atoms: C_8  and  O_13
REMARK    6  A    between atoms: C_9  and  C_10
REMARK    7  A    between atoms: C_10  and  C_11
REMARK    8  A    between atoms: C_10  and  C_12
REMARK    9  A    between atoms: O_13  and  C_14
REMARK                            x       y       z     vdW  Elec       q    Type
REMARK                         _______ _______ _______ _____ _____    ______ ____
ROOT
ATOM      1  C   UNL     1      86.112  54.565  44.771  0.00  0.00    +0.127 A 
ATOM      2  C   UNL     1      86.325  55.867  44.295  0.00  0.00    -0.013 A 
ATOM      3  C   UNL     1      85.640  56.957  44.836  0.00  0.00    -0.002 A 
ATOM      4  C   UNL     1      85.909  58.335  44.288  0.00  0.00    -0.036 C 
ATOM      5  C   UNL     1      84.714  56.753  45.880  0.00  0.00    +0.162 A 
ATOM      6  C   UNL     1      84.482  55.443  46.377  0.00  0.00    +0.168 A 
ATOM      7  C   UNL     1      85.186  54.343  45.818  0.00  0.00    +0.042 A 
ENDROOT
BRANCH   7   8
ATOM      8  C   UNL     1      84.961  52.915  46.330  0.00  0.00    -0.014 C 
ATOM      9  C   UNL     1      84.391  51.994  45.243  0.00  0.00    -0.058 C 
ATOM     10  C   UNL     1      86.224  52.324  46.971  0.00  0.00    -0.058 C 
ENDBRANCH   7   8
BRANCH   1  12
ATOM     11  C   UNL     1      87.139  53.324  42.844  0.00  0.00    +0.079 C 
ATOM     12  O   UNL     1      86.806  53.472  44.220  0.00  0.00    -0.495 OA
ENDBRANCH   1  12
BRANCH   6  13
ATOM     13  O   UNL     1      83.571  55.177  47.417  0.00  0.00    -0.491 OA
ATOM     14  C   UNL     1      83.809  55.264  48.818  0.00  0.00    +0.079 C 
ENDBRANCH   6  13
BRANCH   5  15
ATOM     15  O   UNL     1      84.025  57.839  46.427  0.00  0.00    -0.503 OA
ATOM     16  H   UNL     1      83.953  57.927  47.357  0.00  0.00    +0.000 HD
ENDBRANCH   5  15
TORSDOF 4
ENDMDL
MODEL 8
REMARK VINA RESULT:    -5.250      5.523      8.485
REMARK INTER + INTRA:          -6.001
REMARK INTER:                  -6.360
REMARK INTRA:                   0.358
REMARK UNBOUND:                 0.323
REMARK  Name = 
REMARK  9 active torsions:
REMARK  status: ('A' for Active; 'I' for Inactive)
REMARK    1  A    between atoms: C_1  and  O_2
REMARK    2  A    between atoms: O_2  and  C_3
REMARK    3  A    between atoms: C_5  and  C_6
REMARK    4  A    between atoms: C_7  and  O_15
REMARK    5  A    between atoms: C_8  and  O_13
REMARK    6  A    between atoms: C_9  and  C_10
REMARK    7  A    between atoms: C_10  and  C_11
REMARK    8  A    between atoms: C_10  and  C_12
REMARK    9  A    between atoms: O_13  and  C_14
REMARK                            x       y       z     vdW  Elec       q    Type
REMARK                         _______ _______ _______ _____ _____    ______ ____
ROOT
ATOM      1  C   UNL     1      85.679  52.808  43.297  0.00  0.00    +0.127 A 
ATOM      2  C   UNL     1      87.040  52.556  43.076  0.00  0.00    -0.013 A 
ATOM      3  C   UNL     1      87.599  52.661  41.800  0.00  0.00    -0.002 A 
ATOM      4  C   UNL     1      89.068  52.380  41.619  0.00  0.00    -0.036 C 
ATOM      5  C   UNL     1      86.785  53.028  40.709  0.00  0.00    +0.162 A 
ATOM      6  C   UNL     1      85.403  53.288  40.910  0.00  0.00    +0.168 A 
ATOM      7  C   UNL     1      84.848  53.177  42.213  0.00  0.00    +0.042 A 
ENDROOT
BRANCH   7   8
ATOM      8  C   UNL     1      83.360  53.450  42.466  0.00  0.00    -0.014 C 
ATOM      9  C   UNL     1      82.988  54.914  42.198  0.00  0.00    -0.058 C 
ATOM     10  C   UNL     1      82.454  52.482  41.692  0.00  0.00    -0.058 C 
ENDBRANCH   7   8
BRANCH   1  12
ATOM     11  C   UNL     1      85.283  53.654  45.629  0.00  0.00    +0.079 C 
ATOM     12  O   UNL     1      85.124  52.699  44.585  0.00  0.00    -0.495 OA
ENDBRANCH   1  12
BRANCH   6  13
ATOM     13  O   UNL     1      84.540  53.658  39.860  0.00  0.00    -0.491 OA
ATOM     14  C   UNL     1      84.504  54.901  39.168  0.00  0.00    +0.079 C 
ENDBRANCH   6  13
BRANCH   5  15
ATOM     15  O   UNL     1      87.335  53.137  39.429  0.00  0.00    -0.503 OA
ATOM     16  H   UNL     1      88.226  52.885  39.280  0.00  0.00    +0.000 HD
ENDBRANCH   5  15
TORSDOF 4
ENDMDL
MODEL 9
REMARK VINA RESULT:    -5.246      6.130      9.035
REMARK INTER + INTRA:          -5.996
REMARK INTER:                  -6.320
REMARK INTRA:                   0.323
REMARK UNBOUND:                 0.323
REMARK  Name = 
REMARK  9 active torsions:
REMARK  status: ('A' for Active; 'I' for Inactive)
REMARK    1  A    between atoms: C_1  and  O_2
REMARK    2  A    between atoms: O_2  and  C_3
REMARK    3  A    between atoms: C_5  and  C_6
REMARK    4  A    between atoms: C_7  and  O_15
REMARK    5  A    between atoms: C_8  and  O_13
REMARK    6  A    between atoms: C_9  and  C_10
REMARK    7  A    between atoms: C_10  and  C_11
REMARK    8  A    between atoms: C_10  and  C_12
REMARK    9  A    between atoms: O_13  and  C_14
REMARK                            x       y       z     vdW  Elec       q    Type
REMARK                         _______ _______ _______ _____ _____    ______ ____
ROOT
ATOM      1  C   UNL     1      89.065  52.218  41.708  0.00  0.00    +0.127 A 
ATOM      2  C   UNL     1      89.895  51.096  41.569  0.00  0.00    -0.013 A 
ATOM      3  C   UNL     1      89.593  49.889  42.203  0.00  0.00    -0.002 A 
ATOM      4  C   UNL     1      90.518  48.714  42.020  0.00  0.00    -0.036 C 
ATOM      5  C   UNL     1      88.433  49.789  42.999  0.00  0.00    +0.162 A 
ATOM      6  C   UNL     1      87.579  50.913  43.153  0.00  0.00    +0.168 A 
ATOM      7  C   UNL     1      87.898  52.134  42.503  0.00  0.00    +0.042 A 
ENDROOT
BRANCH   7   8
ATOM      8  C   UNL     1      86.998  53.368  42.647  0.00  0.00    -0.014 C 
ATOM      9  C   UNL     1      85.759  53.288  41.746  0.00  0.00    -0.058 C 
ATOM     10  C   UNL     1      86.620  53.640  44.110  0.00  0.00    -0.058 C 
ENDBRANCH   7   8
BRANCH   1  12
ATOM     11  C   UNL     1      90.462  53.624  40.164  0.00  0.00    +0.079 C 
ATOM     12  O   UNL     1      89.378  53.431  41.066  0.00  0.00    -0.495 OA
ENDBRANCH   1  12
BRANCH   6  13
ATOM     13  O   UNL     1      86.407  50.874  43.934  0.00  0.00    -0.491 OA
ATOM     14  C   UNL     1      85.190  50.200  43.633  0.00  0.00    +0.079 C 
ENDBRANCH   6  13
BRANCH   5  15
ATOM     15  O   UNL     1      88.122  48.584  43.636  0.00  0.00    -0.503 OA
ATOM     16  H   UNL     1      88.791  47.943  43.776  0.00  0.00    +0.000 HD
ENDBRANCH   5  15
TORSDOF 4
ENDMDL
