MODEL 1
REMARK VINA RESULT:    -7.348      0.000      0.000
REMARK INTER + INTRA:          -7.348
REMARK INTER:                  -7.348
REMARK INTRA:                   0.000
REMARK UNBOUND:                 0.000
REMARK  Name = 
REMARK  4 active torsions:
REMARK  status: ('A' for Active; 'I' for Inactive)
REMARK    1  A    between atoms: C_1  and  C_2
REMARK    2  A    between atoms: C_8  and  C_12
REMARK    3  A    between atoms: C_13  and  C_14
REMARK    4  A    between atoms: C_13  and  C_15
REMARK                            x       y       z     vdW  Elec       q    Type
REMARK                         _______ _______ _______ _____ _____    ______ ____
ROOT
ATOM      1  C   UNL     1      86.113  56.378  46.914  0.00  0.00    -0.062 C 
ATOM      2  C   UNL     1      84.803  55.826  46.312  0.00  0.00    -0.037 C 
ATOM      3  C   UNL     1      84.903  55.719  44.761  0.00  0.00    -0.050 C 
ATOM      4  C   UNL     1      85.111  54.302  44.192  0.00  0.00    -0.049 C 
ATOM      5  C   UNL     1      86.407  53.642  44.697  0.00  0.00    -0.028 C 
ATOM      6  C   UNL     1      86.528  53.211  46.168  0.00  0.00    -0.011 C 
ATOM      7  C   UNL     1      85.363  53.445  47.112  0.00  0.00    -0.063 C 
ATOM      8  C   UNL     1      85.256  52.825  48.287  0.00  0.00    -0.073 C 
ATOM      9  C   UNL     1      84.161  53.388  49.127  0.00  0.00    -0.031 C 
ATOM     10  C   UNL     1      83.759  54.671  48.400  0.00  0.00    -0.043 C 
ATOM     11  C   UNL     1      84.311  54.508  46.974  0.00  0.00    -0.017 C 
ATOM     12  C   UNL     1      86.150  51.708  48.746  0.00  0.00    -0.044 C 
ATOM     13  C   UNL     1      86.385  52.145  45.073  0.00  0.00    -0.025 C 
ATOM     14  C   UNL     1      87.672  51.381  44.740  0.00  0.00    -0.059 C 
ATOM     15  C   UNL     1      85.076  51.337  44.980  0.00  0.00    -0.059 C 
ENDROOT
TORSDOF 0
ENDMDL
MODEL 2
REMARK VINA RESULT:    -7.210      0.871      3.741
REMARK INTER + INTRA:          -7.210
REMARK INTER:                  -7.210
REMARK INTRA:                   0.000
REMARK UNBOUND:                 0.000
REMARK  Name = 
REMARK  4 active torsions:
REMARK  status: ('A' for Active; 'I' for Inactive)
REMARK    1  A    between atoms: C_1  and  C_2
REMARK    2  A    between atoms: C_8  and  C_12
REMARK    3  A    between atoms: C_13  and  C_14
REMARK    4  A    between atoms: C_13  and  C_15
REMARK                            x       y       z     vdW  Elec       q    Type
REMARK                         _______ _______ _______ _____ _____    ______ ____
ROOT
ATOM      1  C   UNL     1      85.024  51.317  44.500  0.00  0.00    -0.062 C 
ATOM      2  C   UNL     1      86.407  51.959  44.745  0.00  0.00    -0.037 C 
ATOM      3  C   UNL     1      86.631  53.181  43.804  0.00  0.00    -0.050 C 
ATOM      4  C   UNL     1      86.487  54.570  44.455  0.00  0.00    -0.049 C 
ATOM      5  C   UNL     1      85.087  54.808  45.051  0.00  0.00    -0.028 C 
ATOM      6  C   UNL     1      84.643  54.032  46.302  0.00  0.00    -0.011 C 
ATOM      7  C   UNL     1      85.592  53.033  46.937  0.00  0.00    -0.063 C 
ATOM      8  C   UNL     1      85.424  52.571  48.176  0.00  0.00    -0.073 C 
ATOM      9  C   UNL     1      86.342  51.439  48.488  0.00  0.00    -0.031 C 
ATOM     10  C   UNL     1      86.941  51.064  47.132  0.00  0.00    -0.043 C 
ATOM     11  C   UNL     1      86.694  52.290  46.237  0.00  0.00    -0.017 C 
ATOM     12  C   UNL     1      84.408  53.095  49.150  0.00  0.00    -0.044 C 
ATOM     13  C   UNL     1      84.967  55.528  46.410  0.00  0.00    -0.025 C 
ATOM     14  C   UNL     1      83.748  56.448  46.544  0.00  0.00    -0.059 C 
ATOM     15  C   UNL     1      86.232  55.967  47.175  0.00  0.00    -0.059 C 
ENDROOT
TORSDOF 0
ENDMDL
MODEL 3
REMARK VINA RESULT:    -7.207      1.477      2.219
REMARK INTER + INTRA:          -7.207
REMARK INTER:                  -7.207
REMARK INTRA:                   0.000
REMARK UNBOUND:                 0.000
REMARK  Name = 
REMARK  4 active torsions:
REMARK  status: ('A' for Active; 'I' for Inactive)
REMARK    1  A    between atoms: C_1  and  C_2
REMARK    2  A    between atoms: C_8  and  C_12
REMARK    3  A    between atoms: C_13  and  C_14
REMARK    4  A    between atoms: C_13  and  C_15
REMARK                            x       y       z     vdW  Elec       q    Type
REMARK                         _______ _______ _______ _____ _____    ______ ____
ROOT
ATOM      1  C   UNL     1      86.701  54.733  46.228  0.00  0.00    -0.062 C 
ATOM      2  C   UNL     1      85.407  53.909  46.050  0.00  0.00    -0.037 C 
ATOM      3  C   UNL     1      85.026  53.788  44.544  0.00  0.00    -0.050 C 
ATOM      4  C   UNL     1      85.323  52.430  43.878  0.00  0.00    -0.049 C 
ATOM      5  C   UNL     1      86.818  52.062  43.916  0.00  0.00    -0.028 C 
ATOM      6  C   UNL     1      87.486  51.700  45.254  0.00  0.00    -0.011 C 
ATOM      7  C   UNL     1      86.662  51.714  46.527  0.00  0.00    -0.063 C 
ATOM      8  C   UNL     1      87.063  51.114  47.647  0.00  0.00    -0.073 C 
ATOM      9  C   UNL     1      86.204  51.460  48.815  0.00  0.00    -0.031 C 
ATOM     10  C   UNL     1      85.340  52.615  48.309  0.00  0.00    -0.043 C 
ATOM     11  C   UNL     1      85.429  52.534  46.776  0.00  0.00    -0.017 C 
ATOM     12  C   UNL     1      88.262  50.215  47.750  0.00  0.00    -0.044 C 
ATOM     13  C   UNL     1      87.219  50.602  44.215  0.00  0.00    -0.025 C 
ATOM     14  C   UNL     1      88.458  50.110  43.459  0.00  0.00    -0.059 C 
ATOM     15  C   UNL     1      86.140  49.541  44.507  0.00  0.00    -0.059 C 
ENDROOT
TORSDOF 0
ENDMDL
MODEL 4
REMARK VINA RESULT:    -7.009      1.195      3.588
REMARK INTER + INTRA:          -7.009
REMARK INTER:                  -7.009
REMARK INTRA:                   0.000
REMARK UNBOUND:                 0.000
REMARK  Name = 
REMARK  4 active torsions:
REMARK  status: ('A' for Active; 'I' for Inactive)
REMARK    1  A    between atoms: C_1  and  C_2
REMARK    2  A    between atoms: C_8  and  C_12
REMARK    3  A    between atoms: C_13  and  C_14
REMARK    4  A    between atoms: C_13  and  C_15
REMARK                            x       y       z     vdW  Elec       q    Type
REMARK                         _______ _______ _______ _____ _____    ______ ____
ROOT
ATOM      1  C   UNL     1      83.702  54.729  48.080  0.00  0.00    -0.062 C 
ATOM      2  C   UNL     1      85.236  54.556  48.126  0.00  0.00    -0.037 C 
ATOM      3  C   UNL     1      85.622  53.088  48.477  0.00  0.00    -0.050 C 
ATOM      4  C   UNL     1      86.115  52.219  47.304  0.00  0.00    -0.049 C 
ATOM      5  C   UNL     1      85.063  52.072  46.188  0.00  0.00    -0.028 C 
ATOM      6  C   UNL     1      84.701  53.282  45.311  0.00  0.00    -0.011 C 
ATOM      7  C   UNL     1      85.384  54.614  45.557  0.00  0.00    -0.063 C 
ATOM      8  C   UNL     1      85.375  55.601  44.662  0.00  0.00    -0.073 C 
ATOM      9  C   UNL     1      85.906  56.877  45.220  0.00  0.00    -0.031 C 
ATOM     10  C   UNL     1      85.999  56.613  46.723  0.00  0.00    -0.043 C 
ATOM     11  C   UNL     1      85.969  55.082  46.859  0.00  0.00    -0.017 C 
ATOM     12  C   UNL     1      84.862  55.472  43.256  0.00  0.00    -0.044 C 
ATOM     13  C   UNL     1      85.524  52.131  44.717  0.00  0.00    -0.025 C 
ATOM     14  C   UNL     1      84.754  51.206  43.766  0.00  0.00    -0.059 C 
ATOM     15  C   UNL     1      87.007  52.370  44.373  0.00  0.00    -0.059 C 
ENDROOT
TORSDOF 0
ENDMDL
MODEL 5
REMARK VINA RESULT:    -6.954      1.164      3.919
REMARK INTER + INTRA:          -6.954
REMARK INTER:                  -6.954
REMARK INTRA:                   0.000
REMARK UNBOUND:                 0.000
REMARK  Name = 
REMARK  4 active torsions:
REMARK  status: ('A' for Active; 'I' for Inactive)
REMARK    1  A    between atoms: C_1  and  C_2
REMARK    2  A    between atoms: C_8  and  C_12
REMARK    3  A    between atoms: C_13  and  C_14
REMARK    4  A    between atoms: C_13  and  C_15
REMARK                            x       y       z     vdW  Elec       q    Type
REMARK                         _______ _______ _______ _____ _____    ______ ____
ROOT
ATOM      1  C   UNL     1      85.154  50.892  44.128  0.00  0.00    -0.062 C 
ATOM      2  C   UNL     1      86.437  51.751  44.137  0.00  0.00    -0.037 C 
ATOM      3  C   UNL     1      86.207  53.108  43.409  0.00  0.00    -0.050 C 
ATOM      4  C   UNL     1      86.039  54.343  44.316  0.00  0.00    -0.049 C 
ATOM      5  C   UNL     1      84.836  54.221  45.270  0.00  0.00    -0.028 C 
ATOM      6  C   UNL     1      84.875  53.212  46.430  0.00  0.00    -0.011 C 
ATOM      7  C   UNL     1      86.102  52.340  46.620  0.00  0.00    -0.063 C 
ATOM      8  C   UNL     1      86.351  51.691  47.757  0.00  0.00    -0.073 C 
ATOM      9  C   UNL     1      87.479  50.726  47.623  0.00  0.00    -0.031 C 
ATOM     10  C   UNL     1      87.734  50.662  46.116  0.00  0.00    -0.043 C 
ATOM     11  C   UNL     1      87.068  51.926  45.548  0.00  0.00    -0.017 C 
ATOM     12  C   UNL     1      85.574  51.872  49.029  0.00  0.00    -0.044 C 
ATOM     13  C   UNL     1      84.986  54.714  46.725  0.00  0.00    -0.025 C 
ATOM     14  C   UNL     1      83.725  55.353  47.318  0.00  0.00    -0.059 C 
ATOM     15  C   UNL     1      86.330  55.283  47.221  0.00  0.00    -0.059 C 
ENDROOT
TORSDOF 0
ENDMDL
MODEL 6
REMARK VINA RESULT:    -6.675      1.305      3.965
REMARK INTER + INTRA:          -6.675
REMARK INTER:                  -6.675
REMARK INTRA:                   0.000
REMARK UNBOUND:                 0.000
REMARK  Name = 
REMARK  4 active torsions:
REMARK  status: ('A' for Active; 'I' for Inactive)
REMARK    1  A    between atoms: C_1  and  C_2
REMARK    2  A    between atoms: C_8  and  C_12
REMARK    3  A    between atoms: C_13  and  C_14
REMARK    4  A    between atoms: C_13  and  C_15
REMARK                            x       y       z     vdW  Elec       q    Type
REMARK                         _______ _______ _______ _____ _____    ______ ____
ROOT
ATOM      1  C   UNL     1      85.913  49.578  45.190  0.00  0.00    -0.062 C 
ATOM      2  C   UNL     1      87.237  50.326  45.456  0.00  0.00    -0.037 C 
ATOM      3  C   UNL     1      87.799  50.950  44.144  0.00  0.00    -0.050 C 
ATOM      4  C   UNL     1      87.615  52.472  43.985  0.00  0.00    -0.049 C 
ATOM      5  C   UNL     1      86.135  52.897  43.998  0.00  0.00    -0.028 C 
ATOM      6  C   UNL     1      85.319  52.802  45.298  0.00  0.00    -0.011 C 
ATOM      7  C   UNL     1      85.983  52.284  46.560  0.00  0.00    -0.063 C 
ATOM      8  C   UNL     1      85.464  52.471  47.772  0.00  0.00    -0.073 C 
ATOM      9  C   UNL     1      86.168  51.679  48.820  0.00  0.00    -0.031 C 
ATOM     10  C   UNL     1      87.061  50.726  48.024  0.00  0.00    -0.043 C 
ATOM     11  C   UNL     1      87.159  51.352  46.623  0.00  0.00    -0.017 C 
ATOM     12  C   UNL     1      84.281  53.350  48.067  0.00  0.00    -0.044 C 
ATOM     13  C   UNL     1      85.733  54.178  44.759  0.00  0.00    -0.025 C 
ATOM     14  C   UNL     1      84.605  54.985  44.105  0.00  0.00    -0.059 C 
ATOM     15  C   UNL     1      86.792  54.995  45.525  0.00  0.00    -0.059 C 
ENDROOT
TORSDOF 0
ENDMDL
MODEL 7
REMARK VINA RESULT:    -6.649      1.498      2.216
REMARK INTER + INTRA:          -6.649
REMARK INTER:                  -6.649
REMARK INTRA:                   0.000
REMARK UNBOUND:                 0.000
REMARK  Name = 
REMARK  4 active torsions:
REMARK  status: ('A' for Active; 'I' for Inactive)
REMARK    1  A    between atoms: C_1  and  C_2
REMARK    2  A    between atoms: C_8  and  C_12
REMARK    3  A    between atoms: C_13  and  C_14
REMARK    4  A    between atoms: C_13  and  C_15
REMARK                            x       y       z     vdW  Elec       q    Type
REMARK                         _______ _______ _______ _____ _____    ______ ____
ROOT
ATOM      1  C   UNL     1      86.082  57.639  44.360  0.00  0.00    -0.062 C 
ATOM      2  C   UNL     1      84.658  57.086  44.134  0.00  0.00    -0.037 C 
ATOM      3  C   UNL     1      84.511  56.489  42.703  0.00  0.00    -0.050 C 
ATOM      4  C   UNL     1      84.526  54.951  42.607  0.00  0.00    -0.049 C 
ATOM      5  C   UNL     1      85.833  54.333  43.138  0.00  0.00    -0.028 C 
ATOM      6  C   UNL     1      86.145  54.372  44.643  0.00  0.00    -0.011 C 
ATOM      7  C   UNL     1      85.158  55.025  45.593  0.00  0.00    -0.063 C 
ATOM      8  C   UNL     1      85.187  54.821  46.909  0.00  0.00    -0.073 C 
ATOM      9  C   UNL     1      84.278  55.743  47.647  0.00  0.00    -0.031 C 
ATOM     10  C   UNL     1      83.864  56.773  46.595  0.00  0.00    -0.043 C 
ATOM     11  C   UNL     1      84.178  56.108  45.244  0.00  0.00    -0.017 C 
ATOM     12  C   UNL     1      86.057  53.805  47.595  0.00  0.00    -0.044 C 
ATOM     13  C   UNL     1      85.759  53.042  43.980  0.00  0.00    -0.025 C 
ATOM     14  C   UNL     1      86.920  52.066  43.762  0.00  0.00    -0.059 C 
ATOM     15  C   UNL     1      84.395  52.407  44.316  0.00  0.00    -0.059 C 
ENDROOT
TORSDOF 0
ENDMDL
MODEL 8
REMARK VINA RESULT:    -6.490      1.296      4.062
REMARK INTER + INTRA:          -6.490
REMARK INTER:                  -6.490
REMARK INTRA:                   0.000
REMARK UNBOUND:                 0.000
REMARK  Name = 
REMARK  4 active torsions:
REMARK  status: ('A' for Active; 'I' for Inactive)
REMARK    1  A    between atoms: C_1  and  C_2
REMARK    2  A    between atoms: C_8  and  C_12
REMARK    3  A    between atoms: C_13  and  C_14
REMARK    4  A    between atoms: C_13  and  C_15
REMARK                            x       y       z     vdW  Elec       q    Type
REMARK                         _______ _______ _______ _____ _____    ______ ____
ROOT
ATOM      1  C   UNL     1      84.305  53.045  42.774  0.00  0.00    -0.062 C 
ATOM      2  C   UNL     1      85.560  53.942  42.831  0.00  0.00    -0.037 C 
ATOM      3  C   UNL     1      85.168  55.448  42.903  0.00  0.00    -0.050 C 
ATOM      4  C   UNL     1      85.306  56.117  44.285  0.00  0.00    -0.049 C 
ATOM      5  C   UNL     1      84.429  55.450  45.360  0.00  0.00    -0.028 C 
ATOM      6  C   UNL     1      84.773  54.039  45.865  0.00  0.00    -0.011 C 
ATOM      7  C   UNL     1      85.976  53.314  45.292  0.00  0.00    -0.063 C 
ATOM      8  C   UNL     1      86.526  52.256  45.887  0.00  0.00    -0.073 C 
ATOM      9  C   UNL     1      87.538  51.583  45.024  0.00  0.00    -0.031 C 
ATOM     10  C   UNL     1      87.343  52.230  43.652  0.00  0.00    -0.043 C 
ATOM     11  C   UNL     1      86.578  53.534  43.934  0.00  0.00    -0.017 C 
ATOM     12  C   UNL     1      86.157  51.760  47.256  0.00  0.00    -0.044 C 
ATOM     13  C   UNL     1      85.008  55.251  46.777  0.00  0.00    -0.025 C 
ATOM     14  C   UNL     1      83.992  55.414  47.914  0.00  0.00    -0.059 C 
ATOM     15  C   UNL     1      86.454  55.679  47.096  0.00  0.00    -0.059 C 
ENDROOT
TORSDOF 0
ENDMDL
MODEL 9
REMARK VINA RESULT:    -6.356      4.699      7.196
REMARK INTER + INTRA:          -6.356
REMARK INTER:                  -6.356
REMARK INTRA:                   0.000
REMARK UNBOUND:                 0.000
REMARK  Name = 
REMARK  4 active torsions:
REMARK  status: ('A' for Active; 'I' for Inactive)
REMARK    1  A    between atoms: C_1  and  C_2
REMARK    2  A    between atoms: C_8  and  C_12
REMARK    3  A    between atoms: C_13  and  C_14
REMARK    4  A    between atoms: C_13  and  C_15
REMARK                            x       y       z     vdW  Elec       q    Type
REMARK                         _______ _______ _______ _____ _____    ______ ____
ROOT
ATOM      1  C   UNL     1      89.045  51.172  39.969  0.00  0.00    -0.062 C 
ATOM      2  C   UNL     1      89.623  51.388  41.385  0.00  0.00    -0.037 C 
ATOM      3  C   UNL     1      88.854  52.517  42.135  0.00  0.00    -0.050 C 
ATOM      4  C   UNL     1      87.857  52.053  43.215  0.00  0.00    -0.049 C 
ATOM      5  C   UNL     1      86.742  51.154  42.649  0.00  0.00    -0.028 C 
ATOM      6  C   UNL     1      87.075  49.733  42.161  0.00  0.00    -0.011 C 
ATOM      7  C   UNL     1      88.505  49.234  42.239  0.00  0.00    -0.063 C 
ATOM      8  C   UNL     1      88.819  47.942  42.149  0.00  0.00    -0.073 C 
ATOM      9  C   UNL     1      90.288  47.723  42.020  0.00  0.00    -0.031 C 
ATOM     10  C   UNL     1      90.848  49.121  41.760  0.00  0.00    -0.043 C 
ATOM     11  C   UNL     1      89.743  50.084  42.223  0.00  0.00    -0.017 C 
ATOM     12  C   UNL     1      87.819  46.820  42.141  0.00  0.00    -0.044 C 
ATOM     13  C   UNL     1      86.289  49.925  43.466  0.00  0.00    -0.025 C 
ATOM     14  C   UNL     1      84.792  49.610  43.373  0.00  0.00    -0.059 C 
ATOM     15  C   UNL     1      86.970  49.586  44.807  0.00  0.00    -0.059 C 
ENDROOT
TORSDOF 0
ENDMDL
