MODEL 1
REMARK VINA RESULT:    -5.115      0.000      0.000
REMARK INTER + INTRA:         -11.537
REMARK INTER:                  -9.815
REMARK INTRA:                  -1.722
REMARK UNBOUND:                -2.235
REMARK  Name = 
REMARK  15 active torsions:
REMARK  status: ('A' for Active; 'I' for Inactive)
REMARK    1  A    between atoms: C_1  and  C_2
REMARK    2  A    between atoms: C_2  and  C_3
REMARK    3  A    between atoms: C_3  and  C_4
REMARK    4  A    between atoms: C_4  and  C_5
REMARK    5  A    between atoms: C_5  and  C_6
REMARK    6  A    between atoms: C_6  and  C_7
REMARK    7  A    between atoms: C_7  and  C_8
REMARK    8  A    between atoms: C_8  and  C_9
REMARK    9  A    between atoms: C_9  and  C_10
REMARK   10  A    between atoms: C_10  and  C_11
REMARK   11  A    between atoms: C_11  and  C_12
REMARK   12  A    between atoms: C_12  and  C_13
REMARK   13  A    between atoms: C_13  and  C_14
REMARK   14  A    between atoms: C_14  and  C_15
REMARK   15  A    between atoms: C_15  and  C_16
REMARK                            x       y       z     vdW  Elec       q    Type
REMARK                         _______ _______ _______ _____ _____    ______ ____
ROOT
ATOM      1  C   UNL     1      84.823  52.887  48.893  0.00  0.00    -0.053 C 
ENDROOT
BRANCH   1   2
ATOM      2  C   UNL     1      86.070  52.442  48.106  0.00  0.00    -0.053 C 
BRANCH   2   3
ATOM      3  C   UNL     1      86.644  51.084  48.568  0.00  0.00    -0.053 C 
BRANCH   3   4
ATOM      4  C   UNL     1      87.595  50.464  47.530  0.00  0.00    -0.053 C 
BRANCH   4   5
ATOM      5  C   UNL     1      86.860  49.981  46.270  0.00  0.00    -0.053 C 
BRANCH   5   6
ATOM      6  C   UNL     1      87.555  50.426  44.974  0.00  0.00    -0.053 C 
BRANCH   6   7
ATOM      7  C   UNL     1      86.563  51.110  44.025  0.00  0.00    -0.053 C 
BRANCH   7   9
ATOM      8  C   UNL     1      84.714  52.700  44.672  0.00  0.00    -0.065 C 
ATOM      9  C   UNL     1      85.184  51.248  44.680  0.00  0.00    -0.056 C 
ENDBRANCH   7   9
ENDBRANCH   6   7
ENDBRANCH   5   6
ENDBRANCH   4   5
ENDBRANCH   3   4
ENDBRANCH   2   3
ENDBRANCH   1   2
BRANCH   1  10
ATOM     10  C   UNL     1      83.792  53.685  48.073  0.00  0.00    -0.053 C 
BRANCH  10  11
ATOM     11  C   UNL     1      83.612  55.156  48.500  0.00  0.00    -0.053 C 
BRANCH  11  12
ATOM     12  C   UNL     1      84.120  56.198  47.489  0.00  0.00    -0.053 C 
BRANCH  12  13
ATOM     13  C   UNL     1      85.625  56.074  47.206  0.00  0.00    -0.053 C 
BRANCH  13  14
ATOM     14  C   UNL     1      85.931  56.353  45.727  0.00  0.00    -0.043 C 
BRANCH  14  15
ATOM     15  C   UNL     1      84.654  56.521  44.893  0.00  0.00    +0.045 C 
BRANCH  15  16
ATOM     16  C   UNL     1      84.939  57.145  43.562  0.00  0.00    +0.305 C 
ATOM     17  O   UNL     1      85.484  58.280  43.499  0.00  0.00    -0.251 OA
ATOM     18  O   UNL     1      84.632  56.457  42.392  0.00  0.00    -0.481 OA
ENDBRANCH  15  16
ENDBRANCH  14  15
ENDBRANCH  13  14
ENDBRANCH  12  13
ENDBRANCH  11  12
ENDBRANCH  10  11
ENDBRANCH   1  10
TORSDOF 14
ENDMDL
MODEL 2
REMARK VINA RESULT:    -5.012      1.388      2.273
REMARK INTER + INTRA:         -11.350
REMARK INTER:                  -9.255
REMARK INTRA:                  -2.095
REMARK UNBOUND:                -2.235
REMARK  Name = 
REMARK  15 active torsions:
REMARK  status: ('A' for Active; 'I' for Inactive)
REMARK    1  A    between atoms: C_1  and  C_2
REMARK    2  A    between atoms: C_2  and  C_3
REMARK    3  A    between atoms: C_3  and  C_4
REMARK    4  A    between atoms: C_4  and  C_5
REMARK    5  A    between atoms: C_5  and  C_6
REMARK    6  A    between atoms: C_6  and  C_7
REMARK    7  A    between atoms: C_7  and  C_8
REMARK    8  A    between atoms: C_8  and  C_9
REMARK    9  A    between atoms: C_9  and  C_10
REMARK   10  A    between atoms: C_10  and  C_11
REMARK   11  A    between atoms: C_11  and  C_12
REMARK   12  A    between atoms: C_12  and  C_13
REMARK   13  A    between atoms: C_13  and  C_14
REMARK   14  A    between atoms: C_14  and  C_15
REMARK   15  A    between atoms: C_15  and  C_16
REMARK                            x       y       z     vdW  Elec       q    Type
REMARK                         _______ _______ _______ _____ _____    ______ ____
ROOT
ATOM      1  C   UNL     1      84.335  54.345  48.469  0.00  0.00    -0.053 C 
ENDROOT
BRANCH   1   2
ATOM      2  C   UNL     1      85.577  53.689  49.101  0.00  0.00    -0.053 C 
BRANCH   2   3
ATOM      3  C   UNL     1      85.721  52.187  48.772  0.00  0.00    -0.053 C 
BRANCH   3   4
ATOM      4  C   UNL     1      85.618  51.901  47.264  0.00  0.00    -0.053 C 
BRANCH   4   5
ATOM      5  C   UNL     1      86.801  51.074  46.737  0.00  0.00    -0.053 C 
BRANCH   5   6
ATOM      6  C   UNL     1      87.593  51.807  45.644  0.00  0.00    -0.053 C 
BRANCH   6   7
ATOM      7  C   UNL     1      86.981  51.555  44.260  0.00  0.00    -0.053 C 
BRANCH   7   9
ATOM      8  C   UNL     1      87.631  52.968  42.274  0.00  0.00    -0.065 C 
ATOM      9  C   UNL     1      88.016  51.782  43.152  0.00  0.00    -0.056 C 
ENDBRANCH   7   9
ENDBRANCH   6   7
ENDBRANCH   5   6
ENDBRANCH   4   5
ENDBRANCH   3   4
ENDBRANCH   2   3
ENDBRANCH   1   2
BRANCH   1  10
ATOM     10  C   UNL     1      84.633  55.553  47.561  0.00  0.00    -0.053 C 
BRANCH  10  11
ATOM     11  C   UNL     1      86.128  55.803  47.274  0.00  0.00    -0.053 C 
BRANCH  11  12
ATOM     12  C   UNL     1      86.608  55.374  45.877  0.00  0.00    -0.053 C 
BRANCH  12  13
ATOM     13  C   UNL     1      85.463  54.889  44.973  0.00  0.00    -0.053 C 
BRANCH  13  14
ATOM     14  C   UNL     1      85.443  55.665  43.648  0.00  0.00    -0.043 C 
BRANCH  14  15
ATOM     15  C   UNL     1      84.440  56.825  43.670  0.00  0.00    +0.045 C 
BRANCH  15  16
ATOM     16  C   UNL     1      85.010  58.040  44.332  0.00  0.00    +0.305 C 
ATOM     17  O   UNL     1      84.537  58.443  45.430  0.00  0.00    -0.251 OA
ATOM     18  O   UNL     1      86.086  58.707  43.754  0.00  0.00    -0.481 OA
ENDBRANCH  15  16
ENDBRANCH  14  15
ENDBRANCH  13  14
ENDBRANCH  12  13
ENDBRANCH  11  12
ENDBRANCH  10  11
ENDBRANCH   1  10
TORSDOF 14
ENDMDL
MODEL 3
REMARK VINA RESULT:    -4.987      2.145      3.305
REMARK INTER + INTRA:         -11.304
REMARK INTER:                 -10.145
REMARK INTRA:                  -1.160
REMARK UNBOUND:                -2.235
REMARK  Name = 
REMARK  15 active torsions:
REMARK  status: ('A' for Active; 'I' for Inactive)
REMARK    1  A    between atoms: C_1  and  C_2
REMARK    2  A    between atoms: C_2  and  C_3
REMARK    3  A    between atoms: C_3  and  C_4
REMARK    4  A    between atoms: C_4  and  C_5
REMARK    5  A    between atoms: C_5  and  C_6
REMARK    6  A    between atoms: C_6  and  C_7
REMARK    7  A    between atoms: C_7  and  C_8
REMARK    8  A    between atoms: C_8  and  C_9
REMARK    9  A    between atoms: C_9  and  C_10
REMARK   10  A    between atoms: C_10  and  C_11
REMARK   11  A    between atoms: C_11  and  C_12
REMARK   12  A    between atoms: C_12  and  C_13
REMARK   13  A    between atoms: C_13  and  C_14
REMARK   14  A    between atoms: C_14  and  C_15
REMARK   15  A    between atoms: C_15  and  C_16
REMARK                            x       y       z     vdW  Elec       q    Type
REMARK                         _______ _______ _______ _____ _____    ______ ____
ROOT
ATOM      1  C   UNL     1      86.233  51.934  47.689  0.00  0.00    -0.053 C 
ENDROOT
BRANCH   1   2
ATOM      2  C   UNL     1      87.222  51.904  46.508  0.00  0.00    -0.053 C 
BRANCH   2   3
ATOM      3  C   UNL     1      86.538  51.955  45.124  0.00  0.00    -0.053 C 
BRANCH   3   4
ATOM      4  C   UNL     1      87.531  51.739  43.968  0.00  0.00    -0.053 C 
BRANCH   4   5
ATOM      5  C   UNL     1      88.193  50.353  44.010  0.00  0.00    -0.053 C 
BRANCH   5   6
ATOM      6  C   UNL     1      88.422  49.766  42.609  0.00  0.00    -0.053 C 
BRANCH   6   7
ATOM      7  C   UNL     1      89.865  50.001  42.144  0.00  0.00    -0.053 C 
BRANCH   7   9
ATOM      8  C   UNL     1      91.215  48.495  43.652  0.00  0.00    -0.065 C 
ATOM      9  C   UNL     1      90.689  48.712  42.237  0.00  0.00    -0.056 C 
ENDBRANCH   7   9
ENDBRANCH   6   7
ENDBRANCH   5   6
ENDBRANCH   4   5
ENDBRANCH   3   4
ENDBRANCH   2   3
ENDBRANCH   1   2
BRANCH   1  10
ATOM     10  C   UNL     1      85.178  53.054  47.619  0.00  0.00    -0.053 C 
BRANCH  10  11
ATOM     11  C   UNL     1      85.620  54.408  48.209  0.00  0.00    -0.053 C 
BRANCH  11  12
ATOM     12  C   UNL     1      85.629  55.584  47.217  0.00  0.00    -0.053 C 
BRANCH  12  13
ATOM     13  C   UNL     1      86.790  55.510  46.213  0.00  0.00    -0.053 C 
BRANCH  13  14
ATOM     14  C   UNL     1      86.328  55.926  44.808  0.00  0.00    -0.043 C 
BRANCH  14  15
ATOM     15  C   UNL     1      84.952  56.604  44.827  0.00  0.00    +0.045 C 
BRANCH  15  16
ATOM     16  C   UNL     1      85.057  58.079  44.593  0.00  0.00    +0.305 C 
ATOM     17  O   UNL     1      84.456  58.884  45.355  0.00  0.00    -0.251 OA
ATOM     18  O   UNL     1      85.845  58.564  43.554  0.00  0.00    -0.481 OA
ENDBRANCH  15  16
ENDBRANCH  14  15
ENDBRANCH  13  14
ENDBRANCH  12  13
ENDBRANCH  11  12
ENDBRANCH  10  11
ENDBRANCH   1  10
TORSDOF 14
ENDMDL
MODEL 4
REMARK VINA RESULT:    -4.946      2.316      4.613
REMARK INTER + INTRA:         -11.229
REMARK INTER:                  -9.701
REMARK INTRA:                  -1.528
REMARK UNBOUND:                -2.235
REMARK  Name = 
REMARK  15 active torsions:
REMARK  status: ('A' for Active; 'I' for Inactive)
REMARK    1  A    between atoms: C_1  and  C_2
REMARK    2  A    between atoms: C_2  and  C_3
REMARK    3  A    between atoms: C_3  and  C_4
REMARK    4  A    between atoms: C_4  and  C_5
REMARK    5  A    between atoms: C_5  and  C_6
REMARK    6  A    between atoms: C_6  and  C_7
REMARK    7  A    between atoms: C_7  and  C_8
REMARK    8  A    between atoms: C_8  and  C_9
REMARK    9  A    between atoms: C_9  and  C_10
REMARK   10  A    between atoms: C_10  and  C_11
REMARK   11  A    between atoms: C_11  and  C_12
REMARK   12  A    between atoms: C_12  and  C_13
REMARK   13  A    between atoms: C_13  and  C_14
REMARK   14  A    between atoms: C_14  and  C_15
REMARK   15  A    between atoms: C_15  and  C_16
REMARK                            x       y       z     vdW  Elec       q    Type
REMARK                         _______ _______ _______ _____ _____    ______ ____
ROOT
ATOM      1  C   UNL     1      85.535  56.659  46.386  0.00  0.00    -0.053 C 
ENDROOT
BRANCH   1   2
ATOM      2  C   UNL     1      84.133  56.246  46.873  0.00  0.00    -0.053 C 
BRANCH   2   3
ATOM      3  C   UNL     1      84.120  55.656  48.300  0.00  0.00    -0.053 C 
BRANCH   3   4
ATOM      4  C   UNL     1      83.155  54.465  48.436  0.00  0.00    -0.053 C 
BRANCH   4   5
ATOM      5  C   UNL     1      83.888  53.116  48.509  0.00  0.00    -0.053 C 
BRANCH   5   6
ATOM      6  C   UNL     1      85.380  53.273  48.844  0.00  0.00    -0.053 C 
BRANCH   6   7
ATOM      7  C   UNL     1      86.036  51.908  49.082  0.00  0.00    -0.053 C 
BRANCH   7   9
ATOM      8  C   UNL     1      87.696  50.312  48.052  0.00  0.00    -0.065 C 
ATOM      9  C   UNL     1      86.595  51.331  47.777  0.00  0.00    -0.056 C 
ENDBRANCH   7   9
ENDBRANCH   6   7
ENDBRANCH   5   6
ENDBRANCH   4   5
ENDBRANCH   3   4
ENDBRANCH   2   3
ENDBRANCH   1   2
BRANCH   1  10
ATOM     10  C   UNL     1      86.528  55.494  46.214  0.00  0.00    -0.053 C 
BRANCH  10  11
ATOM     11  C   UNL     1      85.953  54.239  45.527  0.00  0.00    -0.053 C 
BRANCH  11  12
ATOM     12  C   UNL     1      86.389  54.034  44.065  0.00  0.00    -0.053 C 
BRANCH  12  13
ATOM     13  C   UNL     1      86.058  55.237  43.168  0.00  0.00    -0.053 C 
BRANCH  13  14
ATOM     14  C   UNL     1      84.554  55.301  42.867  0.00  0.00    -0.043 C 
BRANCH  14  15
ATOM     15  C   UNL     1      84.265  55.329  41.361  0.00  0.00    +0.045 C 
BRANCH  15  16
ATOM     16  C   UNL     1      84.516  53.998  40.721  0.00  0.00    +0.305 C 
ATOM     17  O   UNL     1      83.742  53.030  40.951  0.00  0.00    -0.251 OA
ATOM     18  O   UNL     1      85.586  53.839  39.846  0.00  0.00    -0.481 OA
ENDBRANCH  15  16
ENDBRANCH  14  15
ENDBRANCH  13  14
ENDBRANCH  12  13
ENDBRANCH  11  12
ENDBRANCH  10  11
ENDBRANCH   1  10
TORSDOF 14
ENDMDL
MODEL 5
REMARK VINA RESULT:    -4.938      6.301      8.361
REMARK INTER + INTRA:         -11.215
REMARK INTER:                  -9.844
REMARK INTRA:                  -1.371
REMARK UNBOUND:                -2.235
REMARK  Name = 
REMARK  15 active torsions:
REMARK  status: ('A' for Active; 'I' for Inactive)
REMARK    1  A    between atoms: C_1  and  C_2
REMARK    2  A    between atoms: C_2  and  C_3
REMARK    3  A    between atoms: C_3  and  C_4
REMARK    4  A    between atoms: C_4  and  C_5
REMARK    5  A    between atoms: C_5  and  C_6
REMARK    6  A    between atoms: C_6  and  C_7
REMARK    7  A    between atoms: C_7  and  C_8
REMARK    8  A    between atoms: C_8  and  C_9
REMARK    9  A    between atoms: C_9  and  C_10
REMARK   10  A    between atoms: C_10  and  C_11
REMARK   11  A    between atoms: C_11  and  C_12
REMARK   12  A    between atoms: C_12  and  C_13
REMARK   13  A    between atoms: C_13  and  C_14
REMARK   14  A    between atoms: C_14  and  C_15
REMARK   15  A    between atoms: C_15  and  C_16
REMARK                            x       y       z     vdW  Elec       q    Type
REMARK                         _______ _______ _______ _____ _____    ______ ____
ROOT
ATOM      1  C   UNL     1      89.280  46.457  42.167  0.00  0.00    -0.053 C 
ENDROOT
BRANCH   1   2
ATOM      2  C   UNL     1      87.816  46.903  41.995  0.00  0.00    -0.053 C 
BRANCH   2   3
ATOM      3  C   UNL     1      87.005  46.894  43.310  0.00  0.00    -0.053 C 
BRANCH   3   4
ATOM      4  C   UNL     1      85.512  46.603  43.079  0.00  0.00    -0.053 C 
BRANCH   4   5
ATOM      5  C   UNL     1      85.178  45.107  43.187  0.00  0.00    -0.053 C 
BRANCH   5   6
ATOM      6  C   UNL     1      86.307  44.297  43.843  0.00  0.00    -0.053 C 
BRANCH   6   7
ATOM      7  C   UNL     1      87.006  43.397  42.816  0.00  0.00    -0.053 C 
BRANCH   7   9
ATOM      8  C   UNL     1      88.399  42.947  44.871  0.00  0.00    -0.065 C 
ATOM      9  C   UNL     1      88.357  42.904  43.347  0.00  0.00    -0.056 C 
ENDBRANCH   7   9
ENDBRANCH   6   7
ENDBRANCH   5   6
ENDBRANCH   4   5
ENDBRANCH   3   4
ENDBRANCH   2   3
ENDBRANCH   1   2
BRANCH   1  10
ATOM     10  C   UNL     1      90.227  47.542  42.711  0.00  0.00    -0.053 C 
BRANCH  10  11
ATOM     11  C   UNL     1      90.475  48.731  41.761  0.00  0.00    -0.053 C 
BRANCH  11  12
ATOM     12  C   UNL     1      90.223  50.121  42.371  0.00  0.00    -0.053 C 
BRANCH  12  13
ATOM     13  C   UNL     1      88.733  50.404  42.620  0.00  0.00    -0.053 C 
BRANCH  13  14
ATOM     14  C   UNL     1      88.340  51.789  42.086  0.00  0.00    -0.043 C 
BRANCH  14  15
ATOM     15  C   UNL     1      89.493  52.471  41.340  0.00  0.00    +0.045 C 
BRANCH  15  16
ATOM     16  C   UNL     1      89.259  52.500  39.861  0.00  0.00    +0.305 C 
ATOM     17  O   UNL     1      88.776  51.491  39.278  0.00  0.00    -0.251 OA
ATOM     18  O   UNL     1      89.542  53.652  39.134  0.00  0.00    -0.481 OA
ENDBRANCH  15  16
ENDBRANCH  14  15
ENDBRANCH  13  14
ENDBRANCH  12  13
ENDBRANCH  11  12
ENDBRANCH  10  11
ENDBRANCH   1  10
TORSDOF 14
ENDMDL
MODEL 6
REMARK VINA RESULT:    -4.938      2.611      5.509
REMARK INTER + INTRA:         -11.215
REMARK INTER:                  -9.741
REMARK INTRA:                  -1.474
REMARK UNBOUND:                -2.235
REMARK  Name = 
REMARK  15 active torsions:
REMARK  status: ('A' for Active; 'I' for Inactive)
REMARK    1  A    between atoms: C_1  and  C_2
REMARK    2  A    between atoms: C_2  and  C_3
REMARK    3  A    between atoms: C_3  and  C_4
REMARK    4  A    between atoms: C_4  and  C_5
REMARK    5  A    between atoms: C_5  and  C_6
REMARK    6  A    between atoms: C_6  and  C_7
REMARK    7  A    between atoms: C_7  and  C_8
REMARK    8  A    between atoms: C_8  and  C_9
REMARK    9  A    between atoms: C_9  and  C_10
REMARK   10  A    between atoms: C_10  and  C_11
REMARK   11  A    between atoms: C_11  and  C_12
REMARK   12  A    between atoms: C_12  and  C_13
REMARK   13  A    between atoms: C_13  and  C_14
REMARK   14  A    between atoms: C_14  and  C_15
REMARK   15  A    between atoms: C_15  and  C_16
REMARK                            x       y       z     vdW  Elec       q    Type
REMARK                         _______ _______ _______ _____ _____    ______ ____
ROOT
ATOM      1  C   UNL     1      85.969  51.831  47.871  0.00  0.00    -0.053 C 
ENDROOT
BRANCH   1   2
ATOM      2  C   UNL     1      85.641  53.033  48.777  0.00  0.00    -0.053 C 
BRANCH   2   3
ATOM      3  C   UNL     1      84.151  53.440  48.754  0.00  0.00    -0.053 C 
BRANCH   3   4
ATOM      4  C   UNL     1      83.958  54.966  48.729  0.00  0.00    -0.053 C 
BRANCH   4   5
ATOM      5  C   UNL     1      83.693  55.504  47.315  0.00  0.00    -0.053 C 
BRANCH   5   6
ATOM      6  C   UNL     1      84.646  56.647  46.931  0.00  0.00    -0.053 C 
BRANCH   6   7
ATOM      7  C   UNL     1      86.101  56.277  47.243  0.00  0.00    -0.053 C 
BRANCH   7   9
ATOM      8  C   UNL     1      86.530  56.261  44.757  0.00  0.00    -0.065 C 
ATOM      9  C   UNL     1      86.739  55.519  46.073  0.00  0.00    -0.056 C 
ENDBRANCH   7   9
ENDBRANCH   6   7
ENDBRANCH   5   6
ENDBRANCH   4   5
ENDBRANCH   3   4
ENDBRANCH   2   3
ENDBRANCH   1   2
BRANCH   1  10
ATOM     10  C   UNL     1      86.211  52.184  46.392  0.00  0.00    -0.053 C 
BRANCH  10  11
ATOM     11  C   UNL     1      87.608  51.817  45.851  0.00  0.00    -0.053 C 
BRANCH  11  12
ATOM     12  C   UNL     1      87.622  51.176  44.452  0.00  0.00    -0.053 C 
BRANCH  12  13
ATOM     13  C   UNL     1      86.817  51.978  43.418  0.00  0.00    -0.053 C 
BRANCH  13  14
ATOM     14  C   UNL     1      87.708  53.007  42.707  0.00  0.00    -0.043 C 
BRANCH  14  15
ATOM     15  C   UNL     1      88.661  52.351  41.699  0.00  0.00    +0.045 C 
BRANCH  15  16
ATOM     16  C   UNL     1      88.085  52.338  40.317  0.00  0.00    +0.305 C 
ATOM     17  O   UNL     1      87.078  53.047  40.044  0.00  0.00    -0.251 OA
ATOM     18  O   UNL     1      88.683  51.570  39.323  0.00  0.00    -0.481 OA
ENDBRANCH  15  16
ENDBRANCH  14  15
ENDBRANCH  13  14
ENDBRANCH  12  13
ENDBRANCH  11  12
ENDBRANCH  10  11
ENDBRANCH   1  10
TORSDOF 14
ENDMDL
MODEL 7
REMARK VINA RESULT:    -4.897      2.290      4.972
REMARK INTER + INTRA:         -11.141
REMARK INTER:                  -9.959
REMARK INTRA:                  -1.181
REMARK UNBOUND:                -2.235
REMARK  Name = 
REMARK  15 active torsions:
REMARK  status: ('A' for Active; 'I' for Inactive)
REMARK    1  A    between atoms: C_1  and  C_2
REMARK    2  A    between atoms: C_2  and  C_3
REMARK    3  A    between atoms: C_3  and  C_4
REMARK    4  A    between atoms: C_4  and  C_5
REMARK    5  A    between atoms: C_5  and  C_6
REMARK    6  A    between atoms: C_6  and  C_7
REMARK    7  A    between atoms: C_7  and  C_8
REMARK    8  A    between atoms: C_8  and  C_9
REMARK    9  A    between atoms: C_9  and  C_10
REMARK   10  A    between atoms: C_10  and  C_11
REMARK   11  A    between atoms: C_11  and  C_12
REMARK   12  A    between atoms: C_12  and  C_13
REMARK   13  A    between atoms: C_13  and  C_14
REMARK   14  A    between atoms: C_14  and  C_15
REMARK   15  A    between atoms: C_15  and  C_16
REMARK                            x       y       z     vdW  Elec       q    Type
REMARK                         _______ _______ _______ _____ _____    ______ ____
ROOT
ATOM      1  C   UNL     1      84.740  58.205  46.121  0.00  0.00    -0.053 C 
ENDROOT
BRANCH   1   2
ATOM      2  C   UNL     1      84.923  56.906  46.927  0.00  0.00    -0.053 C 
BRANCH   2   3
ATOM      3  C   UNL     1      83.592  56.232  47.330  0.00  0.00    -0.053 C 
BRANCH   3   4
ATOM      4  C   UNL     1      83.729  55.370  48.597  0.00  0.00    -0.053 C 
BRANCH   4   5
ATOM      5  C   UNL     1      83.398  53.891  48.343  0.00  0.00    -0.053 C 
BRANCH   5   6
ATOM      6  C   UNL     1      84.491  52.944  48.864  0.00  0.00    -0.053 C 
BRANCH   6   7
ATOM      7  C   UNL     1      85.862  53.319  48.287  0.00  0.00    -0.053 C 
BRANCH   7   9
ATOM      8  C   UNL     1      87.090  52.087  46.460  0.00  0.00    -0.065 C 
ATOM      9  C   UNL     1      85.927  53.018  46.785  0.00  0.00    -0.056 C 
ENDBRANCH   7   9
ENDBRANCH   6   7
ENDBRANCH   5   6
ENDBRANCH   4   5
ENDBRANCH   3   4
ENDBRANCH   2   3
ENDBRANCH   1   2
BRANCH   1  10
ATOM     10  C   UNL     1      85.276  58.151  44.678  0.00  0.00    -0.053 C 
BRANCH  10  11
ATOM     11  C   UNL     1      85.248  56.756  44.021  0.00  0.00    -0.053 C 
BRANCH  11  12
ATOM     12  C   UNL     1      84.002  56.460  43.167  0.00  0.00    -0.053 C 
BRANCH  12  13
ATOM     13  C   UNL     1      83.832  54.965  42.855  0.00  0.00    -0.053 C 
BRANCH  13  14
ATOM     14  C   UNL     1      84.974  54.456  41.963  0.00  0.00    -0.043 C 
BRANCH  14  15
ATOM     15  C   UNL     1      84.477  54.015  40.580  0.00  0.00    +0.045 C 
BRANCH  15  16
ATOM     16  C   UNL     1      84.051  55.183  39.745  0.00  0.00    +0.305 C 
ATOM     17  O   UNL     1      82.830  55.362  39.485  0.00  0.00    -0.251 OA
ATOM     18  O   UNL     1      84.999  56.089  39.282  0.00  0.00    -0.481 OA
ENDBRANCH  15  16
ENDBRANCH  14  15
ENDBRANCH  13  14
ENDBRANCH  12  13
ENDBRANCH  11  12
ENDBRANCH  10  11
ENDBRANCH   1  10
TORSDOF 14
ENDMDL
MODEL 8
REMARK VINA RESULT:    -4.798      2.401      4.435
REMARK INTER + INTRA:         -10.960
REMARK INTER:                  -9.539
REMARK INTRA:                  -1.421
REMARK UNBOUND:                -2.235
REMARK  Name = 
REMARK  15 active torsions:
REMARK  status: ('A' for Active; 'I' for Inactive)
REMARK    1  A    between atoms: C_1  and  C_2
REMARK    2  A    between atoms: C_2  and  C_3
REMARK    3  A    between atoms: C_3  and  C_4
REMARK    4  A    between atoms: C_4  and  C_5
REMARK    5  A    between atoms: C_5  and  C_6
REMARK    6  A    between atoms: C_6  and  C_7
REMARK    7  A    between atoms: C_7  and  C_8
REMARK    8  A    between atoms: C_8  and  C_9
REMARK    9  A    between atoms: C_9  and  C_10
REMARK   10  A    between atoms: C_10  and  C_11
REMARK   11  A    between atoms: C_11  and  C_12
REMARK   12  A    between atoms: C_12  and  C_13
REMARK   13  A    between atoms: C_13  and  C_14
REMARK   14  A    between atoms: C_14  and  C_15
REMARK   15  A    between atoms: C_15  and  C_16
REMARK                            x       y       z     vdW  Elec       q    Type
REMARK                         _______ _______ _______ _____ _____    ______ ____
ROOT
ATOM      1  C   UNL     1      85.991  56.878  45.445  0.00  0.00    -0.053 C 
ENDROOT
BRANCH   1   2
ATOM      2  C   UNL     1      85.442  56.227  46.728  0.00  0.00    -0.053 C 
BRANCH   2   3
ATOM      3  C   UNL     1      86.029  54.827  47.015  0.00  0.00    -0.053 C 
BRANCH   3   4
ATOM      4  C   UNL     1      84.970  53.715  46.924  0.00  0.00    -0.053 C 
BRANCH   4   5
ATOM      5  C   UNL     1      85.438  52.522  46.076  0.00  0.00    -0.053 C 
BRANCH   5   6
ATOM      6  C   UNL     1      86.968  52.450  45.953  0.00  0.00    -0.053 C 
BRANCH   6   7
ATOM      7  C   UNL     1      87.453  50.995  45.984  0.00  0.00    -0.053 C 
BRANCH   7   9
ATOM      8  C   UNL     1      88.425  50.058  48.115  0.00  0.00    -0.065 C 
ATOM      9  C   UNL     1      87.144  50.342  47.336  0.00  0.00    -0.056 C 
ENDBRANCH   7   9
ENDBRANCH   6   7
ENDBRANCH   5   6
ENDBRANCH   4   5
ENDBRANCH   3   4
ENDBRANCH   2   3
ENDBRANCH   1   2
BRANCH   1  10
ATOM     10  C   UNL     1      84.937  57.603  44.587  0.00  0.00    -0.053 C 
BRANCH  10  11
ATOM     11  C   UNL     1      84.234  56.724  43.532  0.00  0.00    -0.053 C 
BRANCH  11  12
ATOM     12  C   UNL     1      84.991  55.444  43.136  0.00  0.00    -0.053 C 
BRANCH  12  13
ATOM     13  C   UNL     1      84.074  54.215  43.030  0.00  0.00    -0.053 C 
BRANCH  13  14
ATOM     14  C   UNL     1      83.218  54.277  41.756  0.00  0.00    -0.043 C 
BRANCH  14  15
ATOM     15  C   UNL     1      84.062  54.139  40.483  0.00  0.00    +0.045 C 
BRANCH  15  16
ATOM     16  C   UNL     1      83.943  55.344  39.603  0.00  0.00    +0.305 C 
ATOM     17  O   UNL     1      84.963  56.037  39.338  0.00  0.00    -0.251 OA
ATOM     18  O   UNL     1      82.711  55.683  39.051  0.00  0.00    -0.481 OA
ENDBRANCH  15  16
ENDBRANCH  14  15
ENDBRANCH  13  14
ENDBRANCH  12  13
ENDBRANCH  11  12
ENDBRANCH  10  11
ENDBRANCH   1  10
TORSDOF 14
ENDMDL
MODEL 9
REMARK VINA RESULT:    -4.789      2.596      5.665
REMARK INTER + INTRA:         -10.944
REMARK INTER:                  -8.709
REMARK INTRA:                  -2.235
REMARK UNBOUND:                -2.235
REMARK  Name = 
REMARK  15 active torsions:
REMARK  status: ('A' for Active; 'I' for Inactive)
REMARK    1  A    between atoms: C_1  and  C_2
REMARK    2  A    between atoms: C_2  and  C_3
REMARK    3  A    between atoms: C_3  and  C_4
REMARK    4  A    between atoms: C_4  and  C_5
REMARK    5  A    between atoms: C_5  and  C_6
REMARK    6  A    between atoms: C_6  and  C_7
REMARK    7  A    between atoms: C_7  and  C_8
REMARK    8  A    between atoms: C_8  and  C_9
REMARK    9  A    between atoms: C_9  and  C_10
REMARK   10  A    between atoms: C_10  and  C_11
REMARK   11  A    between atoms: C_11  and  C_12
REMARK   12  A    between atoms: C_12  and  C_13
REMARK   13  A    between atoms: C_13  and  C_14
REMARK   14  A    between atoms: C_14  and  C_15
REMARK   15  A    between atoms: C_15  and  C_16
REMARK                            x       y       z     vdW  Elec       q    Type
REMARK                         _______ _______ _______ _____ _____    ______ ____
ROOT
ATOM      1  C   UNL     1      84.250  51.414  44.070  0.00  0.00    -0.053 C 
ENDROOT
BRANCH   1   2
ATOM      2  C   UNL     1      84.481  52.298  45.310  0.00  0.00    -0.053 C 
BRANCH   2   3
ATOM      3  C   UNL     1      85.719  53.214  45.198  0.00  0.00    -0.053 C 
BRANCH   3   4
ATOM      4  C   UNL     1      86.573  53.209  46.479  0.00  0.00    -0.053 C 
BRANCH   4   5
ATOM      5  C   UNL     1      86.280  51.998  47.378  0.00  0.00    -0.053 C 
BRANCH   5   6
ATOM      6  C   UNL     1      85.717  52.405  48.749  0.00  0.00    -0.053 C 
BRANCH   6   7
ATOM      7  C   UNL     1      85.395  53.904  48.788  0.00  0.00    -0.053 C 
BRANCH   7   9
ATOM      8  C   UNL     1      83.512  55.444  48.120  0.00  0.00    -0.065 C 
ATOM      9  C   UNL     1      83.881  54.140  48.820  0.00  0.00    -0.056 C 
ENDBRANCH   7   9
ENDBRANCH   6   7
ENDBRANCH   5   6
ENDBRANCH   4   5
ENDBRANCH   3   4
ENDBRANCH   2   3
ENDBRANCH   1   2
BRANCH   1  10
ATOM     10  C   UNL     1      84.083  49.912  44.369  0.00  0.00    -0.053 C 
BRANCH  10  11
ATOM     11  C   UNL     1      85.328  49.046  44.091  0.00  0.00    -0.053 C 
BRANCH  11  12
ATOM     12  C   UNL     1      86.400  49.065  45.195  0.00  0.00    -0.053 C 
BRANCH  12  13
ATOM     13  C   UNL     1      87.673  49.818  44.780  0.00  0.00    -0.053 C 
BRANCH  13  14
ATOM     14  C   UNL     1      87.689  50.079  43.267  0.00  0.00    -0.043 C 
BRANCH  14  15
ATOM     15  C   UNL     1      88.011  51.541  42.934  0.00  0.00    +0.045 C 
BRANCH  15  16
ATOM     16  C   UNL     1      87.710  51.865  41.504  0.00  0.00    +0.305 C 
ATOM     17  O   UNL     1      87.277  53.007  41.191  0.00  0.00    -0.251 OA
ATOM     18  O   UNL     1      87.942  50.916  40.513  0.00  0.00    -0.481 OA
ENDBRANCH  15  16
ENDBRANCH  14  15
ENDBRANCH  13  14
ENDBRANCH  12  13
ENDBRANCH  11  12
ENDBRANCH  10  11
ENDBRANCH   1  10
TORSDOF 14
ENDMDL
