MODEL 1
REMARK VINA RESULT:    -6.785      0.000      0.000
REMARK INTER + INTRA:          -7.555
REMARK INTER:                  -7.370
REMARK INTRA:                  -0.185
REMARK UNBOUND:                -0.174
REMARK  Name = 
REMARK  5 active torsions:
REMARK  status: ('A' for Active; 'I' for Inactive)
REMARK    1  A    between atoms: C_1  and  C_2
REMARK    2  A    between atoms: C_2  and  C_4
REMARK    3  A    between atoms: C_7  and  C_16
REMARK    4  A    between atoms: C_10  and  C_11
REMARK    5  A    between atoms: C_10  and  O_12
REMARK                            x       y       z     vdW  Elec       q    Type
REMARK                         _______ _______ _______ _____ _____    ______ ____
ROOT
ATOM      1  C   UNL     1      85.013  53.784  43.199  0.00  0.00    -0.020 C 
ATOM      2  C   UNL     1      84.091  52.658  43.710  0.00  0.00    -0.046 C 
ATOM      3  C   UNL     1      84.508  52.119  45.099  0.00  0.00    -0.047 C 
ATOM      4  C   UNL     1      85.234  53.168  46.016  0.00  0.00    -0.027 C 
ATOM      5  C   UNL     1      84.723  54.604  45.650  0.00  0.00    -0.006 C 
ATOM      6  C   UNL     1      85.106  54.980  44.189  0.00  0.00    -0.041 C 
ATOM      7  C   UNL     1      84.975  55.720  46.761  0.00  0.00    +0.067 C 
ATOM      8  C   UNL     1      85.614  57.019  46.209  0.00  0.00    -0.036 C 
ATOM      9  C   UNL     1      85.887  55.215  47.906  0.00  0.00    -0.024 C 
ATOM     10  C   UNL     1      85.447  53.870  48.506  0.00  0.00    -0.050 C 
ATOM     11  C   UNL     1      84.840  52.884  47.489  0.00  0.00    -0.047 C 
ATOM     12  C   UNL     1      86.781  53.019  45.836  0.00  0.00    -0.059 C 
ENDROOT
BRANCH   1  14
ATOM     13  C   UNL     1      84.795  53.326  40.619  0.00  0.00    -0.044 C 
ATOM     14  C   UNL     1      84.605  54.240  41.803  0.00  0.00    -0.077 C 
ATOM     15  C   UNL     1      84.065  55.454  41.598  0.00  0.00    -0.099 C 
ENDBRANCH   1  14
BRANCH   7  16
ATOM     16  O   UNL     1      83.742  56.062  47.355  0.00  0.00    -0.389 OA
ATOM     17  H   UNL     1      83.263  55.253  47.596  0.00  0.00    +0.000 HD
ENDBRANCH   7  16
TORSDOF 2
ENDMDL
MODEL 2
REMARK VINA RESULT:    -6.760      2.148      3.330
REMARK INTER + INTRA:          -7.527
REMARK INTER:                  -7.342
REMARK INTRA:                  -0.185
REMARK UNBOUND:                -0.174
REMARK  Name = 
REMARK  5 active torsions:
REMARK  status: ('A' for Active; 'I' for Inactive)
REMARK    1  A    between atoms: C_1  and  C_2
REMARK    2  A    between atoms: C_2  and  C_4
REMARK    3  A    between atoms: C_7  and  C_16
REMARK    4  A    between atoms: C_10  and  C_11
REMARK    5  A    between atoms: C_10  and  O_12
REMARK                            x       y       z     vdW  Elec       q    Type
REMARK                         _______ _______ _______ _____ _____    ______ ____
ROOT
ATOM      1  C   UNL     1      86.584  52.756  45.511  0.00  0.00    -0.020 C 
ATOM      2  C   UNL     1      85.205  52.217  45.944  0.00  0.00    -0.046 C 
ATOM      3  C   UNL     1      84.461  53.167  46.911  0.00  0.00    -0.047 C 
ATOM      4  C   UNL     1      84.811  54.688  46.731  0.00  0.00    -0.027 C 
ATOM      5  C   UNL     1      85.207  54.946  45.237  0.00  0.00    -0.006 C 
ATOM      6  C   UNL     1      86.499  54.165  44.856  0.00  0.00    -0.041 C 
ATOM      7  C   UNL     1      85.132  56.468  44.766  0.00  0.00    +0.067 C 
ATOM      8  C   UNL     1      86.401  56.956  44.022  0.00  0.00    -0.036 C 
ATOM      9  C   UNL     1      84.897  57.438  45.949  0.00  0.00    -0.024 C 
ATOM     10  C   UNL     1      83.722  57.041  46.857  0.00  0.00    -0.050 C 
ATOM     11  C   UNL     1      83.539  55.522  47.037  0.00  0.00    -0.047 C 
ATOM     12  C   UNL     1      85.955  55.069  47.728  0.00  0.00    -0.059 C 
ENDROOT
BRANCH   1  14
ATOM     13  C   UNL     1      87.805  50.452  45.171  0.00  0.00    -0.044 C 
ATOM     14  C   UNL     1      87.307  51.761  44.612  0.00  0.00    -0.077 C 
ATOM     15  C   UNL     1      87.512  52.022  43.308  0.00  0.00    -0.099 C 
ENDBRANCH   1  14
BRANCH   7  16
ATOM     16  O   UNL     1      84.032  56.624  43.896  0.00  0.00    -0.389 OA
ATOM     17  H   UNL     1      84.251  57.277  43.212  0.00  0.00    +0.000 HD
ENDBRANCH   7  16
TORSDOF 2
ENDMDL
MODEL 3
REMARK VINA RESULT:    -6.752      1.729      4.556
REMARK INTER + INTRA:          -7.518
REMARK INTER:                  -7.332
REMARK INTRA:                  -0.186
REMARK UNBOUND:                -0.174
REMARK  Name = 
REMARK  5 active torsions:
REMARK  status: ('A' for Active; 'I' for Inactive)
REMARK    1  A    between atoms: C_1  and  C_2
REMARK    2  A    between atoms: C_2  and  C_4
REMARK    3  A    between atoms: C_7  and  C_16
REMARK    4  A    between atoms: C_10  and  C_11
REMARK    5  A    between atoms: C_10  and  O_12
REMARK                            x       y       z     vdW  Elec       q    Type
REMARK                         _______ _______ _______ _____ _____    ______ ____
ROOT
ATOM      1  C   UNL     1      86.122  52.079  46.461  0.00  0.00    -0.020 C 
ATOM      2  C   UNL     1      87.324  52.173  45.497  0.00  0.00    -0.046 C 
ATOM      3  C   UNL     1      86.966  52.839  44.148  0.00  0.00    -0.047 C 
ATOM      4  C   UNL     1      85.796  53.885  44.226  0.00  0.00    -0.027 C 
ATOM      5  C   UNL     1      85.782  54.528  45.655  0.00  0.00    -0.006 C 
ATOM      6  C   UNL     1      85.472  53.463  46.747  0.00  0.00    -0.041 C 
ATOM      7  C   UNL     1      84.998  55.913  45.770  0.00  0.00    +0.067 C 
ATOM      8  C   UNL     1      83.999  55.970  46.952  0.00  0.00    -0.036 C 
ATOM      9  C   UNL     1      84.203  56.247  44.484  0.00  0.00    -0.024 C 
ATOM     10  C   UNL     1      85.030  56.141  43.193  0.00  0.00    -0.050 C 
ATOM     11  C   UNL     1      86.080  55.013  43.199  0.00  0.00    -0.047 C 
ATOM     12  C   UNL     1      84.448  53.170  43.878  0.00  0.00    -0.059 C 
ENDROOT
BRANCH   1  14
ATOM     13  C   UNL     1      87.497  50.226  47.722  0.00  0.00    -0.044 C 
ATOM     14  C   UNL     1      86.504  51.361  47.749  0.00  0.00    -0.077 C 
ATOM     15  C   UNL     1      85.974  51.723  48.931  0.00  0.00    -0.099 C 
ENDBRANCH   1  14
BRANCH   7  16
ATOM     16  O   UNL     1      85.934  56.955  45.942  0.00  0.00    -0.389 OA
ATOM     17  H   UNL     1      85.464  57.792  46.089  0.00  0.00    +0.000 HD
ENDBRANCH   7  16
TORSDOF 2
ENDMDL
MODEL 4
REMARK VINA RESULT:    -6.746      4.519      6.217
REMARK INTER + INTRA:          -7.512
REMARK INTER:                  -7.335
REMARK INTRA:                  -0.177
REMARK UNBOUND:                -0.174
REMARK  Name = 
REMARK  5 active torsions:
REMARK  status: ('A' for Active; 'I' for Inactive)
REMARK    1  A    between atoms: C_1  and  C_2
REMARK    2  A    between atoms: C_2  and  C_4
REMARK    3  A    between atoms: C_7  and  C_16
REMARK    4  A    between atoms: C_10  and  C_11
REMARK    5  A    between atoms: C_10  and  O_12
REMARK                            x       y       z     vdW  Elec       q    Type
REMARK                         _______ _______ _______ _____ _____    ______ ____
ROOT
ATOM      1  C   UNL     1      89.232  49.730  42.149  0.00  0.00    -0.020 C 
ATOM      2  C   UNL     1      89.855  51.095  41.790  0.00  0.00    -0.046 C 
ATOM      3  C   UNL     1      88.805  52.223  41.658  0.00  0.00    -0.047 C 
ATOM      4  C   UNL     1      87.523  52.029  42.544  0.00  0.00    -0.027 C 
ATOM      5  C   UNL     1      87.908  51.214  43.826  0.00  0.00    -0.006 C 
ATOM      6  C   UNL     1      88.389  49.780  43.455  0.00  0.00    -0.041 C 
ATOM      7  C   UNL     1      86.880  51.327  45.040  0.00  0.00    +0.067 C 
ATOM      8  C   UNL     1      86.478  49.961  45.650  0.00  0.00    -0.036 C 
ATOM      9  C   UNL     1      85.571  52.049  44.636  0.00  0.00    -0.024 C 
ATOM     10  C   UNL     1      85.794  53.391  43.921  0.00  0.00    -0.050 C 
ATOM     11  C   UNL     1      87.029  53.427  43.001  0.00  0.00    -0.047 C 
ATOM     12  C   UNL     1      86.416  51.321  41.694  0.00  0.00    -0.059 C 
ENDROOT
BRANCH   1  14
ATOM     13  C   UNL     1      91.403  48.710  43.224  0.00  0.00    -0.044 C 
ATOM     14  C   UNL     1      90.293  48.638  42.207  0.00  0.00    -0.077 C 
ATOM     15  C   UNL     1      90.261  47.591  41.363  0.00  0.00    -0.099 C 
ENDBRANCH   1  14
BRANCH   7  16
ATOM     16  O   UNL     1      87.464  52.103  46.063  0.00  0.00    -0.389 OA
ATOM     17  H   UNL     1      87.323  53.045  45.876  0.00  0.00    +0.000 HD
ENDBRANCH   7  16
TORSDOF 2
ENDMDL
MODEL 5
REMARK VINA RESULT:    -6.688      1.978      5.222
REMARK INTER + INTRA:          -7.449
REMARK INTER:                  -7.275
REMARK INTRA:                  -0.174
REMARK UNBOUND:                -0.174
REMARK  Name = 
REMARK  5 active torsions:
REMARK  status: ('A' for Active; 'I' for Inactive)
REMARK    1  A    between atoms: C_1  and  C_2
REMARK    2  A    between atoms: C_2  and  C_4
REMARK    3  A    between atoms: C_7  and  C_16
REMARK    4  A    between atoms: C_10  and  C_11
REMARK    5  A    between atoms: C_10  and  O_12
REMARK                            x       y       z     vdW  Elec       q    Type
REMARK                         _______ _______ _______ _____ _____    ______ ____
ROOT
ATOM      1  C   UNL     1      85.132  53.773  47.847  0.00  0.00    -0.020 C 
ATOM      2  C   UNL     1      83.839  54.613  47.889  0.00  0.00    -0.046 C 
ATOM      3  C   UNL     1      83.893  55.853  46.966  0.00  0.00    -0.047 C 
ATOM      4  C   UNL     1      84.813  55.687  45.703  0.00  0.00    -0.027 C 
ATOM      5  C   UNL     1      84.847  54.175  45.293  0.00  0.00    -0.006 C 
ATOM      6  C   UNL     1      85.497  53.306  46.408  0.00  0.00    -0.041 C 
ATOM      7  C   UNL     1      85.322  53.886  43.798  0.00  0.00    +0.067 C 
ATOM      8  C   UNL     1      86.411  52.789  43.689  0.00  0.00    -0.036 C 
ATOM      9  C   UNL     1      85.880  55.152  43.103  0.00  0.00    -0.024 C 
ATOM     10  C   UNL     1      84.957  56.377  43.204  0.00  0.00    -0.050 C 
ATOM     11  C   UNL     1      84.181  56.484  44.531  0.00  0.00    -0.047 C 
ATOM     12  C   UNL     1      86.235  56.252  46.029  0.00  0.00    -0.059 C 
ENDROOT
BRANCH   1  14
ATOM     13  C   UNL     1      83.820  52.376  49.648  0.00  0.00    -0.044 C 
ATOM     14  C   UNL     1      85.058  52.600  48.816  0.00  0.00    -0.077 C 
ATOM     15  C   UNL     1      86.085  51.741  48.948  0.00  0.00    -0.099 C 
ENDBRANCH   1  14
BRANCH   7  16
ATOM     16  O   UNL     1      84.210  53.470  43.036  0.00  0.00    -0.389 OA
ATOM     17  H   UNL     1      83.813  54.238  42.595  0.00  0.00    +0.000 HD
ENDBRANCH   7  16
TORSDOF 2
ENDMDL
MODEL 6
REMARK VINA RESULT:    -6.608      2.184      3.745
REMARK INTER + INTRA:          -7.361
REMARK INTER:                  -7.187
REMARK INTRA:                  -0.174
REMARK UNBOUND:                -0.174
REMARK  Name = 
REMARK  5 active torsions:
REMARK  status: ('A' for Active; 'I' for Inactive)
REMARK    1  A    between atoms: C_1  and  C_2
REMARK    2  A    between atoms: C_2  and  C_4
REMARK    3  A    between atoms: C_7  and  C_16
REMARK    4  A    between atoms: C_10  and  C_11
REMARK    5  A    between atoms: C_10  and  O_12
REMARK                            x       y       z     vdW  Elec       q    Type
REMARK                         _______ _______ _______ _____ _____    ______ ____
ROOT
ATOM      1  C   UNL     1      84.869  55.809  45.171  0.00  0.00    -0.020 C 
ATOM      2  C   UNL     1      85.561  56.443  46.395  0.00  0.00    -0.046 C 
ATOM      3  C   UNL     1      85.422  55.589  47.677  0.00  0.00    -0.047 C 
ATOM      4  C   UNL     1      85.292  54.044  47.422  0.00  0.00    -0.027 C 
ATOM      5  C   UNL     1      86.045  53.682  46.097  0.00  0.00    -0.006 C 
ATOM      6  C   UNL     1      85.382  54.372  44.868  0.00  0.00    -0.041 C 
ATOM      7  C   UNL     1      86.423  52.141  45.928  0.00  0.00    +0.067 C 
ATOM      8  C   UNL     1      86.027  51.547  44.553  0.00  0.00    -0.036 C 
ATOM      9  C   UNL     1      85.768  51.253  47.014  0.00  0.00    -0.024 C 
ATOM     10  C   UNL     1      85.983  51.761  48.449  0.00  0.00    -0.050 C 
ATOM     11  C   UNL     1      85.993  53.296  48.587  0.00  0.00    -0.047 C 
ATOM     12  C   UNL     1      83.776  53.661  47.374  0.00  0.00    -0.059 C 
ENDROOT
BRANCH   1  14
ATOM     13  C   UNL     1      85.716  58.023  44.034  0.00  0.00    -0.044 C 
ATOM     14  C   UNL     1      84.976  56.712  43.948  0.00  0.00    -0.077 C 
ATOM     15  C   UNL     1      84.422  56.362  42.774  0.00  0.00    -0.099 C 
ENDBRANCH   1  14
BRANCH   7  16
ATOM     16  O   UNL     1      87.818  51.993  46.079  0.00  0.00    -0.389 OA
ATOM     17  H   UNL     1      88.260  52.224  45.246  0.00  0.00    +0.000 HD
ENDBRANCH   7  16
TORSDOF 2
ENDMDL
MODEL 7
REMARK VINA RESULT:    -6.381      2.195      4.942
REMARK INTER + INTRA:          -7.115
REMARK INTER:                  -6.927
REMARK INTRA:                  -0.188
REMARK UNBOUND:                -0.174
REMARK  Name = 
REMARK  5 active torsions:
REMARK  status: ('A' for Active; 'I' for Inactive)
REMARK    1  A    between atoms: C_1  and  C_2
REMARK    2  A    between atoms: C_2  and  C_4
REMARK    3  A    between atoms: C_7  and  C_16
REMARK    4  A    between atoms: C_10  and  C_11
REMARK    5  A    between atoms: C_10  and  O_12
REMARK                            x       y       z     vdW  Elec       q    Type
REMARK                         _______ _______ _______ _____ _____    ______ ____
ROOT
ATOM      1  C   UNL     1      84.909  52.842  46.765  0.00  0.00    -0.020 C 
ATOM      2  C   UNL     1      86.305  52.324  47.167  0.00  0.00    -0.046 C 
ATOM      3  C   UNL     1      87.002  51.527  46.040  0.00  0.00    -0.047 C 
ATOM      4  C   UNL     1      86.590  51.955  44.586  0.00  0.00    -0.027 C 
ATOM      5  C   UNL     1      86.196  53.472  44.594  0.00  0.00    -0.006 C 
ATOM      6  C   UNL     1      84.941  53.721  45.481  0.00  0.00    -0.041 C 
ATOM      7  C   UNL     1      86.213  54.188  43.169  0.00  0.00    +0.067 C 
ATOM      8  C   UNL     1      84.932  55.004  42.864  0.00  0.00    -0.036 C 
ATOM      9  C   UNL     1      86.398  53.181  42.007  0.00  0.00    -0.024 C 
ATOM     10  C   UNL     1      87.581  52.218  42.200  0.00  0.00    -0.050 C 
ATOM     11  C   UNL     1      87.825  51.790  43.660  0.00  0.00    -0.047 C 
ATOM     12  C   UNL     1      85.424  51.036  44.093  0.00  0.00    -0.059 C 
ENDROOT
BRANCH   1  14
ATOM     13  C   UNL     1      83.696  54.963  47.738  0.00  0.00    -0.044 C 
ATOM     14  C   UNL     1      84.235  53.567  47.924  0.00  0.00    -0.077 C 
ATOM     15  C   UNL     1      84.101  52.981  49.127  0.00  0.00    -0.099 C 
ENDBRANCH   1  14
BRANCH   7  16
ATOM     16  O   UNL     1      87.313  55.070  43.112  0.00  0.00    -0.389 OA
ATOM     17  H   UNL     1      87.085  55.837  42.563  0.00  0.00    +0.000 HD
ENDBRANCH   7  16
TORSDOF 2
ENDMDL
MODEL 8
REMARK VINA RESULT:    -6.368      2.533      3.604
REMARK INTER + INTRA:          -7.101
REMARK INTER:                  -6.927
REMARK INTRA:                  -0.174
REMARK UNBOUND:                -0.174
REMARK  Name = 
REMARK  5 active torsions:
REMARK  status: ('A' for Active; 'I' for Inactive)
REMARK    1  A    between atoms: C_1  and  C_2
REMARK    2  A    between atoms: C_2  and  C_4
REMARK    3  A    between atoms: C_7  and  C_16
REMARK    4  A    between atoms: C_10  and  C_11
REMARK    5  A    between atoms: C_10  and  O_12
REMARK                            x       y       z     vdW  Elec       q    Type
REMARK                         _______ _______ _______ _____ _____    ______ ____
ROOT
ATOM      1  C   UNL     1      83.445  50.892  42.965  0.00  0.00    -0.020 C 
ATOM      2  C   UNL     1      83.466  49.515  43.660  0.00  0.00    -0.046 C 
ATOM      3  C   UNL     1      84.860  49.138  44.214  0.00  0.00    -0.047 C 
ATOM      4  C   UNL     1      85.751  50.364  44.627  0.00  0.00    -0.027 C 
ATOM      5  C   UNL     1      84.821  51.543  45.074  0.00  0.00    -0.006 C 
ATOM      6  C   UNL     1      83.938  52.040  43.892  0.00  0.00    -0.041 C 
ATOM      7  C   UNL     1      85.525  52.668  45.958  0.00  0.00    +0.067 C 
ATOM      8  C   UNL     1      85.248  54.112  45.469  0.00  0.00    -0.036 C 
ATOM      9  C   UNL     1      87.062  52.494  46.017  0.00  0.00    -0.024 C 
ATOM     10  C   UNL     1      87.514  51.074  46.396  0.00  0.00    -0.050 C 
ATOM     11  C   UNL     1      86.614  49.950  45.849  0.00  0.00    -0.047 C 
ATOM     12  C   UNL     1      86.675  50.753  43.426  0.00  0.00    -0.059 C 
ENDROOT
BRANCH   1  14
ATOM     13  C   UNL     1      80.920  50.248  42.616  0.00  0.00    -0.044 C 
ATOM     14  C   UNL     1      82.070  51.194  42.380  0.00  0.00    -0.077 C 
ATOM     15  C   UNL     1      81.852  52.303  41.652  0.00  0.00    -0.099 C 
ENDBRANCH   1  14
BRANCH   7  16
ATOM     16  O   UNL     1      85.060  52.565  47.287  0.00  0.00    -0.389 OA
ATOM     17  H   UNL     1      85.279  53.377  47.771  0.00  0.00    +0.000 HD
ENDBRANCH   7  16
TORSDOF 2
ENDMDL
MODEL 9
REMARK VINA RESULT:    -6.342      3.831      5.969
REMARK INTER + INTRA:          -7.072
REMARK INTER:                  -6.893
REMARK INTRA:                  -0.179
REMARK UNBOUND:                -0.174
REMARK  Name = 
REMARK  5 active torsions:
REMARK  status: ('A' for Active; 'I' for Inactive)
REMARK    1  A    between atoms: C_1  and  C_2
REMARK    2  A    between atoms: C_2  and  C_4
REMARK    3  A    between atoms: C_7  and  C_16
REMARK    4  A    between atoms: C_10  and  C_11
REMARK    5  A    between atoms: C_10  and  O_12
REMARK                            x       y       z     vdW  Elec       q    Type
REMARK                         _______ _______ _______ _____ _____    ______ ____
ROOT
ATOM      1  C   UNL     1      86.269  52.260  45.415  0.00  0.00    -0.020 C 
ATOM      2  C   UNL     1      87.436  51.677  46.239  0.00  0.00    -0.046 C 
ATOM      3  C   UNL     1      87.984  50.353  45.657  0.00  0.00    -0.047 C 
ATOM      4  C   UNL     1      87.825  50.207  44.101  0.00  0.00    -0.027 C 
ATOM      5  C   UNL     1      87.855  51.632  43.451  0.00  0.00    -0.006 C 
ATOM      6  C   UNL     1      86.643  52.489  43.922  0.00  0.00    -0.041 C 
ATOM      7  C   UNL     1      88.182  51.662  41.890  0.00  0.00    +0.067 C 
ATOM      8  C   UNL     1      87.198  52.525  41.061  0.00  0.00    -0.036 C 
ATOM      9  C   UNL     1      88.186  50.246  41.263  0.00  0.00    -0.024 C 
ATOM     10  C   UNL     1      89.045  49.227  42.029  0.00  0.00    -0.050 C 
ATOM     11  C   UNL     1      89.042  49.411  43.559  0.00  0.00    -0.047 C 
ATOM     12  C   UNL     1      86.500  49.435  43.793  0.00  0.00    -0.059 C 
ENDROOT
BRANCH   1  14
ATOM     13  C   UNL     1      84.427  53.490  46.832  0.00  0.00    -0.044 C 
ATOM     14  C   UNL     1      85.721  53.528  46.057  0.00  0.00    -0.077 C 
ATOM     15  C   UNL     1      86.374  54.699  45.955  0.00  0.00    -0.099 C 
ENDBRANCH   1  14
BRANCH   7  16
ATOM     16  O   UNL     1      89.479  52.184  41.704  0.00  0.00    -0.389 OA
ATOM     17  H   UNL     1      90.089  51.771  42.336  0.00  0.00    +0.000 HD
ENDBRANCH   7  16
TORSDOF 2
ENDMDL
