=
 OpenBabel09092515023D

 37 40  0  0  1  0  0  0  0  0999 V2000
   86.7420   51.8800   45.1360 C   0  0  1  0  0  3  0  0  0  0  0  0
   86.0960   50.6050   45.2130 O   0  0  0  0  0  0  0  0  0  0  0  0
   86.3490   49.5770   44.2940 C   0  0  0  0  0  0  0  0  0  0  0  0
   85.8900   48.2880   44.5760 C   0  0  0  0  0  3  0  0  0  0  0  0
   86.1370   47.2420   43.6860 C   0  0  0  0  0  0  0  0  0  0  0  0
   86.8230   47.4920   42.4920 C   0  0  0  0  0  3  0  0  0  0  0  0
   87.2570   48.7850   42.1730 C   0  0  0  0  0  0  0  0  0  0  0  0
   87.0500   49.8390   43.0980 C   0  0  0  0  0  0  0  0  0  0  0  0
   87.5230   51.2300   42.8930 C   0  0  0  0  0  0  0  0  0  0  0  0
   88.4960   51.4940   42.1380 O   0  0  0  0  0  0  0  0  0  0  0  0
   86.8660   52.3390   43.6690 C   0  0  1  0  0  3  0  0  0  0  0  0
   84.6350   54.7350   47.6080 C   0  0  0  0  0  0  0  0  0  0  0  0
   85.9800   54.9460   47.2890 C   0  0  0  0  0  3  0  0  0  0  0  0
   86.6620   54.0350   46.4770 C   0  0  0  0  0  3  0  0  0  0  0  0
   86.0020   52.9010   45.9700 C   0  0  0  0  0  0  0  0  0  0  0  0
   84.6550   52.6880   46.3070 C   0  0  0  0  0  3  0  0  0  0  0  0
   83.9730   53.6040   47.1130 C   0  0  0  0  0  3  0  0  0  0  0  0
   83.9690   55.6500   48.4200 O   0  0  0  0  0  0  0  0  0  0  0  0
   83.1270   55.4390   48.7710 H   0  0  0  0  0  0  0  0  0  0  0  0
   85.6910   45.9590   43.9930 O   0  0  0  0  0  0  0  0  0  0  0  0
   84.8630   45.8400   44.4150 H   0  0  0  0  0  0  0  0  0  0  0  0
   87.8490   48.9750   40.9210 O   0  0  0  0  0  0  0  0  0  0  0  0
   88.7490   48.7500   40.7900 H   0  0  0  0  0  0  0  0  0  0  0  0
   85.5740   52.5800   43.1390 O   0  0  0  0  0  0  0  0  0  0  0  0
   85.6130   53.5520   42.1070 C   0  0  2  0  0  3  0  0  0  0  0  0
   86.3580   54.6920   42.5290 O   0  0  0  0  0  0  0  0  0  0  0  0
   85.5790   55.5440   43.3480 C   0  0  1  0  0  3  0  0  0  0  0  0
   86.5030   56.5450   44.0410 C   0  0  0  0  0  1  0  0  0  0  0  0
   84.5020   56.2730   42.5000 C   0  0  1  0  0  3  0  0  0  0  0  0
   84.0390   55.3920   41.3090 C   0  0  2  0  0  3  0  0  0  0  0  0
   84.1560   53.9030   41.6830 C   0  0  1  0  0  3  0  0  0  0  0  0
   83.7030   53.0690   40.6430 O   0  0  0  0  0  0  0  0  0  0  0  0
   83.6060   52.1630   40.9740 H   0  0  0  0  0  0  0  0  0  0  0  0
   84.8350   55.6590   40.1810 O   0  0  0  0  0  0  0  0  0  0  0  0
   85.4300   54.9100   40.0200 H   0  0  0  0  0  0  0  0  0  0  0  0
   83.4070   56.5800   43.3250 O   0  0  0  0  0  0  0  0  0  0  0  0
   83.6770   56.5250   44.2540 H   0  0  0  0  0  0  0  0  0  0  0  0
  1  2  1  0  0  0  0
  1 15  1  1  0  0  0
  3  4  1  0  0  0  0
  3  2  1  0  0  0  0
  5 20  1  0  0  0  0
  5  4  2  0  0  0  0
  6  5  1  0  0  0  0
  7  6  2  0  0  0  0
  7  8  1  0  0  0  0
  8  3  2  0  0  0  0
  9  8  1  0  0  0  0
  9 11  1  0  0  0  0
 10  9  2  0  0  0  0
 11 24  1  6  0  0  0
 11  1  1  0  0  0  0
 12 18  1  0  0  0  0
 13 12  1  0  0  0  0
 14 13  2  0  0  0  0
 15 16  2  0  0  0  0
 15 14  1  0  0  0  0
 16 17  1  0  0  0  0
 17 12  2  0  0  0  0
 18 19  1  0  0  0  0
 20 21  1  0  0  0  0
 22  7  1  0  0  0  0
 23 22  1  0  0  0  0
 25 26  1  0  0  0  0
 25 24  1  1  0  0  0
 26 27  1  0  0  0  0
 27 28  1  6  0  0  0
 29 36  1  1  0  0  0
 29 27  1  0  0  0  0
 30 34  1  6  0  0  0
 30 31  1  0  0  0  0
 30 29  1  0  0  0  0
 31 32  1  6  0  0  0
 31 25  1  0  0  0  0
 32 33  1  0  0  0  0
 35 34  1  0  0  0  0
 36 37  1  0  0  0  0
M  END
>  <MODEL>
1

>  <REMARK>
 VINA RESULT:    -9.896      0.000      0.000
 INTER + INTRA:         -14.032
 INTER:                 -12.782
 INTRA:                  -1.250
 UNBOUND:                -0.666
  Name = 
  10 active torsions:
  status: ('A' for Active; 'I' for Inactive)
    1  A    between atoms: O_1  and  C_2
    2  A    between atoms: C_5  and  C_8
    3  A    between atoms: C_12  and  O_13
    4  A    between atoms: C_15  and  O_31
    5  A    between atoms: C_19  and  O_20
    6  A    between atoms: O_20  and  C_21
    7  A    between atoms: C_23  and  C_24
    8  A    between atoms: C_25  and  O_30
    9  A    between atoms: C_26  and  O_29
   10  A    between atoms: C_27  and  O_28
                            x       y       z     vdW  Elec       q    Type
                         _______ _______ _______ _____ _____    ______ ____

>  <TORSDO>
F 9

$$$$
=
 OpenBabel09092515023D

 37 40  0  0  1  0  0  0  0  0999 V2000
   85.3370   50.3560   44.1020 C   0  0  1  0  0  3  0  0  0  0  0  0
   84.1120   49.7070   44.4580 O   0  0  0  0  0  0  0  0  0  0  0  0
   82.9090   49.9500   43.7810 C   0  0  0  0  0  0  0  0  0  0  0  0
   81.8220   49.1000   44.0030 C   0  0  0  0  0  3  0  0  0  0  0  0
   80.6150   49.3100   43.3360 C   0  0  0  0  0  0  0  0  0  0  0  0
   80.4840   50.3940   42.4600 C   0  0  0  0  0  3  0  0  0  0  0  0
   81.5480   51.2800   42.2530 C   0  0  0  0  0  0  0  0  0  0  0  0
   82.7910   51.0400   42.8940 C   0  0  0  0  0  0  0  0  0  0  0  0
   84.0020   51.8740   42.6970 C   0  0  0  0  0  0  0  0  0  0  0  0
   84.1700   52.5620   41.6560 O   0  0  0  0  0  0  0  0  0  0  0  0
   85.0850   51.8330   43.7410 C   0  0  1  0  0  3  0  0  0  0  0  0
   88.2480   50.0950   47.2890 C   0  0  0  0  0  0  0  0  0  0  0  0
   86.8830   50.0950   47.5890 C   0  0  0  0  0  3  0  0  0  0  0  0
   85.9360   50.1640   46.5620 C   0  0  0  0  0  3  0  0  0  0  0  0
   86.3480   50.2280   45.2190 C   0  0  0  0  0  0  0  0  0  0  0  0
   87.7220   50.2420   44.9250 C   0  0  0  0  0  3  0  0  0  0  0  0
   88.6660   50.1670   45.9540 C   0  0  0  0  0  3  0  0  0  0  0  0
   89.1800   50.0300   48.3230 O   0  0  0  0  0  0  0  0  0  0  0  0
   88.9700   49.5750   49.1140 H   0  0  0  0  0  0  0  0  0  0  0  0
   79.5490   48.4400   43.5540 O   0  0  0  0  0  0  0  0  0  0  0  0
   79.2280   47.9090   42.8520 H   0  0  0  0  0  0  0  0  0  0  0  0
   81.3120   52.3920   41.4410 O   0  0  0  0  0  0  0  0  0  0  0  0
   80.9910   53.1870   41.8160 H   0  0  0  0  0  0  0  0  0  0  0  0
   84.6510   52.5340   44.8940 O   0  0  0  0  0  0  0  0  0  0  0  0
   85.4170   53.7100   45.1020 C   0  0  2  0  0  3  0  0  0  0  0  0
   85.8990   53.7550   46.4430 O   0  0  0  0  0  0  0  0  0  0  0  0
   84.8980   54.2070   47.3370 C   0  0  1  0  0  3  0  0  0  0  0  0
   85.3440   53.9110   48.7690 C   0  0  0  0  0  1  0  0  0  0  0  0
   84.6380   55.7230   47.1340 C   0  0  1  0  0  3  0  0  0  0  0  0
   84.8690   56.1370   45.6560 C   0  0  2  0  0  3  0  0  0  0  0  0
   84.5560   54.9510   44.7250 C   0  0  1  0  0  3  0  0  0  0  0  0
   84.7110   55.3000   43.3700 O   0  0  0  0  0  0  0  0  0  0  0  0
   85.4240   55.9510   43.2840 H   0  0  0  0  0  0  0  0  0  0  0  0
   86.2060   56.5360   45.4770 O   0  0  0  0  0  0  0  0  0  0  0  0
   86.5690   56.8410   46.3230 H   0  0  0  0  0  0  0  0  0  0  0  0
   83.3160   56.0110   47.5120 O   0  0  0  0  0  0  0  0  0  0  0  0
   83.2490   56.0120   48.4800 H   0  0  0  0  0  0  0  0  0  0  0  0
  1  2  1  0  0  0  0
  1 15  1  1  0  0  0
  3  4  1  0  0  0  0
  3  2  1  0  0  0  0
  5 20  1  0  0  0  0
  5  4  2  0  0  0  0
  6  5  1  0  0  0  0
  7  6  2  0  0  0  0
  7  8  1  0  0  0  0
  8  3  2  0  0  0  0
  9  8  1  0  0  0  0
  9 11  1  0  0  0  0
 10  9  2  0  0  0  0
 11  1  1  0  0  0  0
 11 24  1  1  0  0  0
 12 13  1  0  0  0  0
 12 18  1  0  0  0  0
 14 13  2  0  0  0  0
 15 14  1  0  0  0  0
 16 15  2  0  0  0  0
 16 17  1  0  0  0  0
 17 12  2  0  0  0  0
 18 19  1  0  0  0  0
 21 20  1  0  0  0  0
 22 23  1  0  0  0  0
 22  7  1  0  0  0  0
 25 24  1  1  0  0  0
 25 26  1  0  0  0  0
 26 27  1  0  0  0  0
 27 28  1  1  0  0  0
 29 27  1  0  0  0  0
 29 36  1  6  0  0  0
 30 34  1  1  0  0  0
 30 29  1  0  0  0  0
 31 32  1  6  0  0  0
 31 25  1  0  0  0  0
 31 30  1  0  0  0  0
 33 32  1  0  0  0  0
 34 35  1  0  0  0  0
 36 37  1  0  0  0  0
M  END
>  <MODEL>
2

>  <REMARK>
 VINA RESULT:    -9.083      3.018      4.765
 INTER + INTRA:         -12.935
 INTER:                 -11.556
 INTRA:                  -1.379
 UNBOUND:                -0.666
  Name = 
  10 active torsions:
  status: ('A' for Active; 'I' for Inactive)
    1  A    between atoms: O_1  and  C_2
    2  A    between atoms: C_5  and  C_8
    3  A    between atoms: C_12  and  O_13
    4  A    between atoms: C_15  and  O_31
    5  A    between atoms: C_19  and  O_20
    6  A    between atoms: O_20  and  C_21
    7  A    between atoms: C_23  and  C_24
    8  A    between atoms: C_25  and  O_30
    9  A    between atoms: C_26  and  O_29
   10  A    between atoms: C_27  and  O_28
                            x       y       z     vdW  Elec       q    Type
                         _______ _______ _______ _____ _____    ______ ____

>  <TORSDO>
F 9

$$$$
=
 OpenBabel09092515023D

 37 40  0  0  1  0  0  0  0  0999 V2000
   83.9530   51.7490   43.2920 C   0  0  1  0  0  3  0  0  0  0  0  0
   84.3160   52.1430   44.6190 O   0  0  0  0  0  0  0  0  0  0  0  0
   84.9320   53.3710   44.8970 C   0  0  0  0  0  0  0  0  0  0  0  0
   85.0190   53.8010   46.2240 C   0  0  0  0  0  3  0  0  0  0  0  0
   85.6160   55.0240   46.5300 C   0  0  0  0  0  0  0  0  0  0  0  0
   86.1560   55.8100   45.5060 C   0  0  0  0  0  3  0  0  0  0  0  0
   86.1130   55.3790   44.1740 C   0  0  0  0  0  0  0  0  0  0  0  0
   85.4640   54.1600   43.8560 C   0  0  0  0  0  0  0  0  0  0  0  0
   85.3030   53.6390   42.4760 C   0  0  0  0  0  0  0  0  0  0  0  0
   85.3190   54.4020   41.4740 O   0  0  0  0  0  0  0  0  0  0  0  0
   85.0390   52.1700   42.2830 C   0  0  1  0  0  3  0  0  0  0  0  0
   83.2040   47.4910   43.2280 C   0  0  0  0  0  0  0  0  0  0  0  0
   82.1920   48.3830   42.8610 C   0  0  0  0  0  3  0  0  0  0  0  0
   82.4330   49.7600   42.8640 C   0  0  0  0  0  3  0  0  0  0  0  0
   83.6950   50.2600   43.2320 C   0  0  0  0  0  0  0  0  0  0  0  0
   84.7020   49.3580   43.6140 C   0  0  0  0  0  3  0  0  0  0  0  0
   84.4610   47.9820   43.6030 C   0  0  0  0  0  3  0  0  0  0  0  0
   82.9480   46.1210   43.2230 O   0  0  0  0  0  0  0  0  0  0  0  0
   83.2030   45.5990   42.4880 H   0  0  0  0  0  0  0  0  0  0  0  0
   85.6760   55.4460   47.8560 O   0  0  0  0  0  0  0  0  0  0  0  0
   86.4870   55.4080   48.3240 H   0  0  0  0  0  0  0  0  0  0  0  0
   86.7570   56.1720   43.2200 O   0  0  0  0  0  0  0  0  0  0  0  0
   86.7660   57.1040   43.3140 H   0  0  0  0  0  0  0  0  0  0  0  0
   86.2290   51.4430   42.5400 O   0  0  0  0  0  0  0  0  0  0  0  0
   87.0220   51.3200   41.3710 C   0  0  2  0  0  3  0  0  0  0  0  0
   87.1390   49.9500   40.9960 O   0  0  0  0  0  0  0  0  0  0  0  0
   88.1190   49.2840   41.7710 C   0  0  1  0  0  3  0  0  0  0  0  0
   87.9650   47.7760   41.5750 C   0  0  0  0  0  1  0  0  0  0  0  0
   89.5410   49.7570   41.3670 C   0  0  1  0  0  3  0  0  0  0  0  0
   89.5250   51.2360   40.8960 C   0  0  2  0  0  3  0  0  0  0  0  0
   88.4000   52.0020   41.6150 C   0  0  1  0  0  3  0  0  0  0  0  0
   88.3800   53.3610   41.2480 O   0  0  0  0  0  0  0  0  0  0  0  0
   88.6920   53.4530   40.3350 H   0  0  0  0  0  0  0  0  0  0  0  0
   89.3180   51.2910   39.5060 O   0  0  0  0  0  0  0  0  0  0  0  0
   89.4150   52.2070   39.2010 H   0  0  0  0  0  0  0  0  0  0  0  0
   90.3970   49.6140   42.4710 O   0  0  0  0  0  0  0  0  0  0  0  0
   91.0650   50.3170   42.4560 H   0  0  0  0  0  0  0  0  0  0  0  0
  1 15  1  1  0  0  0
  1  2  1  0  0  0  0
  2  3  1  0  0  0  0
  3  4  1  0  0  0  0
  4  5  2  0  0  0  0
  5 20  1  0  0  0  0
  6  5  1  0  0  0  0
  7  6  2  0  0  0  0
  8  7  1  0  0  0  0
  8  3  2  0  0  0  0
  9  8  1  0  0  0  0
 10  9  2  0  0  0  0
 11  9  1  0  0  0  0
 11 24  1  1  0  0  0
 11  1  1  0  0  0  0
 12 17  1  0  0  0  0
 13 14  1  0  0  0  0
 13 12  2  0  0  0  0
 14 15  2  0  0  0  0
 15 16  1  0  0  0  0
 17 16  2  0  0  0  0
 18 12  1  0  0  0  0
 19 18  1  0  0  0  0
 20 21  1  0  0  0  0
 22 23  1  0  0  0  0
 22  7  1  0  0  0  0
 25 31  1  0  0  0  0
 25 24  1  1  0  0  0
 26 25  1  0  0  0  0
 26 27  1  0  0  0  0
 27 28  1  6  0  0  0
 29 27  1  0  0  0  0
 29 36  1  1  0  0  0
 30 34  1  6  0  0  0
 30 29  1  0  0  0  0
 30 31  1  0  0  0  0
 31 32  1  6  0  0  0
 33 32  1  0  0  0  0
 35 34  1  0  0  0  0
 37 36  1  0  0  0  0
M  END
>  <MODEL>
3

>  <REMARK>
 VINA RESULT:    -9.055      2.159      6.604
 INTER + INTRA:         -12.896
 INTER:                 -11.947
 INTRA:                  -0.949
 UNBOUND:                -0.666
  Name = 
  10 active torsions:
  status: ('A' for Active; 'I' for Inactive)
    1  A    between atoms: O_1  and  C_2
    2  A    between atoms: C_5  and  C_8
    3  A    between atoms: C_12  and  O_13
    4  A    between atoms: C_15  and  O_31
    5  A    between atoms: C_19  and  O_20
    6  A    between atoms: O_20  and  C_21
    7  A    between atoms: C_23  and  C_24
    8  A    between atoms: C_25  and  O_30
    9  A    between atoms: C_26  and  O_29
   10  A    between atoms: C_27  and  O_28
                            x       y       z     vdW  Elec       q    Type
                         _______ _______ _______ _____ _____    ______ ____

>  <TORSDO>
F 9

$$$$
=
 OpenBabel09092515023D

 37 40  0  0  1  0  0  0  0  0999 V2000
   87.1100   53.2380   44.1980 C   0  0  1  0  0  3  0  0  0  0  0  0
   86.0150   54.1570   44.2710 O   0  0  0  0  0  0  0  0  0  0  0  0
   85.3060   54.3890   45.4580 C   0  0  0  0  0  0  0  0  0  0  0  0
   84.4310   55.4770   45.5240 C   0  0  0  0  0  3  0  0  0  0  0  0
   83.7200   55.7390   46.6940 C   0  0  0  0  0  0  0  0  0  0  0  0
   83.8620   54.8920   47.7990 C   0  0  0  0  0  3  0  0  0  0  0  0
   84.7040   53.7740   47.7410 C   0  0  0  0  0  0  0  0  0  0  0  0
   85.4640   53.5340   46.5680 C   0  0  0  0  0  0  0  0  0  0  0  0
   86.4330   52.4200   46.4200 C   0  0  0  0  0  0  0  0  0  0  0  0
   86.9830   51.8840   47.4170 O   0  0  0  0  0  0  0  0  0  0  0  0
   86.8180   51.9770   45.0340 C   0  0  1  0  0  3  0  0  0  0  0  0
   87.9830   52.3370   40.0600 C   0  0  0  0  0  0  0  0  0  0  0  0
   88.9770   52.1880   41.0320 C   0  0  0  0  0  3  0  0  0  0  0  0
   88.6970   52.4630   42.3740 C   0  0  0  0  0  3  0  0  0  0  0  0
   87.4120   52.8870   42.7590 C   0  0  0  0  0  0  0  0  0  0  0  0
   86.4220   53.0490   41.7750 C   0  0  0  0  0  3  0  0  0  0  0  0
   86.7040   52.7660   40.4360 C   0  0  0  0  0  3  0  0  0  0  0  0
   88.2790   52.0630   38.7270 O   0  0  0  0  0  0  0  0  0  0  0  0
   87.9560   52.6230   38.0500 H   0  0  0  0  0  0  0  0  0  0  0  0
   82.8680   56.8410   46.7490 O   0  0  0  0  0  0  0  0  0  0  0  0
   82.8850   57.4080   47.4950 H   0  0  0  0  0  0  0  0  0  0  0  0
   84.7210   52.9220   48.8480 O   0  0  0  0  0  0  0  0  0  0  0  0
   84.6730   53.2770   49.7140 H   0  0  0  0  0  0  0  0  0  0  0  0
   85.7380   51.2660   44.4530 O   0  0  0  0  0  0  0  0  0  0  0  0
   85.7960   49.8850   44.7750 C   0  0  2  0  0  3  0  0  0  0  0  0
   87.1510   49.4430   44.8110 O   0  0  0  0  0  0  0  0  0  0  0  0
   87.6490   49.1960   43.5090 C   0  0  1  0  0  3  0  0  0  0  0  0
   89.1700   49.0650   43.5780 C   0  0  0  0  0  1  0  0  0  0  0  0
   87.0040   47.9140   42.9180 C   0  0  1  0  0  3  0  0  0  0  0  0
   85.5590   47.7190   43.4510 C   0  0  2  0  0  3  0  0  0  0  0  0
   84.9260   49.0890   43.7590 C   0  0  1  0  0  3  0  0  0  0  0  0
   83.5960   48.9580   44.2040 O   0  0  0  0  0  0  0  0  0  0  0  0
   83.4140   48.0270   44.4070 H   0  0  0  0  0  0  0  0  0  0  0  0
   85.5840   46.9380   44.6210 O   0  0  0  0  0  0  0  0  0  0  0  0
   86.2330   46.2250   44.5200 H   0  0  0  0  0  0  0  0  0  0  0  0
   86.9890   48.0190   41.5170 O   0  0  0  0  0  0  0  0  0  0  0  0
   87.8980   48.0950   41.1890 H   0  0  0  0  0  0  0  0  0  0  0  0
  1 15  1  6  0  0  0
  1  2  1  0  0  0  0
  1 11  1  0  0  0  0
  2  3  1  0  0  0  0
  3  4  2  0  0  0  0
  3  8  1  0  0  0  0
  4  5  1  0  0  0  0
  5 20  1  0  0  0  0
  5  6  2  0  0  0  0
  7  6  1  0  0  0  0
  7 22  1  0  0  0  0
  8  7  2  0  0  0  0
  9  8  1  0  0  0  0
  9 10  2  0  0  0  0
 11 24  1  6  0  0  0
 11  9  1  0  0  0  0
 12 17  2  0  0  0  0
 12 13  1  0  0  0  0
 13 14  2  0  0  0  0
 14 15  1  0  0  0  0
 16 15  2  0  0  0  0
 17 16  1  0  0  0  0
 18 12  1  0  0  0  0
 19 18  1  0  0  0  0
 20 21  1  0  0  0  0
 22 23  1  0  0  0  0
 25 24  1  6  0  0  0
 25 26  1  0  0  0  0
 27 28  1  1  0  0  0
 27 26  1  0  0  0  0
 29 36  1  6  0  0  0
 29 30  1  0  0  0  0
 29 27  1  0  0  0  0
 30 31  1  0  0  0  0
 30 34  1  1  0  0  0
 31 32  1  1  0  0  0
 31 25  1  0  0  0  0
 32 33  1  0  0  0  0
 35 34  1  0  0  0  0
 37 36  1  0  0  0  0
M  END
>  <MODEL>
4

>  <REMARK>
 VINA RESULT:    -8.955      2.128      7.080
 INTER + INTRA:         -12.762
 INTER:                 -11.651
 INTRA:                  -1.111
 UNBOUND:                -0.666
  Name = 
  10 active torsions:
  status: ('A' for Active; 'I' for Inactive)
    1  A    between atoms: O_1  and  C_2
    2  A    between atoms: C_5  and  C_8
    3  A    between atoms: C_12  and  O_13
    4  A    between atoms: C_15  and  O_31
    5  A    between atoms: C_19  and  O_20
    6  A    between atoms: O_20  and  C_21
    7  A    between atoms: C_23  and  C_24
    8  A    between atoms: C_25  and  O_30
    9  A    between atoms: C_26  and  O_29
   10  A    between atoms: C_27  and  O_28
                            x       y       z     vdW  Elec       q    Type
                         _______ _______ _______ _____ _____    ______ ____

>  <TORSDO>
F 9

$$$$
=
 OpenBabel09092515023D

 37 40  0  0  1  0  0  0  0  0999 V2000
   87.7030   52.5570   44.7200 C   0  0  1  0  0  3  0  0  0  0  0  0
   87.8520   51.1360   44.6330 O   0  0  0  0  0  0  0  0  0  0  0  0
   88.3360   50.5000   43.4820 C   0  0  0  0  0  0  0  0  0  0  0  0
   88.7020   49.1530   43.5530 C   0  0  0  0  0  3  0  0  0  0  0  0
   89.1970   48.4970   42.4270 C   0  0  0  0  0  0  0  0  0  0  0  0
   89.3020   49.1830   41.2120 C   0  0  0  0  0  3  0  0  0  0  0  0
   88.9040   50.5220   41.1090 C   0  0  0  0  0  0  0  0  0  0  0  0
   88.4460   51.2050   42.2640 C   0  0  0  0  0  0  0  0  0  0  0  0
   88.0620   52.6370   42.2860 C   0  0  0  0  0  0  0  0  0  0  0  0
   88.5120   53.4560   41.4410 O   0  0  0  0  0  0  0  0  0  0  0  0
   87.1690   53.1300   43.3920 C   0  0  1  0  0  3  0  0  0  0  0  0
   85.2130   53.5910   48.1010 C   0  0  0  0  0  0  0  0  0  0  0  0
   85.7750   54.6010   47.3140 C   0  0  0  0  0  3  0  0  0  0  0  0
   86.5690   54.2730   46.2100 C   0  0  0  0  0  3  0  0  0  0  0  0
   86.8040   52.9260   45.8790 C   0  0  0  0  0  0  0  0  0  0  0  0
   86.2480   51.9170   46.6830 C   0  0  0  0  0  3  0  0  0  0  0  0
   85.4500   52.2480   47.7820 C   0  0  0  0  0  3  0  0  0  0  0  0
   84.4280   53.9340   49.2000 O   0  0  0  0  0  0  0  0  0  0  0  0
   84.5210   53.4670   50.0060 H   0  0  0  0  0  0  0  0  0  0  0  0
   89.5760   47.1590   42.5220 O   0  0  0  0  0  0  0  0  0  0  0  0
   89.2000   46.6120   43.1830 H   0  0  0  0  0  0  0  0  0  0  0  0
   88.9480   51.1110   39.8430 O   0  0  0  0  0  0  0  0  0  0  0  0
   88.9760   52.0440   39.7610 H   0  0  0  0  0  0  0  0  0  0  0  0
   85.8490   52.6620   43.1730 O   0  0  0  0  0  0  0  0  0  0  0  0
   84.9020   53.7090   43.3060 C   0  0  2  0  0  3  0  0  0  0  0  0
   83.5810   53.2060   43.1170 O   0  0  0  0  0  0  0  0  0  0  0  0
   83.2760   53.0590   41.7420 C   0  0  1  0  0  3  0  0  0  0  0  0
   82.0120   52.2110   41.6020 C   0  0  0  0  0  1  0  0  0  0  0  0
   83.0920   54.4500   41.0770 C   0  0  1  0  0  3  0  0  0  0  0  0
   83.9900   55.5170   41.7580 C   0  0  2  0  0  3  0  0  0  0  0  0
   85.2630   54.8520   42.3140 C   0  0  1  0  0  3  0  0  0  0  0  0
   86.1270   55.7960   42.9010 O   0  0  0  0  0  0  0  0  0  0  0  0
   85.6540   56.6330   43.0280 H   0  0  0  0  0  0  0  0  0  0  0  0
   83.2860   56.1360   42.8060 O   0  0  0  0  0  0  0  0  0  0  0  0
   83.2410   55.5340   43.5650 H   0  0  0  0  0  0  0  0  0  0  0  0
   83.4160   54.3470   39.7140 O   0  0  0  0  0  0  0  0  0  0  0  0
   84.3420   54.6030   39.5820 H   0  0  0  0  0  0  0  0  0  0  0  0
  1 15  1  1  0  0  0
  2  1  1  0  0  0  0
  3  4  1  0  0  0  0
  3  2  1  0  0  0  0
  5 20  1  0  0  0  0
  5  4  2  0  0  0  0
  6  5  1  0  0  0  0
  7  6  2  0  0  0  0
  7  8  1  0  0  0  0
  8  9  1  0  0  0  0
  8  3  2  0  0  0  0
  9 11  1  0  0  0  0
 10  9  2  0  0  0  0
 11 24  1  6  0  0  0
 11  1  1  0  0  0  0
 12 18  1  0  0  0  0
 13 12  2  0  0  0  0
 14 13  1  0  0  0  0
 15 14  2  0  0  0  0
 15 16  1  0  0  0  0
 16 17  2  0  0  0  0
 17 12  1  0  0  0  0
 18 19  1  0  0  0  0
 20 21  1  0  0  0  0
 22  7  1  0  0  0  0
 23 22  1  0  0  0  0
 25 24  1  6  0  0  0
 26 25  1  0  0  0  0
 27 28  1  1  0  0  0
 27 26  1  0  0  0  0
 29 36  1  6  0  0  0
 29 27  1  0  0  0  0
 29 30  1  0  0  0  0
 30 31  1  0  0  0  0
 30 34  1  1  0  0  0
 31 32  1  1  0  0  0
 31 25  1  0  0  0  0
 32 33  1  0  0  0  0
 34 35  1  0  0  0  0
 37 36  1  0  0  0  0
M  END
>  <MODEL>
5

>  <REMARK>
 VINA RESULT:    -8.680      1.880      2.724
 INTER + INTRA:         -12.390
 INTER:                 -11.836
 INTRA:                  -0.554
 UNBOUND:                -0.666
  Name = 
  10 active torsions:
  status: ('A' for Active; 'I' for Inactive)
    1  A    between atoms: O_1  and  C_2
    2  A    between atoms: C_5  and  C_8
    3  A    between atoms: C_12  and  O_13
    4  A    between atoms: C_15  and  O_31
    5  A    between atoms: C_19  and  O_20
    6  A    between atoms: O_20  and  C_21
    7  A    between atoms: C_23  and  C_24
    8  A    between atoms: C_25  and  O_30
    9  A    between atoms: C_26  and  O_29
   10  A    between atoms: C_27  and  O_28
                            x       y       z     vdW  Elec       q    Type
                         _______ _______ _______ _____ _____    ______ ____

>  <TORSDO>
F 9

$$$$
=
 OpenBabel09092515023D

 37 40  0  0  1  0  0  0  0  0999 V2000
   86.9470   51.9570   43.1150 C   0  0  1  0  0  3  0  0  0  0  0  0
   87.7850   51.3370   44.0960 O   0  0  0  0  0  0  0  0  0  0  0  0
   87.4120   51.2270   45.4430 C   0  0  0  0  0  0  0  0  0  0  0  0
   88.1480   50.3890   46.2850 C   0  0  0  0  0  3  0  0  0  0  0  0
   87.7930   50.2510   47.6260 C   0  0  0  0  0  0  0  0  0  0  0  0
   86.7120   50.9770   48.1390 C   0  0  0  0  0  3  0  0  0  0  0  0
   85.9860   51.8530   47.3210 C   0  0  0  0  0  0  0  0  0  0  0  0
   86.3150   51.9570   45.9460 C   0  0  0  0  0  0  0  0  0  0  0  0
   85.5740   52.8010   44.9760 C   0  0  0  0  0  0  0  0  0  0  0  0
   84.3740   53.1310   45.1670 O   0  0  0  0  0  0  0  0  0  0  0  0
   86.2590   53.2060   43.6990 C   0  0  1  0  0  3  0  0  0  0  0  0
   89.2500   52.8250   39.5600 C   0  0  0  0  0  0  0  0  0  0  0  0
   87.8550   52.7670   39.4910 C   0  0  0  0  0  3  0  0  0  0  0  0
   87.1040   52.5020   40.6400 C   0  0  0  0  0  3  0  0  0  0  0  0
   87.7440   52.2970   41.8760 C   0  0  0  0  0  0  0  0  0  0  0  0
   89.1470   52.3420   41.9350 C   0  0  0  0  0  3  0  0  0  0  0  0
   89.8940   52.6140   40.7860 C   0  0  0  0  0  3  0  0  0  0  0  0
   89.9850   53.0870   38.4060 O   0  0  0  0  0  0  0  0  0  0  0  0
   90.9200   53.0260   38.4210 H   0  0  0  0  0  0  0  0  0  0  0  0
   88.5250   49.3950   48.4460 O   0  0  0  0  0  0  0  0  0  0  0  0
   89.3800   49.1130   48.1840 H   0  0  0  0  0  0  0  0  0  0  0  0
   84.9830   52.6150   47.9250 O   0  0  0  0  0  0  0  0  0  0  0  0
   84.4240   52.2280   48.5700 H   0  0  0  0  0  0  0  0  0  0  0  0
   87.2360   54.1930   43.9850 O   0  0  0  0  0  0  0  0  0  0  0  0
   86.7840   55.4870   43.6220 C   0  0  2  0  0  3  0  0  0  0  0  0
   86.8580   56.3680   44.7410 O   0  0  0  0  0  0  0  0  0  0  0  0
   85.7570   56.1900   45.6130 C   0  0  1  0  0  3  0  0  0  0  0  0
   86.0560   56.8910   46.9380 C   0  0  0  0  0  1  0  0  0  0  0  0
   84.4600   56.7470   44.9660 C   0  0  1  0  0  3  0  0  0  0  0  0
   84.5010   56.6040   43.4210 C   0  0  2  0  0  3  0  0  0  0  0  0
   85.3470   55.3780   43.0310 C   0  0  1  0  0  3  0  0  0  0  0  0
   85.3720   55.1870   41.6370 O   0  0  0  0  0  0  0  0  0  0  0  0
   84.9630   55.9490   41.1990 H   0  0  0  0  0  0  0  0  0  0  0  0
   85.0570   57.7620   42.8490 O   0  0  0  0  0  0  0  0  0  0  0  0
   85.4840   58.2910   43.5400 H   0  0  0  0  0  0  0  0  0  0  0  0
   83.3580   56.0470   45.4850 O   0  0  0  0  0  0  0  0  0  0  0  0
   83.6630   55.4160   46.1550 H   0  0  0  0  0  0  0  0  0  0  0  0
  1 15  1  6  0  0  0
  1 11  1  0  0  0  0
  1  2  1  0  0  0  0
  2  3  1  0  0  0  0
  3  8  2  0  0  0  0
  3  4  1  0  0  0  0
  4  5  2  0  0  0  0
  5  6  1  0  0  0  0
  5 20  1  0  0  0  0
  7 22  1  0  0  0  0
  7  6  2  0  0  0  0
  8  7  1  0  0  0  0
  9 10  2  0  0  0  0
  9  8  1  0  0  0  0
 11 24  1  1  0  0  0
 11  9  1  0  0  0  0
 12 17  1  0  0  0  0
 13 12  2  0  0  0  0
 13 14  1  0  0  0  0
 14 15  2  0  0  0  0
 15 16  1  0  0  0  0
 17 16  2  0  0  0  0
 18 19  1  0  0  0  0
 18 12  1  0  0  0  0
 21 20  1  0  0  0  0
 22 23  1  0  0  0  0
 25 24  1  1  0  0  0
 25 26  1  0  0  0  0
 26 27  1  0  0  0  0
 27 28  1  1  0  0  0
 29 36  1  1  0  0  0
 29 27  1  0  0  0  0
 30 34  1  6  0  0  0
 30 29  1  0  0  0  0
 31 32  1  6  0  0  0
 31 30  1  0  0  0  0
 31 25  1  0  0  0  0
 33 32  1  0  0  0  0
 34 35  1  0  0  0  0
 36 37  1  0  0  0  0
M  END
>  <MODEL>
6

>  <REMARK>
 VINA RESULT:    -8.666      2.590      5.241
 INTER + INTRA:         -12.372
 INTER:                 -11.542
 INTRA:                  -0.830
 UNBOUND:                -0.666
  Name = 
  10 active torsions:
  status: ('A' for Active; 'I' for Inactive)
    1  A    between atoms: O_1  and  C_2
    2  A    between atoms: C_5  and  C_8
    3  A    between atoms: C_12  and  O_13
    4  A    between atoms: C_15  and  O_31
    5  A    between atoms: C_19  and  O_20
    6  A    between atoms: O_20  and  C_21
    7  A    between atoms: C_23  and  C_24
    8  A    between atoms: C_25  and  O_30
    9  A    between atoms: C_26  and  O_29
   10  A    between atoms: C_27  and  O_28
                            x       y       z     vdW  Elec       q    Type
                         _______ _______ _______ _____ _____    ______ ____

>  <TORSDO>
F 9

$$$$
=
 OpenBabel09092515023D

 37 40  0  0  1  0  0  0  0  0999 V2000
   85.0620   52.6020   44.7110 C   0  0  1  0  0  3  0  0  0  0  0  0
   83.9420   52.0500   44.0100 O   0  0  0  0  0  0  0  0  0  0  0  0
   83.7430   50.6690   43.8810 C   0  0  0  0  0  0  0  0  0  0  0  0
   82.5100   50.2010   43.4180 C   0  0  0  0  0  3  0  0  0  0  0  0
   82.2790   48.8320   43.2900 C   0  0  0  0  0  0  0  0  0  0  0  0
   83.2970   47.9230   43.5980 C   0  0  0  0  0  3  0  0  0  0  0  0
   84.5530   48.3720   44.0250 C   0  0  0  0  0  0  0  0  0  0  0  0
   84.7740   49.7610   44.2030 C   0  0  0  0  0  0  0  0  0  0  0  0
   86.0400   50.3430   44.7110 C   0  0  0  0  0  0  0  0  0  0  0  0
   86.8350   49.6770   45.4260 O   0  0  0  0  0  0  0  0  0  0  0  0
   86.3390   51.7890   44.4220 C   0  0  1  0  0  3  0  0  0  0  0  0
   85.6750   56.7450   43.6350 C   0  0  0  0  0  0  0  0  0  0  0  0
   84.7230   55.9810   42.9540 C   0  0  0  0  0  3  0  0  0  0  0  0
   84.5090   54.6450   43.3080 C   0  0  0  0  0  3  0  0  0  0  0  0
   85.2450   54.0600   44.3540 C   0  0  0  0  0  0  0  0  0  0  0  0
   86.2110   54.8290   45.0230 C   0  0  0  0  0  3  0  0  0  0  0  0
   86.4180   56.1660   44.6720 C   0  0  0  0  0  3  0  0  0  0  0  0
   85.8800   58.0730   43.2690 O   0  0  0  0  0  0  0  0  0  0  0  0
   85.8830   58.3150   42.3640 H   0  0  0  0  0  0  0  0  0  0  0  0
   81.0360   48.3840   42.8480 O   0  0  0  0  0  0  0  0  0  0  0  0
   80.2530   48.7110   43.2440 H   0  0  0  0  0  0  0  0  0  0  0  0
   85.5480   47.4100   44.2210 O   0  0  0  0  0  0  0  0  0  0  0  0
   86.0450   47.0950   43.4930 H   0  0  0  0  0  0  0  0  0  0  0  0
   86.6890   51.9310   43.0560 O   0  0  0  0  0  0  0  0  0  0  0  0
   87.8920   51.2400   42.7570 C   0  0  2  0  0  3  0  0  0  0  0  0
   88.9320   52.1680   42.4560 O   0  0  0  0  0  0  0  0  0  0  0  0
   88.8330   52.6410   41.1250 C   0  0  1  0  0  3  0  0  0  0  0  0
   89.7380   53.8630   40.9660 C   0  0  0  0  0  1  0  0  0  0  0  0
   89.2240   51.5220   40.1230 C   0  0  1  0  0  3  0  0  0  0  0  0
   88.8540   50.1210   40.6780 C   0  0  2  0  0  3  0  0  0  0  0  0
   87.6260   50.2310   41.6020 C   0  0  1  0  0  3  0  0  0  0  0  0
   87.2300   48.9720   42.0920 O   0  0  0  0  0  0  0  0  0  0  0  0
   87.5970   48.8420   42.9800 H   0  0  0  0  0  0  0  0  0  0  0  0
   89.9390   49.5910   41.3990 O   0  0  0  0  0  0  0  0  0  0  0  0
   89.9030   49.9060   42.3160 H   0  0  0  0  0  0  0  0  0  0  0  0
   88.5570   51.7490   38.9080 O   0  0  0  0  0  0  0  0  0  0  0  0
   88.5160   52.7030   38.7350 H   0  0  0  0  0  0  0  0  0  0  0  0
  1 15  1  6  0  0  0
  2  1  1  0  0  0  0
  3  2  1  0  0  0  0
  3  8  1  0  0  0  0
  4  3  2  0  0  0  0
  5  4  1  0  0  0  0
  5  6  2  0  0  0  0
  6  7  1  0  0  0  0
  7  8  2  0  0  0  0
  7 22  1  0  0  0  0
  8  9  1  0  0  0  0
  9 10  2  0  0  0  0
 11 24  1  6  0  0  0
 11  9  1  0  0  0  0
 11  1  1  0  0  0  0
 12 17  1  0  0  0  0
 13 14  1  0  0  0  0
 13 12  2  0  0  0  0
 14 15  2  0  0  0  0
 15 16  1  0  0  0  0
 17 16  2  0  0  0  0
 18 12  1  0  0  0  0
 19 18  1  0  0  0  0
 20 21  1  0  0  0  0
 20  5  1  0  0  0  0
 23 22  1  0  0  0  0
 25 24  1  6  0  0  0
 26 25  1  0  0  0  0
 27 28  1  1  0  0  0
 27 26  1  0  0  0  0
 29 36  1  6  0  0  0
 29 30  1  0  0  0  0
 29 27  1  0  0  0  0
 30 34  1  1  0  0  0
 30 31  1  0  0  0  0
 31 32  1  1  0  0  0
 31 25  1  0  0  0  0
 32 33  1  0  0  0  0
 34 35  1  0  0  0  0
 37 36  1  0  0  0  0
M  END
>  <MODEL>
7

>  <REMARK>
 VINA RESULT:    -8.642      2.356      4.583
 INTER + INTRA:         -12.339
 INTER:                 -11.233
 INTRA:                  -1.106
 UNBOUND:                -0.666
  Name = 
  10 active torsions:
  status: ('A' for Active; 'I' for Inactive)
    1  A    between atoms: O_1  and  C_2
    2  A    between atoms: C_5  and  C_8
    3  A    between atoms: C_12  and  O_13
    4  A    between atoms: C_15  and  O_31
    5  A    between atoms: C_19  and  O_20
    6  A    between atoms: O_20  and  C_21
    7  A    between atoms: C_23  and  C_24
    8  A    between atoms: C_25  and  O_30
    9  A    between atoms: C_26  and  O_29
   10  A    between atoms: C_27  and  O_28
                            x       y       z     vdW  Elec       q    Type
                         _______ _______ _______ _____ _____    ______ ____

>  <TORSDO>
F 9

$$$$
=
 OpenBabel09092515023D

 37 40  0  0  1  0  0  0  0  0999 V2000
   85.7780   53.1570   42.8070 C   0  0  1  0  0  3  0  0  0  0  0  0
   87.1170   52.7550   42.5020 O   0  0  0  0  0  0  0  0  0  0  0  0
   87.5120   51.4100   42.4810 C   0  0  0  0  0  0  0  0  0  0  0  0
   88.7510   51.0750   41.9260 C   0  0  0  0  0  3  0  0  0  0  0  0
   89.1660   49.7450   41.8800 C   0  0  0  0  0  0  0  0  0  0  0  0
   88.3500   48.7430   42.4190 C   0  0  0  0  0  3  0  0  0  0  0  0
   87.1240   49.0610   43.0150 C   0  0  0  0  0  0  0  0  0  0  0  0
   86.6780   50.4080   43.0180 C   0  0  0  0  0  0  0  0  0  0  0  0
   85.3710   50.8490   43.5620 C   0  0  0  0  0  0  0  0  0  0  0  0
   84.3910   50.0620   43.6520 O   0  0  0  0  0  0  0  0  0  0  0  0
   85.1970   52.2940   43.9450 C   0  0  1  0  0  3  0  0  0  0  0  0
   85.5830   57.3400   43.8830 C   0  0  0  0  0  0  0  0  0  0  0  0
   86.7210   56.5920   44.1950 C   0  0  0  0  0  3  0  0  0  0  0  0
   86.7970   55.2420   43.8360 C   0  0  0  0  0  3  0  0  0  0  0  0
   85.7320   54.6280   43.1540 C   0  0  0  0  0  0  0  0  0  0  0  0
   84.5840   55.3820   42.8570 C   0  0  0  0  0  3  0  0  0  0  0  0
   84.5140   56.7320   43.2110 C   0  0  0  0  0  3  0  0  0  0  0  0
   85.5200   58.6830   44.2500 O   0  0  0  0  0  0  0  0  0  0  0  0
   86.2200   59.2630   44.0250 H   0  0  0  0  0  0  0  0  0  0  0  0
   90.3940   49.4270   41.3040 O   0  0  0  0  0  0  0  0  0  0  0  0
   91.1100   50.0290   41.3670 H   0  0  0  0  0  0  0  0  0  0  0  0
   86.4100   48.0210   43.6150 O   0  0  0  0  0  0  0  0  0  0  0  0
   86.7370   47.6180   44.3960 H   0  0  0  0  0  0  0  0  0  0  0  0
   85.9100   52.5500   45.1420 O   0  0  0  0  0  0  0  0  0  0  0  0
   85.0840   52.3770   46.2820 C   0  0  2  0  0  3  0  0  0  0  0  0
   84.1560   53.4540   46.3880 O   0  0  0  0  0  0  0  0  0  0  0  0
   84.7580   54.6020   46.9570 C   0  0  1  0  0  3  0  0  0  0  0  0
   83.8420   55.8050   46.7310 C   0  0  0  0  0  1  0  0  0  0  0  0
   85.0260   54.3780   48.4690 C   0  0  1  0  0  3  0  0  0  0  0  0
   85.3220   52.8850   48.7690 C   0  0  2  0  0  3  0  0  0  0  0  0
   85.9830   52.2260   47.5450 C   0  0  1  0  0  3  0  0  0  0  0  0
   86.3090   50.8790   47.7930 O   0  0  0  0  0  0  0  0  0  0  0  0
   87.2610   50.8030   47.9620 H   0  0  0  0  0  0  0  0  0  0  0  0
   84.1250   52.2140   49.0760 O   0  0  0  0  0  0  0  0  0  0  0  0
   83.4980   52.8370   49.4760 H   0  0  0  0  0  0  0  0  0  0  0  0
   86.1170   55.1730   48.8580 O   0  0  0  0  0  0  0  0  0  0  0  0
   86.1220   55.2640   49.8240 H   0  0  0  0  0  0  0  0  0  0  0  0
  1 15  1  1  0  0  0
  1 11  1  0  0  0  0
  2  1  1  0  0  0  0
  3  2  1  0  0  0  0
  3  8  1  0  0  0  0
  4  3  2  0  0  0  0
  5  4  1  0  0  0  0
  5  6  2  0  0  0  0
  6  7  1  0  0  0  0
  7  8  2  0  0  0  0
  7 22  1  0  0  0  0
  8  9  1  0  0  0  0
  9 10  2  0  0  0  0
  9 11  1  0  0  0  0
 11 24  1  1  0  0  0
 12 13  1  0  0  0  0
 12 18  1  0  0  0  0
 14 13  2  0  0  0  0
 15 14  1  0  0  0  0
 16 15  2  0  0  0  0
 16 17  1  0  0  0  0
 17 12  2  0  0  0  0
 19 18  1  0  0  0  0
 20 21  1  0  0  0  0
 20  5  1  0  0  0  0
 22 23  1  0  0  0  0
 25 24  1  6  0  0  0
 25 26  1  0  0  0  0
 25 31  1  0  0  0  0
 26 27  1  0  0  0  0
 27 28  1  1  0  0  0
 27 29  1  0  0  0  0
 29 30  1  0  0  0  0
 29 36  1  6  0  0  0
 30 34  1  6  0  0  0
 31 32  1  1  0  0  0
 31 30  1  0  0  0  0
 32 33  1  0  0  0  0
 34 35  1  0  0  0  0
 36 37  1  0  0  0  0
M  END
>  <MODEL>
8

>  <REMARK>
 VINA RESULT:    -8.285      1.936      4.737
 INTER + INTRA:         -11.857
 INTER:                 -10.389
 INTRA:                  -1.467
 UNBOUND:                -0.666
  Name = 
  10 active torsions:
  status: ('A' for Active; 'I' for Inactive)
    1  A    between atoms: O_1  and  C_2
    2  A    between atoms: C_5  and  C_8
    3  A    between atoms: C_12  and  O_13
    4  A    between atoms: C_15  and  O_31
    5  A    between atoms: C_19  and  O_20
    6  A    between atoms: O_20  and  C_21
    7  A    between atoms: C_23  and  C_24
    8  A    between atoms: C_25  and  O_30
    9  A    between atoms: C_26  and  O_29
   10  A    between atoms: C_27  and  O_28
                            x       y       z     vdW  Elec       q    Type
                         _______ _______ _______ _____ _____    ______ ____

>  <TORSDO>
F 9

$$$$
=
 OpenBabel09092515023D

 37 40  0  0  1  0  0  0  0  0999 V2000
   86.7450   53.2110   44.2020 C   0  0  1  0  0  3  0  0  0  0  0  0
   86.0360   54.4540   44.2560 O   0  0  0  0  0  0  0  0  0  0  0  0
   85.2730   54.8370   45.3670 C   0  0  0  0  0  0  0  0  0  0  0  0
   84.8270   56.1580   45.4610 C   0  0  0  0  0  3  0  0  0  0  0  0
   84.0750   56.5710   46.5610 C   0  0  0  0  0  0  0  0  0  0  0  0
   83.7420   55.6500   47.5610 C   0  0  0  0  0  3  0  0  0  0  0  0
   84.1450   54.3130   47.4670 C   0  0  0  0  0  0  0  0  0  0  0  0
   84.9500   53.9020   46.3740 C   0  0  0  0  0  0  0  0  0  0  0  0
   85.4870   52.5300   46.2070 C   0  0  0  0  0  0  0  0  0  0  0  0
   85.6550   51.7600   47.1890 O   0  0  0  0  0  0  0  0  0  0  0  0
   85.9090   52.0800   44.8340 C   0  0  1  0  0  3  0  0  0  0  0  0
   87.8800   52.3670   40.1170 C   0  0  0  0  0  0  0  0  0  0  0  0
   88.6930   51.9380   41.1700 C   0  0  0  0  0  3  0  0  0  0  0  0
   88.3230   52.1940   42.4940 C   0  0  0  0  0  3  0  0  0  0  0  0
   87.1300   52.8810   42.7780 C   0  0  0  0  0  0  0  0  0  0  0  0
   86.3250   53.3230   41.7140 C   0  0  0  0  0  3  0  0  0  0  0  0
   86.6940   53.0590   40.3920 C   0  0  0  0  0  3  0  0  0  0  0  0
   88.2640   52.1080   38.8020 O   0  0  0  0  0  0  0  0  0  0  0  0
   88.1450   52.7600   38.1420 H   0  0  0  0  0  0  0  0  0  0  0  0
   83.6570   57.8970   46.6490 O   0  0  0  0  0  0  0  0  0  0  0  0
   83.1630   58.1840   47.3910 H   0  0  0  0  0  0  0  0  0  0  0  0
   83.6940   53.4330   48.4530 O   0  0  0  0  0  0  0  0  0  0  0  0
   84.2860   53.1190   49.1080 H   0  0  0  0  0  0  0  0  0  0  0  0
   84.7560   51.8480   44.0420 O   0  0  0  0  0  0  0  0  0  0  0  0
   84.8050   50.5750   43.4190 C   0  0  2  0  0  3  0  0  0  0  0  0
   83.8880   50.5230   42.3290 O   0  0  0  0  0  0  0  0  0  0  0  0
   82.5650   50.2900   42.7770 C   0  0  1  0  0  3  0  0  0  0  0  0
   81.5960   50.5830   41.6320 C   0  0  0  0  0  1  0  0  0  0  0  0
   82.4140   48.8290   43.2770 C   0  0  1  0  0  3  0  0  0  0  0  0
   83.7430   48.3040   43.8820 C   0  0  2  0  0  3  0  0  0  0  0  0
   84.5400   49.4740   44.4880 C   0  0  1  0  0  3  0  0  0  0  0  0
   85.7350   49.0330   45.0880 O   0  0  0  0  0  0  0  0  0  0  0  0
   85.5930   48.1610   45.4860 H   0  0  0  0  0  0  0  0  0  0  0  0
   84.5100   47.6810   42.8810 O   0  0  0  0  0  0  0  0  0  0  0  0
   85.4390   47.9420   42.9750 H   0  0  0  0  0  0  0  0  0  0  0  0
   81.3950   48.7830   44.2440 O   0  0  0  0  0  0  0  0  0  0  0  0
   81.5100   47.9960   44.7970 H   0  0  0  0  0  0  0  0  0  0  0  0
  1 15  1  6  0  0  0
  1  2  1  0  0  0  0
  1 11  1  0  0  0  0
  2  3  1  0  0  0  0
  3  4  2  0  0  0  0
  3  8  1  0  0  0  0
  4  5  1  0  0  0  0
  5 20  1  0  0  0  0
  5  6  2  0  0  0  0
  7  6  1  0  0  0  0
  7 22  1  0  0  0  0
  8  7  2  0  0  0  0
  9  8  1  0  0  0  0
  9 10  2  0  0  0  0
 11 24  1  6  0  0  0
 11  9  1  0  0  0  0
 12 17  2  0  0  0  0
 12 13  1  0  0  0  0
 13 14  2  0  0  0  0
 14 15  1  0  0  0  0
 16 15  2  0  0  0  0
 17 16  1  0  0  0  0
 18 12  1  0  0  0  0
 19 18  1  0  0  0  0
 20 21  1  0  0  0  0
 22 23  1  0  0  0  0
 25 24  1  1  0  0  0
 25 31  1  0  0  0  0
 26 27  1  0  0  0  0
 26 25  1  0  0  0  0
 27 28  1  6  0  0  0
 27 29  1  0  0  0  0
 29 30  1  0  0  0  0
 29 36  1  1  0  0  0
 30 34  1  6  0  0  0
 30 31  1  0  0  0  0
 31 32  1  6  0  0  0
 32 33  1  0  0  0  0
 34 35  1  0  0  0  0
 36 37  1  0  0  0  0
M  END
>  <MODEL>
9

>  <REMARK>
 VINA RESULT:    -8.209      2.410      7.037
 INTER + INTRA:         -11.754
 INTER:                 -11.088
 INTRA:                  -0.666
 UNBOUND:                -0.666
  Name = 
  10 active torsions:
  status: ('A' for Active; 'I' for Inactive)
    1  A    between atoms: O_1  and  C_2
    2  A    between atoms: C_5  and  C_8
    3  A    between atoms: C_12  and  O_13
    4  A    between atoms: C_15  and  O_31
    5  A    between atoms: C_19  and  O_20
    6  A    between atoms: O_20  and  C_21
    7  A    between atoms: C_23  and  C_24
    8  A    between atoms: C_25  and  O_30
    9  A    between atoms: C_26  and  O_29
   10  A    between atoms: C_27  and  O_28
                            x       y       z     vdW  Elec       q    Type
                         _______ _______ _______ _____ _____    ______ ____

>  <TORSDO>
F 9

$$$$
