=
 OpenBabel08112514243D

 37 40  0  0  1  0  0  0  0  0999 V2000
   86.6290   51.9670   45.5590 C   0  0  1  0  0  3  0  0  0  0  0  0
   86.0060   50.6790   45.6000 O   0  0  0  0  0  0  0  0  0  0  0  0
   86.3020   49.6710   44.6720 C   0  0  0  0  0  0  0  0  0  0  0  0
   85.8610   48.3690   44.9210 C   0  0  0  0  0  3  0  0  0  0  0  0
   86.1490   47.3430   44.0220 C   0  0  0  0  0  0  0  0  0  0  0  0
   86.8600   47.6250   42.8490 C   0  0  0  0  0  3  0  0  0  0  0  0
   87.2770   48.9300   42.5610 C   0  0  0  0  0  0  0  0  0  0  0  0
   87.0260   49.9650   43.4980 C   0  0  0  0  0  0  0  0  0  0  0  0
   87.4780   51.3680   43.3270 C   0  0  0  0  0  0  0  0  0  0  0  0
   88.4640   51.6620   42.6000 O   0  0  0  0  0  0  0  0  0  0  0  0
   86.7820   52.4520   44.1040 C   0  0  1  0  0  3  0  0  0  0  0  0
   84.4190   54.7470   48.0250 C   0  0  0  0  0  0  0  0  0  0  0  0
   85.7220   55.0540   47.6240 C   0  0  0  0  0  3  0  0  0  0  0  0
   86.4370   54.1660   46.8130 C   0  0  0  0  0  3  0  0  0  0  0  0
   85.8500   52.9600   46.3910 C   0  0  0  0  0  0  0  0  0  0  0  0
   84.5450   52.6520   46.8100 C   0  0  0  0  0  3  0  0  0  0  0  0
   83.8310   53.5440   47.6140 C   0  0  0  0  0  3  0  0  0  0  0  0
   83.7210   55.6410   48.8350 O   0  0  0  0  0  0  0  0  0  0  0  0
   82.9590   55.3560   49.2990 H   0  0  0  0  0  0  0  0  0  0  0  0
   85.7200   46.0460   44.2970 O   0  0  0  0  0  0  0  0  0  0  0  0
   85.5120   45.4630   43.5940 H   0  0  0  0  0  0  0  0  0  0  0  0
   87.8960   49.1510   41.3290 O   0  0  0  0  0  0  0  0  0  0  0  0
   88.8240   49.0560   41.2460 H   0  0  0  0  0  0  0  0  0  0  0  0
   85.4980   52.6780   43.5450 O   0  0  0  0  0  0  0  0  0  0  0  0
   85.5560   53.6140   42.4820 C   0  0  2  0  0  3  0  0  0  0  0  0
   86.3220   54.7530   42.8670 O   0  0  0  0  0  0  0  0  0  0  0  0
   85.5590   55.6460   43.6580 C   0  0  1  0  0  3  0  0  0  0  0  0
   86.5020   56.6510   44.3200 C   0  0  0  0  0  1  0  0  0  0  0  0
   84.4970   56.3670   42.7860 C   0  0  1  0  0  3  0  0  0  0  0  0
   84.0170   55.4570   41.6240 C   0  0  2  0  0  3  0  0  0  0  0  0
   84.1060   53.9790   42.0450 C   0  0  1  0  0  3  0  0  0  0  0  0
   83.6370   53.1210   41.0320 O   0  0  0  0  0  0  0  0  0  0  0  0
   84.2140   53.1920   40.2560 H   0  0  0  0  0  0  0  0  0  0  0  0
   84.8190   55.6720   40.4880 O   0  0  0  0  0  0  0  0  0  0  0  0
   84.7930   56.6120   40.2470 H   0  0  0  0  0  0  0  0  0  0  0  0
   83.4080   56.7220   43.6000 O   0  0  0  0  0  0  0  0  0  0  0  0
   82.5800   56.5360   43.1300 H   0  0  0  0  0  0  0  0  0  0  0  0
  1  2  1  0  0  0  0
  1 15  1  1  0  0  0
  3  4  1  0  0  0  0
  3  2  1  0  0  0  0
  5 20  1  0  0  0  0
  5  4  2  0  0  0  0
  6  5  1  0  0  0  0
  7  6  2  0  0  0  0
  7  8  1  0  0  0  0
  8  3  2  0  0  0  0
  9  8  1  0  0  0  0
  9 11  1  0  0  0  0
 10  9  2  0  0  0  0
 11 24  1  6  0  0  0
 11  1  1  0  0  0  0
 12 18  1  0  0  0  0
 13 12  1  0  0  0  0
 14 13  2  0  0  0  0
 15 16  2  0  0  0  0
 15 14  1  0  0  0  0
 16 17  1  0  0  0  0
 17 12  2  0  0  0  0
 18 19  1  0  0  0  0
 21 20  1  0  0  0  0
 22  7  1  0  0  0  0
 23 22  1  0  0  0  0
 25 26  1  0  0  0  0
 25 24  1  1  0  0  0
 26 27  1  0  0  0  0
 27 28  1  6  0  0  0
 29 36  1  1  0  0  0
 29 27  1  0  0  0  0
 30 34  1  6  0  0  0
 30 31  1  0  0  0  0
 30 29  1  0  0  0  0
 31 32  1  6  0  0  0
 31 25  1  0  0  0  0
 33 32  1  0  0  0  0
 35 34  1  0  0  0  0
 37 36  1  0  0  0  0
M  END
>  <MODEL>
1

>  <REMARK>
 VINA RESULT:    -9.298      0.000      0.000
 INTER + INTRA:         -13.880
 INTER:                 -12.626
 INTRA:                  -1.254
 UNBOUND:                -1.320
  Name = 
  10 active torsions:
  status: ('A' for Active; 'I' for Inactive)
    1  A    between atoms: O_1  and  C_2
    2  A    between atoms: C_5  and  C_8
    3  A    between atoms: C_12  and  O_13
    4  A    between atoms: C_15  and  O_31
    5  A    between atoms: C_19  and  O_20
    6  A    between atoms: O_20  and  C_21
    7  A    between atoms: C_23  and  C_24
    8  A    between atoms: C_25  and  O_30
    9  A    between atoms: C_26  and  O_29
   10  A    between atoms: C_27  and  O_28
                            x       y       z     vdW  Elec       q    Type
                         _______ _______ _______ _____ _____    ______ ____

>  <TORSDO>
F 9

$$$$
=
 OpenBabel08112514243D

 37 40  0  0  1  0  0  0  0  0999 V2000
   87.2500   52.5230   44.6100 C   0  0  1  0  0  3  0  0  0  0  0  0
   86.8770   51.1440   44.5160 O   0  0  0  0  0  0  0  0  0  0  0  0
   87.3890   50.2920   43.5280 C   0  0  0  0  0  0  0  0  0  0  0  0
   87.1890   48.9140   43.6510 C   0  0  0  0  0  3  0  0  0  0  0  0
   87.6960   48.0410   42.6900 C   0  0  0  0  0  0  0  0  0  0  0  0
   88.3850   48.5490   41.5820 C   0  0  0  0  0  3  0  0  0  0  0  0
   88.5610   49.9280   41.4200 C   0  0  0  0  0  0  0  0  0  0  0  0
   88.0890   50.8150   42.4210 C   0  0  0  0  0  0  0  0  0  0  0  0
   88.2770   52.2860   42.3840 C   0  0  0  0  0  0  0  0  0  0  0  0
   89.2170   52.8170   41.7360 O   0  0  0  0  0  0  0  0  0  0  0  0
   87.3630   53.1530   43.2070 C   0  0  1  0  0  3  0  0  0  0  0  0
   84.4900   54.6460   47.1720 C   0  0  0  0  0  0  0  0  0  0  0  0
   85.5880   55.3150   46.6240 C   0  0  0  0  0  3  0  0  0  0  0  0
   86.4750   54.6380   45.7810 C   0  0  0  0  0  3  0  0  0  0  0  0
   86.2700   53.2810   45.4750 C   0  0  0  0  0  0  0  0  0  0  0  0
   85.1730   52.6110   46.0430 C   0  0  0  0  0  3  0  0  0  0  0  0
   84.2830   53.2920   46.8780 C   0  0  0  0  0  3  0  0  0  0  0  0
   83.6160   55.3330   48.0130 O   0  0  0  0  0  0  0  0  0  0  0  0
   83.0740   56.0140   47.6690 H   0  0  0  0  0  0  0  0  0  0  0  0
   87.5060   46.6680   42.8390 O   0  0  0  0  0  0  0  0  0  0  0  0
   88.2430   46.0900   42.8260 H   0  0  0  0  0  0  0  0  0  0  0  0
   89.1730   50.3650   40.2420 O   0  0  0  0  0  0  0  0  0  0  0  0
   90.0520   50.6890   40.2620 H   0  0  0  0  0  0  0  0  0  0  0  0
   86.0810   53.1880   42.6020 O   0  0  0  0  0  0  0  0  0  0  0  0
   85.9790   54.2550   41.6730 C   0  0  2  0  0  3  0  0  0  0  0  0
   85.2200   55.3250   42.2320 O   0  0  0  0  0  0  0  0  0  0  0  0
   83.8290   55.0720   42.1470 C   0  0  1  0  0  3  0  0  0  0  0  0
   83.0910   56.0600   43.0500 C   0  0  0  0  0  1  0  0  0  0  0  0
   83.3470   55.1900   40.6770 C   0  0  1  0  0  3  0  0  0  0  0  0
   84.4660   54.7700   39.6870 C   0  0  2  0  0  3  0  0  0  0  0  0
   85.3760   53.7150   40.3420 C   0  0  1  0  0  3  0  0  0  0  0  0
   86.3800   53.2740   39.4590 O   0  0  0  0  0  0  0  0  0  0  0  0
   86.4930   53.9240   38.7480 H   0  0  0  0  0  0  0  0  0  0  0  0
   85.2310   55.8940   39.3260 O   0  0  0  0  0  0  0  0  0  0  0  0
   85.5020   55.8160   38.3980 H   0  0  0  0  0  0  0  0  0  0  0  0
   82.2190   54.3710   40.5030 O   0  0  0  0  0  0  0  0  0  0  0  0
   81.8640   54.4960   39.6090 H   0  0  0  0  0  0  0  0  0  0  0  0
  1 15  1  1  0  0  0
  2  1  1  0  0  0  0
  3  4  1  0  0  0  0
  3  2  1  0  0  0  0
  5 20  1  0  0  0  0
  5  4  2  0  0  0  0
  6  5  1  0  0  0  0
  7  6  2  0  0  0  0
  7  8  1  0  0  0  0
  8  3  2  0  0  0  0
  9  8  1  0  0  0  0
  9 11  1  0  0  0  0
 10  9  2  0  0  0  0
 11 24  1  6  0  0  0
 11  1  1  0  0  0  0
 12 18  1  0  0  0  0
 13 12  2  0  0  0  0
 14 13  1  0  0  0  0
 15 14  2  0  0  0  0
 15 16  1  0  0  0  0
 16 17  2  0  0  0  0
 17 12  1  0  0  0  0
 19 18  1  0  0  0  0
 21 20  1  0  0  0  0
 22 23  1  0  0  0  0
 22  7  1  0  0  0  0
 25 26  1  0  0  0  0
 25 24  1  1  0  0  0
 27 26  1  0  0  0  0
 27 28  1  1  0  0  0
 29 36  1  1  0  0  0
 29 27  1  0  0  0  0
 30 34  1  1  0  0  0
 30 31  1  0  0  0  0
 30 29  1  0  0  0  0
 31 32  1  6  0  0  0
 31 25  1  0  0  0  0
 33 32  1  0  0  0  0
 35 34  1  0  0  0  0
 37 36  1  0  0  0  0
M  END
>  <MODEL>
2

>  <REMARK>
 VINA RESULT:    -8.786      1.489      1.954
 INTER + INTRA:         -13.188
 INTER:                 -11.762
 INTRA:                  -1.426
 UNBOUND:                -1.320
  Name = 
  10 active torsions:
  status: ('A' for Active; 'I' for Inactive)
    1  A    between atoms: O_1  and  C_2
    2  A    between atoms: C_5  and  C_8
    3  A    between atoms: C_12  and  O_13
    4  A    between atoms: C_15  and  O_31
    5  A    between atoms: C_19  and  O_20
    6  A    between atoms: O_20  and  C_21
    7  A    between atoms: C_23  and  C_24
    8  A    between atoms: C_25  and  O_30
    9  A    between atoms: C_26  and  O_29
   10  A    between atoms: C_27  and  O_28
                            x       y       z     vdW  Elec       q    Type
                         _______ _______ _______ _____ _____    ______ ____

>  <TORSDO>
F 9

$$$$
=
 OpenBabel08112514243D

 37 40  0  0  1  0  0  0  0  0999 V2000
   85.0970   52.7730   44.9320 C   0  0  1  0  0  3  0  0  0  0  0  0
   83.9590   52.2280   44.2560 O   0  0  0  0  0  0  0  0  0  0  0  0
   83.7190   50.8490   44.1810 C   0  0  0  0  0  0  0  0  0  0  0  0
   82.4700   50.4010   43.7410 C   0  0  0  0  0  3  0  0  0  0  0  0
   82.1980   49.0350   43.6660 C   0  0  0  0  0  0  0  0  0  0  0  0
   83.1900   48.1080   44.0080 C   0  0  0  0  0  3  0  0  0  0  0  0
   84.4600   48.5360   44.4140 C   0  0  0  0  0  0  0  0  0  0  0  0
   84.7230   49.9240   44.5360 C   0  0  0  0  0  0  0  0  0  0  0  0
   86.0080   50.4870   45.0180 C   0  0  0  0  0  0  0  0  0  0  0  0
   86.7850   49.8260   45.7570 O   0  0  0  0  0  0  0  0  0  0  0  0
   86.3490   51.9110   44.6720 C   0  0  1  0  0  3  0  0  0  0  0  0
   85.6560   56.9090   43.8010 C   0  0  0  0  0  0  0  0  0  0  0  0
   86.4540   56.3450   44.8010 C   0  0  0  0  0  3  0  0  0  0  0  0
   86.2880   55.0030   45.1600 C   0  0  0  0  0  3  0  0  0  0  0  0
   85.3230   54.2090   44.5170 C   0  0  0  0  0  0  0  0  0  0  0  0
   84.5140   54.7870   43.5230 C   0  0  0  0  0  3  0  0  0  0  0  0
   84.6860   56.1260   43.1610 C   0  0  0  0  0  3  0  0  0  0  0  0
   85.8290   58.2480   43.4560 O   0  0  0  0  0  0  0  0  0  0  0  0
   85.1650   58.6970   42.9730 H   0  0  0  0  0  0  0  0  0  0  0  0
   80.9410   48.6070   43.2450 O   0  0  0  0  0  0  0  0  0  0  0  0
   80.8630   48.0430   42.5010 H   0  0  0  0  0  0  0  0  0  0  0  0
   85.4260   47.5540   44.6450 O   0  0  0  0  0  0  0  0  0  0  0  0
   85.2780   46.6740   44.3610 H   0  0  0  0  0  0  0  0  0  0  0  0
   86.6980   51.9890   43.3000 O   0  0  0  0  0  0  0  0  0  0  0  0
   87.8990   51.2820   43.0330 C   0  0  2  0  0  3  0  0  0  0  0  0
   88.9280   52.1880   42.6420 O   0  0  0  0  0  0  0  0  0  0  0  0
   88.8020   52.5570   41.2810 C   0  0  1  0  0  3  0  0  0  0  0  0
   89.6970   53.7670   41.0110 C   0  0  0  0  0  1  0  0  0  0  0  0
   89.1800   51.3660   40.3610 C   0  0  1  0  0  3  0  0  0  0  0  0
   88.8280   50.0100   41.0290 C   0  0  2  0  0  3  0  0  0  0  0  0
   87.6170   50.1860   41.9640 C   0  0  1  0  0  3  0  0  0  0  0  0
   87.2370   48.9670   42.5560 O   0  0  0  0  0  0  0  0  0  0  0  0
   87.6590   48.2330   42.0840 H   0  0  0  0  0  0  0  0  0  0  0  0
   89.9290   49.5420   41.7670 O   0  0  0  0  0  0  0  0  0  0  0  0
   90.7510   49.7960   41.3190 H   0  0  0  0  0  0  0  0  0  0  0  0
   88.4900   51.4960   39.1440 O   0  0  0  0  0  0  0  0  0  0  0  0
   87.9880   50.6850   38.9690 H   0  0  0  0  0  0  0  0  0  0  0  0
  1 15  1  6  0  0  0
  2  1  1  0  0  0  0
  3  2  1  0  0  0  0
  3  8  1  0  0  0  0
  4  3  2  0  0  0  0
  5  4  1  0  0  0  0
  5  6  2  0  0  0  0
  6  7  1  0  0  0  0
  7  8  2  0  0  0  0
  7 22  1  0  0  0  0
  8  9  1  0  0  0  0
  9 10  2  0  0  0  0
 11 24  1  6  0  0  0
 11  1  1  0  0  0  0
 11  9  1  0  0  0  0
 12 13  1  0  0  0  0
 13 14  2  0  0  0  0
 15 14  1  0  0  0  0
 16 15  2  0  0  0  0
 17 16  1  0  0  0  0
 17 12  2  0  0  0  0
 18 12  1  0  0  0  0
 19 18  1  0  0  0  0
 20  5  1  0  0  0  0
 21 20  1  0  0  0  0
 23 22  1  0  0  0  0
 25 24  1  6  0  0  0
 26 25  1  0  0  0  0
 27 28  1  6  0  0  0
 27 26  1  0  0  0  0
 29 36  1  6  0  0  0
 29 30  1  0  0  0  0
 29 27  1  0  0  0  0
 30 34  1  1  0  0  0
 30 31  1  0  0  0  0
 31 32  1  1  0  0  0
 31 25  1  0  0  0  0
 33 32  1  0  0  0  0
 35 34  1  0  0  0  0
 37 36  1  0  0  0  0
M  END
>  <MODEL>
3

>  <REMARK>
 VINA RESULT:    -8.473      2.377      4.658
 INTER + INTRA:         -12.766
 INTER:                 -11.620
 INTRA:                  -1.146
 UNBOUND:                -1.320
  Name = 
  10 active torsions:
  status: ('A' for Active; 'I' for Inactive)
    1  A    between atoms: O_1  and  C_2
    2  A    between atoms: C_5  and  C_8
    3  A    between atoms: C_12  and  O_13
    4  A    between atoms: C_15  and  O_31
    5  A    between atoms: C_19  and  O_20
    6  A    between atoms: O_20  and  C_21
    7  A    between atoms: C_23  and  C_24
    8  A    between atoms: C_25  and  O_30
    9  A    between atoms: C_26  and  O_29
   10  A    between atoms: C_27  and  O_28
                            x       y       z     vdW  Elec       q    Type
                         _______ _______ _______ _____ _____    ______ ____

>  <TORSDO>
F 9

$$$$
=
 OpenBabel08112514243D

 37 40  0  0  1  0  0  0  0  0999 V2000
   84.1660   51.3170   43.8530 C   0  0  1  0  0  3  0  0  0  0  0  0
   84.6640   51.8050   45.1040 O   0  0  0  0  0  0  0  0  0  0  0  0
   85.1850   53.0970   45.2540 C   0  0  0  0  0  0  0  0  0  0  0  0
   85.4070   53.5940   46.5400 C   0  0  0  0  0  3  0  0  0  0  0  0
   85.9150   54.8810   46.7210 C   0  0  0  0  0  0  0  0  0  0  0  0
   86.2300   55.6670   45.6060 C   0  0  0  0  0  3  0  0  0  0  0  0
   86.0520   55.1730   44.3080 C   0  0  0  0  0  0  0  0  0  0  0  0
   85.4910   53.8840   44.1230 C   0  0  0  0  0  0  0  0  0  0  0  0
   85.1980   53.2880   42.7970 C   0  0  0  0  0  0  0  0  0  0  0  0
   85.0030   54.0020   41.7780 O   0  0  0  0  0  0  0  0  0  0  0  0
   85.0590   51.7930   42.6900 C   0  0  1  0  0  3  0  0  0  0  0  0
   83.8470   47.0060   43.8200 C   0  0  0  0  0  0  0  0  0  0  0  0
   85.0650   47.6120   44.1390 C   0  0  0  0  0  3  0  0  0  0  0  0
   85.1710   49.0070   44.1660 C   0  0  0  0  0  3  0  0  0  0  0  0
   84.0530   49.8100   43.8790 C   0  0  0  0  0  0  0  0  0  0  0  0
   82.8360   49.1930   43.5450 C   0  0  0  0  0  3  0  0  0  0  0  0
   82.7310   47.7990   43.5250 C   0  0  0  0  0  3  0  0  0  0  0  0
   83.7580   45.6150   43.7920 O   0  0  0  0  0  0  0  0  0  0  0  0
   83.4530   45.1500   44.5460 H   0  0  0  0  0  0  0  0  0  0  0  0
   86.1100   55.3680   48.0110 O   0  0  0  0  0  0  0  0  0  0  0  0
   85.7820   56.2130   48.2470 H   0  0  0  0  0  0  0  0  0  0  0  0
   86.4780   55.9780   43.2490 O   0  0  0  0  0  0  0  0  0  0  0  0
   86.1220   55.8520   42.3920 H   0  0  0  0  0  0  0  0  0  0  0  0
   86.3390   51.1950   42.8040 O   0  0  0  0  0  0  0  0  0  0  0  0
   86.9900   51.1250   41.5460 C   0  0  2  0  0  3  0  0  0  0  0  0
   87.2010   49.7650   41.1730 O   0  0  0  0  0  0  0  0  0  0  0  0
   88.3330   49.2200   41.8260 C   0  0  1  0  0  3  0  0  0  0  0  0
   88.3110   47.7000   41.6670 C   0  0  0  0  0  1  0  0  0  0  0  0
   89.6370   49.8250   41.2430 C   0  0  1  0  0  3  0  0  0  0  0  0
   89.4110   51.2830   40.7620 C   0  0  2  0  0  3  0  0  0  0  0  0
   88.3100   51.9480   41.6090 C   0  0  1  0  0  3  0  0  0  0  0  0
   88.1050   53.2890   41.2330 O   0  0  0  0  0  0  0  0  0  0  0  0
   88.1080   53.8500   42.0240 H   0  0  0  0  0  0  0  0  0  0  0  0
   89.0300   51.2850   39.4080 O   0  0  0  0  0  0  0  0  0  0  0  0
   89.7010   51.7490   38.8840 H   0  0  0  0  0  0  0  0  0  0  0  0
   90.6340   49.7940   42.2330 O   0  0  0  0  0  0  0  0  0  0  0  0
   90.2190   49.7090   43.1050 H   0  0  0  0  0  0  0  0  0  0  0  0
  1 15  1  1  0  0  0
  1  2  1  0  0  0  0
  2  3  1  0  0  0  0
  3  4  1  0  0  0  0
  4  5  2  0  0  0  0
  5 20  1  0  0  0  0
  6  5  1  0  0  0  0
  7  6  2  0  0  0  0
  8  7  1  0  0  0  0
  8  3  2  0  0  0  0
  9  8  1  0  0  0  0
 10  9  2  0  0  0  0
 11  9  1  0  0  0  0
 11 24  1  1  0  0  0
 11  1  1  0  0  0  0
 12 13  1  0  0  0  0
 13 14  2  0  0  0  0
 15 14  1  0  0  0  0
 16 15  2  0  0  0  0
 17 16  1  0  0  0  0
 17 12  2  0  0  0  0
 18 12  1  0  0  0  0
 18 19  1  0  0  0  0
 20 21  1  0  0  0  0
 22  7  1  0  0  0  0
 23 22  1  0  0  0  0
 25 31  1  0  0  0  0
 25 24  1  1  0  0  0
 26 25  1  0  0  0  0
 26 27  1  0  0  0  0
 27 28  1  6  0  0  0
 29 27  1  0  0  0  0
 29 36  1  1  0  0  0
 30 34  1  6  0  0  0
 30 29  1  0  0  0  0
 30 31  1  0  0  0  0
 31 32  1  6  0  0  0
 32 33  1  0  0  0  0
 35 34  1  0  0  0  0
 36 37  1  0  0  0  0
M  END
>  <MODEL>
4

>  <REMARK>
 VINA RESULT:    -8.429      2.093      6.546
 INTER + INTRA:         -12.706
 INTER:                 -11.729
 INTRA:                  -0.978
 UNBOUND:                -1.320
  Name = 
  10 active torsions:
  status: ('A' for Active; 'I' for Inactive)
    1  A    between atoms: O_1  and  C_2
    2  A    between atoms: C_5  and  C_8
    3  A    between atoms: C_12  and  O_13
    4  A    between atoms: C_15  and  O_31
    5  A    between atoms: C_19  and  O_20
    6  A    between atoms: O_20  and  C_21
    7  A    between atoms: C_23  and  C_24
    8  A    between atoms: C_25  and  O_30
    9  A    between atoms: C_26  and  O_29
   10  A    between atoms: C_27  and  O_28
                            x       y       z     vdW  Elec       q    Type
                         _______ _______ _______ _____ _____    ______ ____

>  <TORSDO>
F 9

$$$$
=
 OpenBabel08112514243D

 37 40  0  0  1  0  0  0  0  0999 V2000
   85.3670   52.6520   45.4690 C   0  0  1  0  0  3  0  0  0  0  0  0
   85.6440   54.0290   45.7420 O   0  0  0  0  0  0  0  0  0  0  0  0
   85.2730   55.0590   44.8670 C   0  0  0  0  0  0  0  0  0  0  0  0
   85.3380   56.3830   45.3100 C   0  0  0  0  0  3  0  0  0  0  0  0
   84.9640   57.4280   44.4650 C   0  0  0  0  0  0  0  0  0  0  0  0
   84.5490   57.1510   43.1570 C   0  0  0  0  0  3  0  0  0  0  0  0
   84.5150   55.8340   42.6810 C   0  0  0  0  0  0  0  0  0  0  0  0
   84.8480   54.7670   43.5540 C   0  0  0  0  0  0  0  0  0  0  0  0
   84.7840   53.3340   43.1760 C   0  0  0  0  0  0  0  0  0  0  0  0
   84.0340   52.9260   42.2500 O   0  0  0  0  0  0  0  0  0  0  0  0
   85.5820   52.3390   43.9750 C   0  0  1  0  0  3  0  0  0  0  0  0
   87.8710   50.1540   47.9560 C   0  0  0  0  0  0  0  0  0  0  0  0
   86.9860   51.0620   48.5450 C   0  0  0  0  0  3  0  0  0  0  0  0
   86.1630   51.8610   47.7470 C   0  0  0  0  0  3  0  0  0  0  0  0
   86.2130   51.7560   46.3450 C   0  0  0  0  0  0  0  0  0  0  0  0
   87.1150   50.8520   45.7590 C   0  0  0  0  0  3  0  0  0  0  0  0
   87.9320   50.0490   46.5610 C   0  0  0  0  0  3  0  0  0  0  0  0
   88.6870   49.3660   48.7650 O   0  0  0  0  0  0  0  0  0  0  0  0
   88.6820   48.4350   48.6700 H   0  0  0  0  0  0  0  0  0  0  0  0
   85.0150   58.7400   44.9310 O   0  0  0  0  0  0  0  0  0  0  0  0
   84.2430   59.2700   44.9210 H   0  0  0  0  0  0  0  0  0  0  0  0
   84.1830   55.6450   41.3370 O   0  0  0  0  0  0  0  0  0  0  0  0
   84.7850   55.8960   40.6650 H   0  0  0  0  0  0  0  0  0  0  0  0
   86.9560   52.4790   43.6570 O   0  0  0  0  0  0  0  0  0  0  0  0
   87.2150   52.1090   42.3130 C   0  0  2  0  0  3  0  0  0  0  0  0
   86.8380   50.7520   42.0920 O   0  0  0  0  0  0  0  0  0  0  0  0
   87.8280   49.8570   42.5650 C   0  0  1  0  0  3  0  0  0  0  0  0
   87.2360   48.4490   42.6210 C   0  0  0  0  0  1  0  0  0  0  0  0
   89.0790   49.9010   41.6470 C   0  0  1  0  0  3  0  0  0  0  0  0
   89.2700   51.3120   41.0310 C   0  0  2  0  0  3  0  0  0  0  0  0
   88.7140   52.3820   41.9890 C   0  0  1  0  0  3  0  0  0  0  0  0
   88.9080   53.6820   41.4850 O   0  0  0  0  0  0  0  0  0  0  0  0
   89.6200   54.1160   41.9790 H   0  0  0  0  0  0  0  0  0  0  0  0
   88.5980   51.3890   39.7980 O   0  0  0  0  0  0  0  0  0  0  0  0
   88.4410   52.3190   39.5720 H   0  0  0  0  0  0  0  0  0  0  0  0
   90.2090   49.5500   42.4040 O   0  0  0  0  0  0  0  0  0  0  0  0
   90.0170   48.7520   42.9200 H   0  0  0  0  0  0  0  0  0  0  0  0
  1  2  1  0  0  0  0
  1 15  1  1  0  0  0
  3  4  1  0  0  0  0
  3  2  1  0  0  0  0
  5 20  1  0  0  0  0
  5  4  2  0  0  0  0
  6  5  1  0  0  0  0
  7  6  2  0  0  0  0
  7  8  1  0  0  0  0
  8  3  2  0  0  0  0
  9  8  1  0  0  0  0
  9 11  1  0  0  0  0
 10  9  2  0  0  0  0
 11 24  1  6  0  0  0
 11  1  1  0  0  0  0
 12 13  1  0  0  0  0
 12 18  1  0  0  0  0
 14 13  2  0  0  0  0
 15 14  1  0  0  0  0
 16 15  2  0  0  0  0
 16 17  1  0  0  0  0
 17 12  2  0  0  0  0
 19 18  1  0  0  0  0
 21 20  1  0  0  0  0
 22  7  1  0  0  0  0
 23 22  1  0  0  0  0
 25 24  1  1  0  0  0
 26 25  1  0  0  0  0
 26 27  1  0  0  0  0
 27 28  1  6  0  0  0
 29 36  1  1  0  0  0
 29 27  1  0  0  0  0
 30 34  1  6  0  0  0
 30 29  1  0  0  0  0
 30 31  1  0  0  0  0
 31 32  1  6  0  0  0
 31 25  1  0  0  0  0
 32 33  1  0  0  0  0
 35 34  1  0  0  0  0
 36 37  1  0  0  0  0
M  END
>  <MODEL>
5

>  <REMARK>
 VINA RESULT:    -8.374      2.148      6.312
 INTER + INTRA:         -12.632
 INTER:                 -12.224
 INTRA:                  -0.407
 UNBOUND:                -1.320
  Name = 
  10 active torsions:
  status: ('A' for Active; 'I' for Inactive)
    1  A    between atoms: O_1  and  C_2
    2  A    between atoms: C_5  and  C_8
    3  A    between atoms: C_12  and  O_13
    4  A    between atoms: C_15  and  O_31
    5  A    between atoms: C_19  and  O_20
    6  A    between atoms: O_20  and  C_21
    7  A    between atoms: C_23  and  C_24
    8  A    between atoms: C_25  and  O_30
    9  A    between atoms: C_26  and  O_29
   10  A    between atoms: C_27  and  O_28
                            x       y       z     vdW  Elec       q    Type
                         _______ _______ _______ _____ _____    ______ ____

>  <TORSDO>
F 9

$$$$
=
 OpenBabel08112514243D

 37 40  0  0  1  0  0  0  0  0999 V2000
   87.2980   53.1280   44.3300 C   0  0  1  0  0  3  0  0  0  0  0  0
   86.2240   54.0720   44.4100 O   0  0  0  0  0  0  0  0  0  0  0  0
   85.5430   54.3360   45.6050 C   0  0  0  0  0  0  0  0  0  0  0  0
   84.6930   55.4440   45.6710 C   0  0  0  0  0  3  0  0  0  0  0  0
   84.0100   55.7390   46.8510 C   0  0  0  0  0  0  0  0  0  0  0  0
   84.1550   54.9050   47.9660 C   0  0  0  0  0  3  0  0  0  0  0  0
   84.9710   53.7690   47.9090 C   0  0  0  0  0  0  0  0  0  0  0  0
   85.7040   53.4940   46.7260 C   0  0  0  0  0  0  0  0  0  0  0  0
   86.6450   52.3580   46.5760 C   0  0  0  0  0  0  0  0  0  0  0  0
   87.2020   51.8250   47.5720 O   0  0  0  0  0  0  0  0  0  0  0  0
   86.9950   51.8860   45.1910 C   0  0  1  0  0  3  0  0  0  0  0  0
   88.0820   52.1460   40.1930 C   0  0  0  0  0  0  0  0  0  0  0  0
   89.0570   51.9020   41.1650 C   0  0  0  0  0  3  0  0  0  0  0  0
   88.8040   52.2040   42.5070 C   0  0  0  0  0  3  0  0  0  0  0  0
   87.5660   52.7490   42.8920 C   0  0  0  0  0  0  0  0  0  0  0  0
   86.5960   53.0050   41.9070 C   0  0  0  0  0  3  0  0  0  0  0  0
   86.8500   52.6960   40.5680 C   0  0  0  0  0  3  0  0  0  0  0  0
   88.3500   51.8440   38.8600 O   0  0  0  0  0  0  0  0  0  0  0  0
   87.8390   52.2340   38.1790 H   0  0  0  0  0  0  0  0  0  0  0  0
   83.1830   56.8590   46.9040 O   0  0  0  0  0  0  0  0  0  0  0  0
   82.3150   56.7840   47.2490 H   0  0  0  0  0  0  0  0  0  0  0  0
   84.9900   52.9330   49.0280 O   0  0  0  0  0  0  0  0  0  0  0  0
   85.1790   53.2880   49.8740 H   0  0  0  0  0  0  0  0  0  0  0  0
   85.8890   51.1900   44.6410 O   0  0  0  0  0  0  0  0  0  0  0  0
   85.9030   49.8220   45.0140 C   0  0  2  0  0  3  0  0  0  0  0  0
   87.2380   49.3220   45.0110 O   0  0  0  0  0  0  0  0  0  0  0  0
   87.6680   49.0040   43.7000 C   0  0  1  0  0  3  0  0  0  0  0  0
   89.1840   48.8090   43.7090 C   0  0  0  0  0  1  0  0  0  0  0  0
   86.9430   47.7300   43.1880 C   0  0  1  0  0  3  0  0  0  0  0  0
   85.5170   47.6190   43.7890 C   0  0  2  0  0  3  0  0  0  0  0  0
   84.9560   49.0260   44.0680 C   0  0  1  0  0  3  0  0  0  0  0  0
   83.6430   48.9700   44.5740 O   0  0  0  0  0  0  0  0  0  0  0  0
   83.0460   49.4480   43.9760 H   0  0  0  0  0  0  0  0  0  0  0  0
   85.5590   46.8830   44.9860 O   0  0  0  0  0  0  0  0  0  0  0  0
   84.9870   47.3050   45.6460 H   0  0  0  0  0  0  0  0  0  0  0  0
   86.8720   47.7820   41.7860 O   0  0  0  0  0  0  0  0  0  0  0  0
   87.5090   48.4340   41.4540 H   0  0  0  0  0  0  0  0  0  0  0  0
  1 15  1  6  0  0  0
  1  2  1  0  0  0  0
  1 11  1  0  0  0  0
  2  3  1  0  0  0  0
  3  4  2  0  0  0  0
  3  8  1  0  0  0  0
  4  5  1  0  0  0  0
  5 20  1  0  0  0  0
  5  6  2  0  0  0  0
  7  6  1  0  0  0  0
  7 22  1  0  0  0  0
  8  7  2  0  0  0  0
  9  8  1  0  0  0  0
  9 10  2  0  0  0  0
 11 24  1  6  0  0  0
 11  9  1  0  0  0  0
 12 17  2  0  0  0  0
 12 13  1  0  0  0  0
 13 14  2  0  0  0  0
 14 15  1  0  0  0  0
 16 15  2  0  0  0  0
 17 16  1  0  0  0  0
 18 12  1  0  0  0  0
 19 18  1  0  0  0  0
 20 21  1  0  0  0  0
 22 23  1  0  0  0  0
 25 24  1  6  0  0  0
 26 25  1  0  0  0  0
 27 28  1  1  0  0  0
 27 26  1  0  0  0  0
 29 36  1  6  0  0  0
 29 27  1  0  0  0  0
 29 30  1  0  0  0  0
 30 31  1  0  0  0  0
 30 34  1  1  0  0  0
 31 32  1  1  0  0  0
 31 25  1  0  0  0  0
 33 32  1  0  0  0  0
 34 35  1  0  0  0  0
 37 36  1  0  0  0  0
M  END
>  <MODEL>
6

>  <REMARK>
 VINA RESULT:    -8.351      2.099      7.149
 INTER + INTRA:         -12.601
 INTER:                 -11.445
 INTRA:                  -1.156
 UNBOUND:                -1.320
  Name = 
  10 active torsions:
  status: ('A' for Active; 'I' for Inactive)
    1  A    between atoms: O_1  and  C_2
    2  A    between atoms: C_5  and  C_8
    3  A    between atoms: C_12  and  O_13
    4  A    between atoms: C_15  and  O_31
    5  A    between atoms: C_19  and  O_20
    6  A    between atoms: O_20  and  C_21
    7  A    between atoms: C_23  and  C_24
    8  A    between atoms: C_25  and  O_30
    9  A    between atoms: C_26  and  O_29
   10  A    between atoms: C_27  and  O_28
                            x       y       z     vdW  Elec       q    Type
                         _______ _______ _______ _____ _____    ______ ____

>  <TORSDO>
F 9

$$$$
=
 OpenBabel08112514243D

 37 40  0  0  1  0  0  0  0  0999 V2000
   86.7460   49.1160   42.3580 C   0  0  1  0  0  3  0  0  0  0  0  0
   87.5880   47.9600   42.4180 O   0  0  0  0  0  0  0  0  0  0  0  0
   87.1850   46.7670   43.0320 C   0  0  0  0  0  0  0  0  0  0  0  0
   87.9410   45.6090   42.8290 C   0  0  0  0  0  3  0  0  0  0  0  0
   87.5580   44.4050   43.4180 C   0  0  0  0  0  0  0  0  0  0  0  0
   86.4260   44.3610   44.2390 C   0  0  0  0  0  3  0  0  0  0  0  0
   85.6760   45.5180   44.4880 C   0  0  0  0  0  0  0  0  0  0  0  0
   86.0360   46.7320   43.8510 C   0  0  0  0  0  0  0  0  0  0  0  0
   85.2780   48.0000   43.9900 C   0  0  0  0  0  0  0  0  0  0  0  0
   84.0570   48.0110   44.2980 O   0  0  0  0  0  0  0  0  0  0  0  0
   85.9750   49.2970   43.6800 C   0  0  1  0  0  3  0  0  0  0  0  0
   89.0790   52.5970   41.2940 C   0  0  0  0  0  0  0  0  0  0  0  0
   87.6850   52.6810   41.3470 C   0  0  0  0  0  3  0  0  0  0  0  0
   86.9250   51.5630   41.7060 C   0  0  0  0  0  3  0  0  0  0  0  0
   87.5560   50.3460   42.0200 C   0  0  0  0  0  0  0  0  0  0  0  0
   88.9570   50.2650   41.9500 C   0  0  0  0  0  3  0  0  0  0  0  0
   89.7140   51.3860   41.5980 C   0  0  0  0  0  3  0  0  0  0  0  0
   89.8220   53.7190   40.9320 O   0  0  0  0  0  0  0  0  0  0  0  0
   89.4100   54.4270   40.4780 H   0  0  0  0  0  0  0  0  0  0  0  0
   88.3120   43.2560   43.1870 O   0  0  0  0  0  0  0  0  0  0  0  0
   89.0810   43.0910   43.6970 H   0  0  0  0  0  0  0  0  0  0  0  0
   84.6170   45.4170   45.3930 O   0  0  0  0  0  0  0  0  0  0  0  0
   84.0300   44.6880   45.3490 H   0  0  0  0  0  0  0  0  0  0  0  0
   86.8900   49.5970   44.7210 O   0  0  0  0  0  0  0  0  0  0  0  0
   86.2330   50.1930   45.8290 C   0  0  2  0  0  3  0  0  0  0  0  0
   85.0880   50.9210   45.3920 O   0  0  0  0  0  0  0  0  0  0  0  0
   85.4480   52.1900   44.8790 C   0  0  1  0  0  3  0  0  0  0  0  0
   84.2550   52.7740   44.1210 C   0  0  0  0  0  1  0  0  0  0  0  0
   85.8940   53.1310   46.0290 C   0  0  1  0  0  3  0  0  0  0  0  0
   86.5630   52.3310   47.1780 C   0  0  2  0  0  3  0  0  0  0  0  0
   87.2510   51.0750   46.6090 C   0  0  1  0  0  3  0  0  0  0  0  0
   87.9090   50.3430   47.6160 O   0  0  0  0  0  0  0  0  0  0  0  0
   87.3510   50.3080   48.4070 H   0  0  0  0  0  0  0  0  0  0  0  0
   85.5930   51.9490   48.1220 O   0  0  0  0  0  0  0  0  0  0  0  0
   85.1330   51.1540   47.8100 H   0  0  0  0  0  0  0  0  0  0  0  0
   86.7950   54.0790   45.5160 O   0  0  0  0  0  0  0  0  0  0  0  0
   87.3890   54.3760   46.2220 H   0  0  0  0  0  0  0  0  0  0  0  0
  1 15  1  1  0  0  0
  1  2  1  0  0  0  0
  1 11  1  0  0  0  0
  2  3  1  0  0  0  0
  3  8  1  0  0  0  0
  4  3  2  0  0  0  0
  4  5  1  0  0  0  0
  5  6  2  0  0  0  0
  6  7  1  0  0  0  0
  7 22  1  0  0  0  0
  8  9  1  0  0  0  0
  8  7  2  0  0  0  0
  9 10  2  0  0  0  0
 11  9  1  0  0  0  0
 11 24  1  1  0  0  0
 12 13  2  0  0  0  0
 12 17  1  0  0  0  0
 13 14  1  0  0  0  0
 14 15  2  0  0  0  0
 16 15  1  0  0  0  0
 17 16  2  0  0  0  0
 18 12  1  0  0  0  0
 19 18  1  0  0  0  0
 20  5  1  0  0  0  0
 20 21  1  0  0  0  0
 23 22  1  0  0  0  0
 25 24  1  6  0  0  0
 25 31  1  0  0  0  0
 26 25  1  0  0  0  0
 27 28  1  1  0  0  0
 27 26  1  0  0  0  0
 27 29  1  0  0  0  0
 29 36  1  6  0  0  0
 29 30  1  0  0  0  0
 30 34  1  1  0  0  0
 31 30  1  0  0  0  0
 31 32  1  1  0  0  0
 32 33  1  0  0  0  0
 35 34  1  0  0  0  0
 36 37  1  0  0  0  0
M  END
>  <MODEL>
7

>  <REMARK>
 VINA RESULT:    -8.091      2.718      5.724
 INTER + INTRA:         -12.250
 INTER:                 -11.317
 INTRA:                  -0.933
 UNBOUND:                -1.320
  Name = 
  10 active torsions:
  status: ('A' for Active; 'I' for Inactive)
    1  A    between atoms: O_1  and  C_2
    2  A    between atoms: C_5  and  C_8
    3  A    between atoms: C_12  and  O_13
    4  A    between atoms: C_15  and  O_31
    5  A    between atoms: C_19  and  O_20
    6  A    between atoms: O_20  and  C_21
    7  A    between atoms: C_23  and  C_24
    8  A    between atoms: C_25  and  O_30
    9  A    between atoms: C_26  and  O_29
   10  A    between atoms: C_27  and  O_28
                            x       y       z     vdW  Elec       q    Type
                         _______ _______ _______ _____ _____    ______ ____

>  <TORSDO>
F 9

$$$$
=
 OpenBabel08112514243D

 37 40  0  0  1  0  0  0  0  0999 V2000
   85.6940   50.9410   44.0240 C   0  0  1  0  0  3  0  0  0  0  0  0
   84.3260   50.5910   44.2630 O   0  0  0  0  0  0  0  0  0  0  0  0
   83.2900   50.9730   43.4000 C   0  0  0  0  0  0  0  0  0  0  0  0
   82.0320   50.3850   43.5480 C   0  0  0  0  0  3  0  0  0  0  0  0
   80.9840   50.7370   42.6970 C   0  0  0  0  0  0  0  0  0  0  0  0
   81.1880   51.7050   41.7070 C   0  0  0  0  0  3  0  0  0  0  0  0
   82.4310   52.3360   41.5670 C   0  0  0  0  0  0  0  0  0  0  0  0
   83.5100   51.9440   42.4000 C   0  0  0  0  0  0  0  0  0  0  0  0
   84.8820   52.4970   42.2960 C   0  0  0  0  0  0  0  0  0  0  0  0
   85.3140   53.0010   41.2260 O   0  0  0  0  0  0  0  0  0  0  0  0
   85.8000   52.3810   43.4830 C   0  0  1  0  0  3  0  0  0  0  0  0
   87.9730   50.3570   47.6510 C   0  0  0  0  0  0  0  0  0  0  0  0
   88.4320   49.8210   46.4450 C   0  0  0  0  0  3  0  0  0  0  0  0
   87.7070   50.0190   45.2650 C   0  0  0  0  0  3  0  0  0  0  0  0
   86.5140   50.7640   45.2810 C   0  0  0  0  0  0  0  0  0  0  0  0
   86.0510   51.2880   46.5000 C   0  0  0  0  0  3  0  0  0  0  0  0
   86.7810   51.0930   47.6760 C   0  0  0  0  0  3  0  0  0  0  0  0
   88.7040   50.1480   48.8190 O   0  0  0  0  0  0  0  0  0  0  0  0
   89.5350   50.5650   48.9320 H   0  0  0  0  0  0  0  0  0  0  0  0
   79.7420   50.1240   42.8460 O   0  0  0  0  0  0  0  0  0  0  0  0
   79.3530   50.0560   43.6950 H   0  0  0  0  0  0  0  0  0  0  0  0
   82.5300   53.3590   40.6210 O   0  0  0  0  0  0  0  0  0  0  0  0
   82.6270   54.2480   40.9010 H   0  0  0  0  0  0  0  0  0  0  0  0
   85.3860   53.2930   44.4860 O   0  0  0  0  0  0  0  0  0  0  0  0
   86.1060   54.5120   44.4030 C   0  0  2  0  0  3  0  0  0  0  0  0
   86.5840   54.8920   45.6920 O   0  0  0  0  0  0  0  0  0  0  0  0
   85.5660   55.5050   46.4610 C   0  0  1  0  0  3  0  0  0  0  0  0
   86.0220   55.5740   47.9190 C   0  0  0  0  0  1  0  0  0  0  0  0
   85.2480   56.9190   45.9070 C   0  0  1  0  0  3  0  0  0  0  0  0
   85.4650   56.9800   44.3720 C   0  0  2  0  0  3  0  0  0  0  0  0
   85.1980   55.5960   43.7510 C   0  0  1  0  0  3  0  0  0  0  0  0
   85.3410   55.6190   42.3500 O   0  0  0  0  0  0  0  0  0  0  0  0
   85.9620   54.9260   42.0780 H   0  0  0  0  0  0  0  0  0  0  0  0
   86.7850   57.3750   44.0910 O   0  0  0  0  0  0  0  0  0  0  0  0
   86.7770   58.2330   43.6390 H   0  0  0  0  0  0  0  0  0  0  0  0
   83.9160   57.2380   46.2170 O   0  0  0  0  0  0  0  0  0  0  0  0
   83.4100   57.3470   45.3970 H   0  0  0  0  0  0  0  0  0  0  0  0
  1  2  1  0  0  0  0
  1 15  1  1  0  0  0
  3  4  1  0  0  0  0
  3  2  1  0  0  0  0
  5 20  1  0  0  0  0
  5  4  2  0  0  0  0
  6  5  1  0  0  0  0
  7  6  2  0  0  0  0
  7  8  1  0  0  0  0
  8  3  2  0  0  0  0
  9  8  1  0  0  0  0
  9 11  1  0  0  0  0
 10  9  2  0  0  0  0
 11  1  1  0  0  0  0
 11 24  1  1  0  0  0
 12 17  1  0  0  0  0
 12 18  1  0  0  0  0
 13 12  2  0  0  0  0
 14 15  2  0  0  0  0
 14 13  1  0  0  0  0
 15 16  1  0  0  0  0
 16 17  2  0  0  0  0
 18 19  1  0  0  0  0
 20 21  1  0  0  0  0
 22 23  1  0  0  0  0
 22  7  1  0  0  0  0
 25 24  1  1  0  0  0
 25 26  1  0  0  0  0
 26 27  1  0  0  0  0
 27 28  1  1  0  0  0
 29 36  1  6  0  0  0
 29 27  1  0  0  0  0
 30 34  1  1  0  0  0
 30 29  1  0  0  0  0
 31 32  1  6  0  0  0
 31 30  1  0  0  0  0
 31 25  1  0  0  0  0
 33 32  1  0  0  0  0
 35 34  1  0  0  0  0
 37 36  1  0  0  0  0
M  END
>  <MODEL>
8

>  <REMARK>
 VINA RESULT:    -8.064      2.540      4.342
 INTER + INTRA:         -12.213
 INTER:                 -11.327
 INTRA:                  -0.885
 UNBOUND:                -1.320
  Name = 
  10 active torsions:
  status: ('A' for Active; 'I' for Inactive)
    1  A    between atoms: O_1  and  C_2
    2  A    between atoms: C_5  and  C_8
    3  A    between atoms: C_12  and  O_13
    4  A    between atoms: C_15  and  O_31
    5  A    between atoms: C_19  and  O_20
    6  A    between atoms: O_20  and  C_21
    7  A    between atoms: C_23  and  C_24
    8  A    between atoms: C_25  and  O_30
    9  A    between atoms: C_26  and  O_29
   10  A    between atoms: C_27  and  O_28
                            x       y       z     vdW  Elec       q    Type
                         _______ _______ _______ _____ _____    ______ ____

>  <TORSDO>
F 9

$$$$
=
 OpenBabel08112514243D

 37 40  0  0  1  0  0  0  0  0999 V2000
   86.8890   52.2870   42.7730 C   0  0  1  0  0  3  0  0  0  0  0  0
   86.5730   52.6490   41.4240 O   0  0  0  0  0  0  0  0  0  0  0  0
   85.4820   53.4680   41.1010 C   0  0  0  0  0  0  0  0  0  0  0  0
   85.3860   53.9910   39.8090 C   0  0  0  0  0  3  0  0  0  0  0  0
   84.3180   54.8170   39.4610 C   0  0  0  0  0  0  0  0  0  0  0  0
   83.3230   55.1010   40.4030 C   0  0  0  0  0  3  0  0  0  0  0  0
   83.3800   54.5560   41.6910 C   0  0  0  0  0  0  0  0  0  0  0  0
   84.4900   53.7550   42.0610 C   0  0  0  0  0  0  0  0  0  0  0  0
   84.6860   53.1800   43.4150 C   0  0  0  0  0  0  0  0  0  0  0  0
   84.1550   53.6930   44.4350 O   0  0  0  0  0  0  0  0  0  0  0  0
   85.6030   51.9980   43.5730 C   0  0  1  0  0  3  0  0  0  0  0  0
   89.6640   48.9730   42.8550 C   0  0  0  0  0  0  0  0  0  0  0  0
   88.9260   49.2930   43.9980 C   0  0  0  0  0  3  0  0  0  0  0  0
   88.0150   50.3540   43.9730 C   0  0  0  0  0  3  0  0  0  0  0  0
   87.8300   51.1050   42.7980 C   0  0  0  0  0  0  0  0  0  0  0  0
   88.5860   50.7860   41.6580 C   0  0  0  0  0  3  0  0  0  0  0  0
   89.4900   49.7210   41.6840 C   0  0  0  0  0  3  0  0  0  0  0  0
   90.5700   47.9150   42.8960 O   0  0  0  0  0  0  0  0  0  0  0  0
   90.5670   47.2690   42.2180 H   0  0  0  0  0  0  0  0  0  0  0  0
   84.2500   55.3470   38.1740 O   0  0  0  0  0  0  0  0  0  0  0  0
   83.8140   54.8710   37.4940 H   0  0  0  0  0  0  0  0  0  0  0  0
   82.3020   54.8060   42.5450 O   0  0  0  0  0  0  0  0  0  0  0  0
   81.8270   55.6100   42.4770 H   0  0  0  0  0  0  0  0  0  0  0  0
   84.9720   50.8420   43.0490 O   0  0  0  0  0  0  0  0  0  0  0  0
   84.0250   50.3130   43.9630 C   0  0  2  0  0  3  0  0  0  0  0  0
   84.5770   49.1950   44.6550 O   0  0  0  0  0  0  0  0  0  0  0  0
   84.5230   48.0210   43.8660 C   0  0  1  0  0  3  0  0  0  0  0  0
   85.4200   46.9580   44.5000 C   0  0  0  0  0  1  0  0  0  0  0  0
   83.0600   47.5180   43.7450 C   0  0  1  0  0  3  0  0  0  0  0  0
   82.0570   48.7010   43.7810 C   0  0  2  0  0  3  0  0  0  0  0  0
   82.7160   49.9640   43.1940 C   0  0  1  0  0  3  0  0  0  0  0  0
   81.8230   51.0510   43.1680 O   0  0  0  0  0  0  0  0  0  0  0  0
   81.0110   50.7910   42.7070 H   0  0  0  0  0  0  0  0  0  0  0  0
   81.6610   48.9500   45.1070 O   0  0  0  0  0  0  0  0  0  0  0  0
   82.3740   49.4100   45.5770 H   0  0  0  0  0  0  0  0  0  0  0  0
   82.9230   46.8080   42.5400 O   0  0  0  0  0  0  0  0  0  0  0  0
   83.1310   45.8730   42.6900 H   0  0  0  0  0  0  0  0  0  0  0  0
  1 15  1  6  0  0  0
  1 11  1  0  0  0  0
  2  1  1  0  0  0  0
  3  2  1  0  0  0  0
  3  8  1  0  0  0  0
  4  3  2  0  0  0  0
  5  4  1  0  0  0  0
  5  6  2  0  0  0  0
  6  7  1  0  0  0  0
  7  8  2  0  0  0  0
  7 22  1  0  0  0  0
  8  9  1  0  0  0  0
  9 11  1  0  0  0  0
  9 10  2  0  0  0  0
 11 24  1  6  0  0  0
 12 18  1  0  0  0  0
 12 13  1  0  0  0  0
 14 13  2  0  0  0  0
 15 14  1  0  0  0  0
 16 17  1  0  0  0  0
 16 15  2  0  0  0  0
 17 12  2  0  0  0  0
 19 18  1  0  0  0  0
 20  5  1  0  0  0  0
 21 20  1  0  0  0  0
 23 22  1  0  0  0  0
 25 24  1  6  0  0  0
 25 26  1  0  0  0  0
 27 28  1  1  0  0  0
 27 26  1  0  0  0  0
 29 36  1  6  0  0  0
 29 30  1  0  0  0  0
 29 27  1  0  0  0  0
 30 34  1  1  0  0  0
 31 32  1  1  0  0  0
 31 30  1  0  0  0  0
 31 25  1  0  0  0  0
 33 32  1  0  0  0  0
 34 35  1  0  0  0  0
 36 37  1  0  0  0  0
M  END
>  <MODEL>
9

>  <REMARK>
 VINA RESULT:    -7.883      2.805      7.148
 INTER + INTRA:         -11.969
 INTER:                 -10.648
 INTRA:                  -1.320
 UNBOUND:                -1.320
  Name = 
  10 active torsions:
  status: ('A' for Active; 'I' for Inactive)
    1  A    between atoms: O_1  and  C_2
    2  A    between atoms: C_5  and  C_8
    3  A    between atoms: C_12  and  O_13
    4  A    between atoms: C_15  and  O_31
    5  A    between atoms: C_19  and  O_20
    6  A    between atoms: O_20  and  C_21
    7  A    between atoms: C_23  and  C_24
    8  A    between atoms: C_25  and  O_30
    9  A    between atoms: C_26  and  O_29
   10  A    between atoms: C_27  and  O_28
                            x       y       z     vdW  Elec       q    Type
                         _______ _______ _______ _____ _____    ______ ____

>  <TORSDO>
F 9

$$$$
