MODEL 1
REMARK VINA RESULT:    -9.298      0.000      0.000
REMARK INTER + INTRA:         -13.880
REMARK INTER:                 -12.626
REMARK INTRA:                  -1.254
REMARK UNBOUND:                -1.320
REMARK  Name = 
REMARK  10 active torsions:
REMARK  status: ('A' for Active; 'I' for Inactive)
REMARK    1  A    between atoms: O_1  and  C_2
REMARK    2  A    between atoms: C_5  and  C_8
REMARK    3  A    between atoms: C_12  and  O_13
REMARK    4  A    between atoms: C_15  and  O_31
REMARK    5  A    between atoms: C_19  and  O_20
REMARK    6  A    between atoms: O_20  and  C_21
REMARK    7  A    between atoms: C_23  and  C_24
REMARK    8  A    between atoms: C_25  and  O_30
REMARK    9  A    between atoms: C_26  and  O_29
REMARK   10  A    between atoms: C_27  and  O_28
REMARK                            x       y       z     vdW  Elec       q    Type
REMARK                         _______ _______ _______ _____ _____    ______ ____
ROOT
ATOM      1  C   UNL     1      86.629  51.967  45.559  0.00  0.00    +0.158 C 
ATOM      2  O   UNL     1      86.006  50.679  45.600  0.00  0.00    -0.480 OA
ATOM      3  C   UNL     1      86.302  49.671  44.672  0.00  0.00    +0.139 A 
ATOM      4  C   UNL     1      85.861  48.369  44.921  0.00  0.00    +0.023 A 
ATOM      5  C   UNL     1      86.149  47.343  44.022  0.00  0.00    +0.124 A 
ATOM      6  C   UNL     1      86.860  47.625  42.849  0.00  0.00    +0.022 A 
ATOM      7  C   UNL     1      87.277  48.930  42.561  0.00  0.00    +0.134 A 
ATOM      8  C   UNL     1      87.026  49.965  43.498  0.00  0.00    +0.103 A 
ATOM      9  C   UNL     1      87.478  51.368  43.327  0.00  0.00    +0.203 C 
ATOM     10  O   UNL     1      88.464  51.662  42.600  0.00  0.00    -0.289 OA
ATOM     11  C   UNL     1      86.782  52.452  44.104  0.00  0.00    +0.165 C 
ENDROOT
BRANCH   1  15
ATOM     12  C   UNL     1      84.419  54.747  48.025  0.00  0.00    +0.117 A 
ATOM     13  C   UNL     1      85.722  55.054  47.624  0.00  0.00    -0.020 A 
ATOM     14  C   UNL     1      86.437  54.166  46.813  0.00  0.00    -0.052 A 
ATOM     15  C   UNL     1      85.850  52.960  46.391  0.00  0.00    -0.004 A 
ATOM     16  C   UNL     1      84.545  52.652  46.810  0.00  0.00    -0.052 A 
ATOM     17  C   UNL     1      83.831  53.544  47.614  0.00  0.00    -0.020 A 
BRANCH  12  18
ATOM     18  O   UNL     1      83.721  55.641  48.835  0.00  0.00    -0.507 OA
ATOM     19  H   UNL     1      82.959  55.356  49.299  0.00  0.00    +0.000 HD
ENDBRANCH  12  18
ENDBRANCH   1  15
BRANCH   5  20
ATOM     20  O   UNL     1      85.720  46.046  44.297  0.00  0.00    -0.507 OA
ATOM     21  H   UNL     1      85.512  45.463  43.594  0.00  0.00    +0.000 HD
ENDBRANCH   5  20
BRANCH   7  22
ATOM     22  O   UNL     1      87.896  49.151  41.329  0.00  0.00    -0.506 OA
ATOM     23  H   UNL     1      88.824  49.056  41.246  0.00  0.00    +0.000 HD
ENDBRANCH   7  22
BRANCH  11  24
ATOM     24  O   UNL     1      85.498  52.678  43.545  0.00  0.00    -0.333 OA
BRANCH  24  25
ATOM     25  C   UNL     1      85.556  53.614  42.482  0.00  0.00    +0.189 C 
ATOM     26  O   UNL     1      86.322  54.753  42.867  0.00  0.00    -0.343 OA
ATOM     27  C   UNL     1      85.559  55.646  43.658  0.00  0.00    +0.087 C 
ATOM     28  C   UNL     1      86.502  56.651  44.320  0.00  0.00    -0.036 C 
ATOM     29  C   UNL     1      84.497  56.367  42.786  0.00  0.00    +0.109 C 
ATOM     30  C   UNL     1      84.017  55.457  41.624  0.00  0.00    +0.114 C 
ATOM     31  C   UNL     1      84.106  53.979  42.045  0.00  0.00    +0.134 C 
BRANCH  31  32
ATOM     32  O   UNL     1      83.637  53.121  41.032  0.00  0.00    -0.384 OA
ATOM     33  H   UNL     1      84.214  53.192  40.256  0.00  0.00    +0.000 HD
ENDBRANCH  31  32
BRANCH  30  34
ATOM     34  O   UNL     1      84.819  55.672  40.488  0.00  0.00    -0.386 OA
ATOM     35  H   UNL     1      84.793  56.612  40.247  0.00  0.00    +0.000 HD
ENDBRANCH  30  34
BRANCH  29  36
ATOM     36  O   UNL     1      83.408  56.722  43.600  0.00  0.00    -0.387 OA
ATOM     37  H   UNL     1      82.580  56.536  43.130  0.00  0.00    +0.000 HD
ENDBRANCH  29  36
ENDBRANCH  24  25
ENDBRANCH  11  24
TORSDOF 9
ENDMDL
MODEL 2
REMARK VINA RESULT:    -8.786      1.489      1.954
REMARK INTER + INTRA:         -13.188
REMARK INTER:                 -11.762
REMARK INTRA:                  -1.426
REMARK UNBOUND:                -1.320
REMARK  Name = 
REMARK  10 active torsions:
REMARK  status: ('A' for Active; 'I' for Inactive)
REMARK    1  A    between atoms: O_1  and  C_2
REMARK    2  A    between atoms: C_5  and  C_8
REMARK    3  A    between atoms: C_12  and  O_13
REMARK    4  A    between atoms: C_15  and  O_31
REMARK    5  A    between atoms: C_19  and  O_20
REMARK    6  A    between atoms: O_20  and  C_21
REMARK    7  A    between atoms: C_23  and  C_24
REMARK    8  A    between atoms: C_25  and  O_30
REMARK    9  A    between atoms: C_26  and  O_29
REMARK   10  A    between atoms: C_27  and  O_28
REMARK                            x       y       z     vdW  Elec       q    Type
REMARK                         _______ _______ _______ _____ _____    ______ ____
ROOT
ATOM      1  C   UNL     1      87.250  52.523  44.610  0.00  0.00    +0.158 C 
ATOM      2  O   UNL     1      86.877  51.144  44.516  0.00  0.00    -0.480 OA
ATOM      3  C   UNL     1      87.389  50.292  43.528  0.00  0.00    +0.139 A 
ATOM      4  C   UNL     1      87.189  48.914  43.651  0.00  0.00    +0.023 A 
ATOM      5  C   UNL     1      87.696  48.041  42.690  0.00  0.00    +0.124 A 
ATOM      6  C   UNL     1      88.385  48.549  41.582  0.00  0.00    +0.022 A 
ATOM      7  C   UNL     1      88.561  49.928  41.420  0.00  0.00    +0.134 A 
ATOM      8  C   UNL     1      88.089  50.815  42.421  0.00  0.00    +0.103 A 
ATOM      9  C   UNL     1      88.277  52.286  42.384  0.00  0.00    +0.203 C 
ATOM     10  O   UNL     1      89.217  52.817  41.736  0.00  0.00    -0.289 OA
ATOM     11  C   UNL     1      87.363  53.153  43.207  0.00  0.00    +0.165 C 
ENDROOT
BRANCH   1  15
ATOM     12  C   UNL     1      84.490  54.646  47.172  0.00  0.00    +0.117 A 
ATOM     13  C   UNL     1      85.588  55.315  46.624  0.00  0.00    -0.020 A 
ATOM     14  C   UNL     1      86.475  54.638  45.781  0.00  0.00    -0.052 A 
ATOM     15  C   UNL     1      86.270  53.281  45.475  0.00  0.00    -0.004 A 
ATOM     16  C   UNL     1      85.173  52.611  46.043  0.00  0.00    -0.052 A 
ATOM     17  C   UNL     1      84.283  53.292  46.878  0.00  0.00    -0.020 A 
BRANCH  12  18
ATOM     18  O   UNL     1      83.616  55.333  48.013  0.00  0.00    -0.507 OA
ATOM     19  H   UNL     1      83.074  56.014  47.669  0.00  0.00    +0.000 HD
ENDBRANCH  12  18
ENDBRANCH   1  15
BRANCH   5  20
ATOM     20  O   UNL     1      87.506  46.668  42.839  0.00  0.00    -0.507 OA
ATOM     21  H   UNL     1      88.243  46.090  42.826  0.00  0.00    +0.000 HD
ENDBRANCH   5  20
BRANCH   7  22
ATOM     22  O   UNL     1      89.173  50.365  40.242  0.00  0.00    -0.506 OA
ATOM     23  H   UNL     1      90.052  50.689  40.262  0.00  0.00    +0.000 HD
ENDBRANCH   7  22
BRANCH  11  24
ATOM     24  O   UNL     1      86.081  53.188  42.602  0.00  0.00    -0.333 OA
BRANCH  24  25
ATOM     25  C   UNL     1      85.979  54.255  41.673  0.00  0.00    +0.189 C 
ATOM     26  O   UNL     1      85.220  55.325  42.232  0.00  0.00    -0.343 OA
ATOM     27  C   UNL     1      83.829  55.072  42.147  0.00  0.00    +0.087 C 
ATOM     28  C   UNL     1      83.091  56.060  43.050  0.00  0.00    -0.036 C 
ATOM     29  C   UNL     1      83.347  55.190  40.677  0.00  0.00    +0.109 C 
ATOM     30  C   UNL     1      84.466  54.770  39.687  0.00  0.00    +0.114 C 
ATOM     31  C   UNL     1      85.376  53.715  40.342  0.00  0.00    +0.134 C 
BRANCH  31  32
ATOM     32  O   UNL     1      86.380  53.274  39.459  0.00  0.00    -0.384 OA
ATOM     33  H   UNL     1      86.493  53.924  38.748  0.00  0.00    +0.000 HD
ENDBRANCH  31  32
BRANCH  30  34
ATOM     34  O   UNL     1      85.231  55.894  39.326  0.00  0.00    -0.386 OA
ATOM     35  H   UNL     1      85.502  55.816  38.398  0.00  0.00    +0.000 HD
ENDBRANCH  30  34
BRANCH  29  36
ATOM     36  O   UNL     1      82.219  54.371  40.503  0.00  0.00    -0.387 OA
ATOM     37  H   UNL     1      81.864  54.496  39.609  0.00  0.00    +0.000 HD
ENDBRANCH  29  36
ENDBRANCH  24  25
ENDBRANCH  11  24
TORSDOF 9
ENDMDL
MODEL 3
REMARK VINA RESULT:    -8.473      2.377      4.658
REMARK INTER + INTRA:         -12.766
REMARK INTER:                 -11.620
REMARK INTRA:                  -1.146
REMARK UNBOUND:                -1.320
REMARK  Name = 
REMARK  10 active torsions:
REMARK  status: ('A' for Active; 'I' for Inactive)
REMARK    1  A    between atoms: O_1  and  C_2
REMARK    2  A    between atoms: C_5  and  C_8
REMARK    3  A    between atoms: C_12  and  O_13
REMARK    4  A    between atoms: C_15  and  O_31
REMARK    5  A    between atoms: C_19  and  O_20
REMARK    6  A    between atoms: O_20  and  C_21
REMARK    7  A    between atoms: C_23  and  C_24
REMARK    8  A    between atoms: C_25  and  O_30
REMARK    9  A    between atoms: C_26  and  O_29
REMARK   10  A    between atoms: C_27  and  O_28
REMARK                            x       y       z     vdW  Elec       q    Type
REMARK                         _______ _______ _______ _____ _____    ______ ____
ROOT
ATOM      1  C   UNL     1      85.097  52.773  44.932  0.00  0.00    +0.158 C 
ATOM      2  O   UNL     1      83.959  52.228  44.256  0.00  0.00    -0.480 OA
ATOM      3  C   UNL     1      83.719  50.849  44.181  0.00  0.00    +0.139 A 
ATOM      4  C   UNL     1      82.470  50.401  43.741  0.00  0.00    +0.023 A 
ATOM      5  C   UNL     1      82.198  49.035  43.666  0.00  0.00    +0.124 A 
ATOM      6  C   UNL     1      83.190  48.108  44.008  0.00  0.00    +0.022 A 
ATOM      7  C   UNL     1      84.460  48.536  44.414  0.00  0.00    +0.134 A 
ATOM      8  C   UNL     1      84.723  49.924  44.536  0.00  0.00    +0.103 A 
ATOM      9  C   UNL     1      86.008  50.487  45.018  0.00  0.00    +0.203 C 
ATOM     10  O   UNL     1      86.785  49.826  45.757  0.00  0.00    -0.289 OA
ATOM     11  C   UNL     1      86.349  51.911  44.672  0.00  0.00    +0.165 C 
ENDROOT
BRANCH   1  15
ATOM     12  C   UNL     1      85.656  56.909  43.801  0.00  0.00    +0.117 A 
ATOM     13  C   UNL     1      86.454  56.345  44.801  0.00  0.00    -0.020 A 
ATOM     14  C   UNL     1      86.288  55.003  45.160  0.00  0.00    -0.052 A 
ATOM     15  C   UNL     1      85.323  54.209  44.517  0.00  0.00    -0.004 A 
ATOM     16  C   UNL     1      84.514  54.787  43.523  0.00  0.00    -0.052 A 
ATOM     17  C   UNL     1      84.686  56.126  43.161  0.00  0.00    -0.020 A 
BRANCH  12  18
ATOM     18  O   UNL     1      85.829  58.248  43.456  0.00  0.00    -0.507 OA
ATOM     19  H   UNL     1      85.165  58.697  42.973  0.00  0.00    +0.000 HD
ENDBRANCH  12  18
ENDBRANCH   1  15
BRANCH   5  20
ATOM     20  O   UNL     1      80.941  48.607  43.245  0.00  0.00    -0.507 OA
ATOM     21  H   UNL     1      80.863  48.043  42.501  0.00  0.00    +0.000 HD
ENDBRANCH   5  20
BRANCH   7  22
ATOM     22  O   UNL     1      85.426  47.554  44.645  0.00  0.00    -0.506 OA
ATOM     23  H   UNL     1      85.278  46.674  44.361  0.00  0.00    +0.000 HD
ENDBRANCH   7  22
BRANCH  11  24
ATOM     24  O   UNL     1      86.698  51.989  43.300  0.00  0.00    -0.333 OA
BRANCH  24  25
ATOM     25  C   UNL     1      87.899  51.282  43.033  0.00  0.00    +0.189 C 
ATOM     26  O   UNL     1      88.928  52.188  42.642  0.00  0.00    -0.343 OA
ATOM     27  C   UNL     1      88.802  52.557  41.281  0.00  0.00    +0.087 C 
ATOM     28  C   UNL     1      89.697  53.767  41.011  0.00  0.00    -0.036 C 
ATOM     29  C   UNL     1      89.180  51.366  40.361  0.00  0.00    +0.109 C 
ATOM     30  C   UNL     1      88.828  50.010  41.029  0.00  0.00    +0.114 C 
ATOM     31  C   UNL     1      87.617  50.186  41.964  0.00  0.00    +0.134 C 
BRANCH  31  32
ATOM     32  O   UNL     1      87.237  48.967  42.556  0.00  0.00    -0.384 OA
ATOM     33  H   UNL     1      87.659  48.233  42.084  0.00  0.00    +0.000 HD
ENDBRANCH  31  32
BRANCH  30  34
ATOM     34  O   UNL     1      89.929  49.542  41.767  0.00  0.00    -0.386 OA
ATOM     35  H   UNL     1      90.751  49.796  41.319  0.00  0.00    +0.000 HD
ENDBRANCH  30  34
BRANCH  29  36
ATOM     36  O   UNL     1      88.490  51.496  39.144  0.00  0.00    -0.387 OA
ATOM     37  H   UNL     1      87.988  50.685  38.969  0.00  0.00    +0.000 HD
ENDBRANCH  29  36
ENDBRANCH  24  25
ENDBRANCH  11  24
TORSDOF 9
ENDMDL
MODEL 4
REMARK VINA RESULT:    -8.429      2.093      6.546
REMARK INTER + INTRA:         -12.706
REMARK INTER:                 -11.729
REMARK INTRA:                  -0.978
REMARK UNBOUND:                -1.320
REMARK  Name = 
REMARK  10 active torsions:
REMARK  status: ('A' for Active; 'I' for Inactive)
REMARK    1  A    between atoms: O_1  and  C_2
REMARK    2  A    between atoms: C_5  and  C_8
REMARK    3  A    between atoms: C_12  and  O_13
REMARK    4  A    between atoms: C_15  and  O_31
REMARK    5  A    between atoms: C_19  and  O_20
REMARK    6  A    between atoms: O_20  and  C_21
REMARK    7  A    between atoms: C_23  and  C_24
REMARK    8  A    between atoms: C_25  and  O_30
REMARK    9  A    between atoms: C_26  and  O_29
REMARK   10  A    between atoms: C_27  and  O_28
REMARK                            x       y       z     vdW  Elec       q    Type
REMARK                         _______ _______ _______ _____ _____    ______ ____
ROOT
ATOM      1  C   UNL     1      84.166  51.317  43.853  0.00  0.00    +0.158 C 
ATOM      2  O   UNL     1      84.664  51.805  45.104  0.00  0.00    -0.480 OA
ATOM      3  C   UNL     1      85.185  53.097  45.254  0.00  0.00    +0.139 A 
ATOM      4  C   UNL     1      85.407  53.594  46.540  0.00  0.00    +0.023 A 
ATOM      5  C   UNL     1      85.915  54.881  46.721  0.00  0.00    +0.124 A 
ATOM      6  C   UNL     1      86.230  55.667  45.606  0.00  0.00    +0.022 A 
ATOM      7  C   UNL     1      86.052  55.173  44.308  0.00  0.00    +0.134 A 
ATOM      8  C   UNL     1      85.491  53.884  44.123  0.00  0.00    +0.103 A 
ATOM      9  C   UNL     1      85.198  53.288  42.797  0.00  0.00    +0.203 C 
ATOM     10  O   UNL     1      85.003  54.002  41.778  0.00  0.00    -0.289 OA
ATOM     11  C   UNL     1      85.059  51.793  42.690  0.00  0.00    +0.165 C 
ENDROOT
BRANCH   1  15
ATOM     12  C   UNL     1      83.847  47.006  43.820  0.00  0.00    +0.117 A 
ATOM     13  C   UNL     1      85.065  47.612  44.139  0.00  0.00    -0.020 A 
ATOM     14  C   UNL     1      85.171  49.007  44.166  0.00  0.00    -0.052 A 
ATOM     15  C   UNL     1      84.053  49.810  43.879  0.00  0.00    -0.004 A 
ATOM     16  C   UNL     1      82.836  49.193  43.545  0.00  0.00    -0.052 A 
ATOM     17  C   UNL     1      82.731  47.799  43.525  0.00  0.00    -0.020 A 
BRANCH  12  18
ATOM     18  O   UNL     1      83.758  45.615  43.792  0.00  0.00    -0.507 OA
ATOM     19  H   UNL     1      83.453  45.150  44.546  0.00  0.00    +0.000 HD
ENDBRANCH  12  18
ENDBRANCH   1  15
BRANCH   5  20
ATOM     20  O   UNL     1      86.110  55.368  48.011  0.00  0.00    -0.507 OA
ATOM     21  H   UNL     1      85.782  56.213  48.247  0.00  0.00    +0.000 HD
ENDBRANCH   5  20
BRANCH   7  22
ATOM     22  O   UNL     1      86.478  55.978  43.249  0.00  0.00    -0.506 OA
ATOM     23  H   UNL     1      86.122  55.852  42.392  0.00  0.00    +0.000 HD
ENDBRANCH   7  22
BRANCH  11  24
ATOM     24  O   UNL     1      86.339  51.195  42.804  0.00  0.00    -0.333 OA
BRANCH  24  25
ATOM     25  C   UNL     1      86.990  51.125  41.546  0.00  0.00    +0.189 C 
ATOM     26  O   UNL     1      87.201  49.765  41.173  0.00  0.00    -0.343 OA
ATOM     27  C   UNL     1      88.333  49.220  41.826  0.00  0.00    +0.087 C 
ATOM     28  C   UNL     1      88.311  47.700  41.667  0.00  0.00    -0.036 C 
ATOM     29  C   UNL     1      89.637  49.825  41.243  0.00  0.00    +0.109 C 
ATOM     30  C   UNL     1      89.411  51.283  40.762  0.00  0.00    +0.114 C 
ATOM     31  C   UNL     1      88.310  51.948  41.609  0.00  0.00    +0.134 C 
BRANCH  31  32
ATOM     32  O   UNL     1      88.105  53.289  41.233  0.00  0.00    -0.384 OA
ATOM     33  H   UNL     1      88.108  53.850  42.024  0.00  0.00    +0.000 HD
ENDBRANCH  31  32
BRANCH  30  34
ATOM     34  O   UNL     1      89.030  51.285  39.408  0.00  0.00    -0.386 OA
ATOM     35  H   UNL     1      89.701  51.749  38.884  0.00  0.00    +0.000 HD
ENDBRANCH  30  34
BRANCH  29  36
ATOM     36  O   UNL     1      90.634  49.794  42.233  0.00  0.00    -0.387 OA
ATOM     37  H   UNL     1      90.219  49.709  43.105  0.00  0.00    +0.000 HD
ENDBRANCH  29  36
ENDBRANCH  24  25
ENDBRANCH  11  24
TORSDOF 9
ENDMDL
MODEL 5
REMARK VINA RESULT:    -8.374      2.148      6.312
REMARK INTER + INTRA:         -12.632
REMARK INTER:                 -12.224
REMARK INTRA:                  -0.407
REMARK UNBOUND:                -1.320
REMARK  Name = 
REMARK  10 active torsions:
REMARK  status: ('A' for Active; 'I' for Inactive)
REMARK    1  A    between atoms: O_1  and  C_2
REMARK    2  A    between atoms: C_5  and  C_8
REMARK    3  A    between atoms: C_12  and  O_13
REMARK    4  A    between atoms: C_15  and  O_31
REMARK    5  A    between atoms: C_19  and  O_20
REMARK    6  A    between atoms: O_20  and  C_21
REMARK    7  A    between atoms: C_23  and  C_24
REMARK    8  A    between atoms: C_25  and  O_30
REMARK    9  A    between atoms: C_26  and  O_29
REMARK   10  A    between atoms: C_27  and  O_28
REMARK                            x       y       z     vdW  Elec       q    Type
REMARK                         _______ _______ _______ _____ _____    ______ ____
ROOT
ATOM      1  C   UNL     1      85.367  52.652  45.469  0.00  0.00    +0.158 C 
ATOM      2  O   UNL     1      85.644  54.029  45.742  0.00  0.00    -0.480 OA
ATOM      3  C   UNL     1      85.273  55.059  44.867  0.00  0.00    +0.139 A 
ATOM      4  C   UNL     1      85.338  56.383  45.310  0.00  0.00    +0.023 A 
ATOM      5  C   UNL     1      84.964  57.428  44.465  0.00  0.00    +0.124 A 
ATOM      6  C   UNL     1      84.549  57.151  43.157  0.00  0.00    +0.022 A 
ATOM      7  C   UNL     1      84.515  55.834  42.681  0.00  0.00    +0.134 A 
ATOM      8  C   UNL     1      84.848  54.767  43.554  0.00  0.00    +0.103 A 
ATOM      9  C   UNL     1      84.784  53.334  43.176  0.00  0.00    +0.203 C 
ATOM     10  O   UNL     1      84.034  52.926  42.250  0.00  0.00    -0.289 OA
ATOM     11  C   UNL     1      85.582  52.339  43.975  0.00  0.00    +0.165 C 
ENDROOT
BRANCH   1  15
ATOM     12  C   UNL     1      87.871  50.154  47.956  0.00  0.00    +0.117 A 
ATOM     13  C   UNL     1      86.986  51.062  48.545  0.00  0.00    -0.020 A 
ATOM     14  C   UNL     1      86.163  51.861  47.747  0.00  0.00    -0.052 A 
ATOM     15  C   UNL     1      86.213  51.756  46.345  0.00  0.00    -0.004 A 
ATOM     16  C   UNL     1      87.115  50.852  45.759  0.00  0.00    -0.052 A 
ATOM     17  C   UNL     1      87.932  50.049  46.561  0.00  0.00    -0.020 A 
BRANCH  12  18
ATOM     18  O   UNL     1      88.687  49.366  48.765  0.00  0.00    -0.507 OA
ATOM     19  H   UNL     1      88.682  48.435  48.670  0.00  0.00    +0.000 HD
ENDBRANCH  12  18
ENDBRANCH   1  15
BRANCH   5  20
ATOM     20  O   UNL     1      85.015  58.740  44.931  0.00  0.00    -0.507 OA
ATOM     21  H   UNL     1      84.243  59.270  44.921  0.00  0.00    +0.000 HD
ENDBRANCH   5  20
BRANCH   7  22
ATOM     22  O   UNL     1      84.183  55.645  41.337  0.00  0.00    -0.506 OA
ATOM     23  H   UNL     1      84.785  55.896  40.665  0.00  0.00    +0.000 HD
ENDBRANCH   7  22
BRANCH  11  24
ATOM     24  O   UNL     1      86.956  52.479  43.657  0.00  0.00    -0.333 OA
BRANCH  24  25
ATOM     25  C   UNL     1      87.215  52.109  42.313  0.00  0.00    +0.189 C 
ATOM     26  O   UNL     1      86.838  50.752  42.092  0.00  0.00    -0.343 OA
ATOM     27  C   UNL     1      87.828  49.857  42.565  0.00  0.00    +0.087 C 
ATOM     28  C   UNL     1      87.236  48.449  42.621  0.00  0.00    -0.036 C 
ATOM     29  C   UNL     1      89.079  49.901  41.647  0.00  0.00    +0.109 C 
ATOM     30  C   UNL     1      89.270  51.312  41.031  0.00  0.00    +0.114 C 
ATOM     31  C   UNL     1      88.714  52.382  41.989  0.00  0.00    +0.134 C 
BRANCH  31  32
ATOM     32  O   UNL     1      88.908  53.682  41.485  0.00  0.00    -0.384 OA
ATOM     33  H   UNL     1      89.620  54.116  41.979  0.00  0.00    +0.000 HD
ENDBRANCH  31  32
BRANCH  30  34
ATOM     34  O   UNL     1      88.598  51.389  39.798  0.00  0.00    -0.386 OA
ATOM     35  H   UNL     1      88.441  52.319  39.572  0.00  0.00    +0.000 HD
ENDBRANCH  30  34
BRANCH  29  36
ATOM     36  O   UNL     1      90.209  49.550  42.404  0.00  0.00    -0.387 OA
ATOM     37  H   UNL     1      90.017  48.752  42.920  0.00  0.00    +0.000 HD
ENDBRANCH  29  36
ENDBRANCH  24  25
ENDBRANCH  11  24
TORSDOF 9
ENDMDL
MODEL 6
REMARK VINA RESULT:    -8.351      2.099      7.149
REMARK INTER + INTRA:         -12.601
REMARK INTER:                 -11.445
REMARK INTRA:                  -1.156
REMARK UNBOUND:                -1.320
REMARK  Name = 
REMARK  10 active torsions:
REMARK  status: ('A' for Active; 'I' for Inactive)
REMARK    1  A    between atoms: O_1  and  C_2
REMARK    2  A    between atoms: C_5  and  C_8
REMARK    3  A    between atoms: C_12  and  O_13
REMARK    4  A    between atoms: C_15  and  O_31
REMARK    5  A    between atoms: C_19  and  O_20
REMARK    6  A    between atoms: O_20  and  C_21
REMARK    7  A    between atoms: C_23  and  C_24
REMARK    8  A    between atoms: C_25  and  O_30
REMARK    9  A    between atoms: C_26  and  O_29
REMARK   10  A    between atoms: C_27  and  O_28
REMARK                            x       y       z     vdW  Elec       q    Type
REMARK                         _______ _______ _______ _____ _____    ______ ____
ROOT
ATOM      1  C   UNL     1      87.298  53.128  44.330  0.00  0.00    +0.158 C 
ATOM      2  O   UNL     1      86.224  54.072  44.410  0.00  0.00    -0.480 OA
ATOM      3  C   UNL     1      85.543  54.336  45.605  0.00  0.00    +0.139 A 
ATOM      4  C   UNL     1      84.693  55.444  45.671  0.00  0.00    +0.023 A 
ATOM      5  C   UNL     1      84.010  55.739  46.851  0.00  0.00    +0.124 A 
ATOM      6  C   UNL     1      84.155  54.905  47.966  0.00  0.00    +0.022 A 
ATOM      7  C   UNL     1      84.971  53.769  47.909  0.00  0.00    +0.134 A 
ATOM      8  C   UNL     1      85.704  53.494  46.726  0.00  0.00    +0.103 A 
ATOM      9  C   UNL     1      86.645  52.358  46.576  0.00  0.00    +0.203 C 
ATOM     10  O   UNL     1      87.202  51.825  47.572  0.00  0.00    -0.289 OA
ATOM     11  C   UNL     1      86.995  51.886  45.191  0.00  0.00    +0.165 C 
ENDROOT
BRANCH   1  15
ATOM     12  C   UNL     1      88.082  52.146  40.193  0.00  0.00    +0.117 A 
ATOM     13  C   UNL     1      89.057  51.902  41.165  0.00  0.00    -0.020 A 
ATOM     14  C   UNL     1      88.804  52.204  42.507  0.00  0.00    -0.052 A 
ATOM     15  C   UNL     1      87.566  52.749  42.892  0.00  0.00    -0.004 A 
ATOM     16  C   UNL     1      86.596  53.005  41.907  0.00  0.00    -0.052 A 
ATOM     17  C   UNL     1      86.850  52.696  40.568  0.00  0.00    -0.020 A 
BRANCH  12  18
ATOM     18  O   UNL     1      88.350  51.844  38.860  0.00  0.00    -0.507 OA
ATOM     19  H   UNL     1      87.839  52.234  38.179  0.00  0.00    +0.000 HD
ENDBRANCH  12  18
ENDBRANCH   1  15
BRANCH   5  20
ATOM     20  O   UNL     1      83.183  56.859  46.904  0.00  0.00    -0.507 OA
ATOM     21  H   UNL     1      82.315  56.784  47.249  0.00  0.00    +0.000 HD
ENDBRANCH   5  20
BRANCH   7  22
ATOM     22  O   UNL     1      84.990  52.933  49.028  0.00  0.00    -0.506 OA
ATOM     23  H   UNL     1      85.179  53.288  49.874  0.00  0.00    +0.000 HD
ENDBRANCH   7  22
BRANCH  11  24
ATOM     24  O   UNL     1      85.889  51.190  44.641  0.00  0.00    -0.333 OA
BRANCH  24  25
ATOM     25  C   UNL     1      85.903  49.822  45.014  0.00  0.00    +0.189 C 
ATOM     26  O   UNL     1      87.238  49.322  45.011  0.00  0.00    -0.343 OA
ATOM     27  C   UNL     1      87.668  49.004  43.700  0.00  0.00    +0.087 C 
ATOM     28  C   UNL     1      89.184  48.809  43.709  0.00  0.00    -0.036 C 
ATOM     29  C   UNL     1      86.943  47.730  43.188  0.00  0.00    +0.109 C 
ATOM     30  C   UNL     1      85.517  47.619  43.789  0.00  0.00    +0.114 C 
ATOM     31  C   UNL     1      84.956  49.026  44.068  0.00  0.00    +0.134 C 
BRANCH  31  32
ATOM     32  O   UNL     1      83.643  48.970  44.574  0.00  0.00    -0.384 OA
ATOM     33  H   UNL     1      83.046  49.448  43.976  0.00  0.00    +0.000 HD
ENDBRANCH  31  32
BRANCH  30  34
ATOM     34  O   UNL     1      85.559  46.883  44.986  0.00  0.00    -0.386 OA
ATOM     35  H   UNL     1      84.987  47.305  45.646  0.00  0.00    +0.000 HD
ENDBRANCH  30  34
BRANCH  29  36
ATOM     36  O   UNL     1      86.872  47.782  41.786  0.00  0.00    -0.387 OA
ATOM     37  H   UNL     1      87.509  48.434  41.454  0.00  0.00    +0.000 HD
ENDBRANCH  29  36
ENDBRANCH  24  25
ENDBRANCH  11  24
TORSDOF 9
ENDMDL
MODEL 7
REMARK VINA RESULT:    -8.091      2.718      5.724
REMARK INTER + INTRA:         -12.250
REMARK INTER:                 -11.317
REMARK INTRA:                  -0.933
REMARK UNBOUND:                -1.320
REMARK  Name = 
REMARK  10 active torsions:
REMARK  status: ('A' for Active; 'I' for Inactive)
REMARK    1  A    between atoms: O_1  and  C_2
REMARK    2  A    between atoms: C_5  and  C_8
REMARK    3  A    between atoms: C_12  and  O_13
REMARK    4  A    between atoms: C_15  and  O_31
REMARK    5  A    between atoms: C_19  and  O_20
REMARK    6  A    between atoms: O_20  and  C_21
REMARK    7  A    between atoms: C_23  and  C_24
REMARK    8  A    between atoms: C_25  and  O_30
REMARK    9  A    between atoms: C_26  and  O_29
REMARK   10  A    between atoms: C_27  and  O_28
REMARK                            x       y       z     vdW  Elec       q    Type
REMARK                         _______ _______ _______ _____ _____    ______ ____
ROOT
ATOM      1  C   UNL     1      86.746  49.116  42.358  0.00  0.00    +0.158 C 
ATOM      2  O   UNL     1      87.588  47.960  42.418  0.00  0.00    -0.480 OA
ATOM      3  C   UNL     1      87.185  46.767  43.032  0.00  0.00    +0.139 A 
ATOM      4  C   UNL     1      87.941  45.609  42.829  0.00  0.00    +0.023 A 
ATOM      5  C   UNL     1      87.558  44.405  43.418  0.00  0.00    +0.124 A 
ATOM      6  C   UNL     1      86.426  44.361  44.239  0.00  0.00    +0.022 A 
ATOM      7  C   UNL     1      85.676  45.518  44.488  0.00  0.00    +0.134 A 
ATOM      8  C   UNL     1      86.036  46.732  43.851  0.00  0.00    +0.103 A 
ATOM      9  C   UNL     1      85.278  48.000  43.990  0.00  0.00    +0.203 C 
ATOM     10  O   UNL     1      84.057  48.011  44.298  0.00  0.00    -0.289 OA
ATOM     11  C   UNL     1      85.975  49.297  43.680  0.00  0.00    +0.165 C 
ENDROOT
BRANCH   1  15
ATOM     12  C   UNL     1      89.079  52.597  41.294  0.00  0.00    +0.117 A 
ATOM     13  C   UNL     1      87.685  52.681  41.347  0.00  0.00    -0.020 A 
ATOM     14  C   UNL     1      86.925  51.563  41.706  0.00  0.00    -0.052 A 
ATOM     15  C   UNL     1      87.556  50.346  42.020  0.00  0.00    -0.004 A 
ATOM     16  C   UNL     1      88.957  50.265  41.950  0.00  0.00    -0.052 A 
ATOM     17  C   UNL     1      89.714  51.386  41.598  0.00  0.00    -0.020 A 
BRANCH  12  18
ATOM     18  O   UNL     1      89.822  53.719  40.932  0.00  0.00    -0.507 OA
ATOM     19  H   UNL     1      89.410  54.427  40.478  0.00  0.00    +0.000 HD
ENDBRANCH  12  18
ENDBRANCH   1  15
BRANCH   5  20
ATOM     20  O   UNL     1      88.312  43.256  43.187  0.00  0.00    -0.507 OA
ATOM     21  H   UNL     1      89.081  43.091  43.697  0.00  0.00    +0.000 HD
ENDBRANCH   5  20
BRANCH   7  22
ATOM     22  O   UNL     1      84.617  45.417  45.393  0.00  0.00    -0.506 OA
ATOM     23  H   UNL     1      84.030  44.688  45.349  0.00  0.00    +0.000 HD
ENDBRANCH   7  22
BRANCH  11  24
ATOM     24  O   UNL     1      86.890  49.597  44.721  0.00  0.00    -0.333 OA
BRANCH  24  25
ATOM     25  C   UNL     1      86.233  50.193  45.829  0.00  0.00    +0.189 C 
ATOM     26  O   UNL     1      85.088  50.921  45.392  0.00  0.00    -0.343 OA
ATOM     27  C   UNL     1      85.448  52.190  44.879  0.00  0.00    +0.087 C 
ATOM     28  C   UNL     1      84.255  52.774  44.121  0.00  0.00    -0.036 C 
ATOM     29  C   UNL     1      85.894  53.131  46.029  0.00  0.00    +0.109 C 
ATOM     30  C   UNL     1      86.563  52.331  47.178  0.00  0.00    +0.114 C 
ATOM     31  C   UNL     1      87.251  51.075  46.609  0.00  0.00    +0.134 C 
BRANCH  31  32
ATOM     32  O   UNL     1      87.909  50.343  47.616  0.00  0.00    -0.384 OA
ATOM     33  H   UNL     1      87.351  50.308  48.407  0.00  0.00    +0.000 HD
ENDBRANCH  31  32
BRANCH  30  34
ATOM     34  O   UNL     1      85.593  51.949  48.122  0.00  0.00    -0.386 OA
ATOM     35  H   UNL     1      85.133  51.154  47.810  0.00  0.00    +0.000 HD
ENDBRANCH  30  34
BRANCH  29  36
ATOM     36  O   UNL     1      86.795  54.079  45.516  0.00  0.00    -0.387 OA
ATOM     37  H   UNL     1      87.389  54.376  46.222  0.00  0.00    +0.000 HD
ENDBRANCH  29  36
ENDBRANCH  24  25
ENDBRANCH  11  24
TORSDOF 9
ENDMDL
MODEL 8
REMARK VINA RESULT:    -8.064      2.540      4.342
REMARK INTER + INTRA:         -12.213
REMARK INTER:                 -11.327
REMARK INTRA:                  -0.885
REMARK UNBOUND:                -1.320
REMARK  Name = 
REMARK  10 active torsions:
REMARK  status: ('A' for Active; 'I' for Inactive)
REMARK    1  A    between atoms: O_1  and  C_2
REMARK    2  A    between atoms: C_5  and  C_8
REMARK    3  A    between atoms: C_12  and  O_13
REMARK    4  A    between atoms: C_15  and  O_31
REMARK    5  A    between atoms: C_19  and  O_20
REMARK    6  A    between atoms: O_20  and  C_21
REMARK    7  A    between atoms: C_23  and  C_24
REMARK    8  A    between atoms: C_25  and  O_30
REMARK    9  A    between atoms: C_26  and  O_29
REMARK   10  A    between atoms: C_27  and  O_28
REMARK                            x       y       z     vdW  Elec       q    Type
REMARK                         _______ _______ _______ _____ _____    ______ ____
ROOT
ATOM      1  C   UNL     1      85.694  50.941  44.024  0.00  0.00    +0.158 C 
ATOM      2  O   UNL     1      84.326  50.591  44.263  0.00  0.00    -0.480 OA
ATOM      3  C   UNL     1      83.290  50.973  43.400  0.00  0.00    +0.139 A 
ATOM      4  C   UNL     1      82.032  50.385  43.548  0.00  0.00    +0.023 A 
ATOM      5  C   UNL     1      80.984  50.737  42.697  0.00  0.00    +0.124 A 
ATOM      6  C   UNL     1      81.188  51.705  41.707  0.00  0.00    +0.022 A 
ATOM      7  C   UNL     1      82.431  52.336  41.567  0.00  0.00    +0.134 A 
ATOM      8  C   UNL     1      83.510  51.944  42.400  0.00  0.00    +0.103 A 
ATOM      9  C   UNL     1      84.882  52.497  42.296  0.00  0.00    +0.203 C 
ATOM     10  O   UNL     1      85.314  53.001  41.226  0.00  0.00    -0.289 OA
ATOM     11  C   UNL     1      85.800  52.381  43.483  0.00  0.00    +0.165 C 
ENDROOT
BRANCH   1  15
ATOM     12  C   UNL     1      87.973  50.357  47.651  0.00  0.00    +0.117 A 
ATOM     13  C   UNL     1      88.432  49.821  46.445  0.00  0.00    -0.020 A 
ATOM     14  C   UNL     1      87.707  50.019  45.265  0.00  0.00    -0.052 A 
ATOM     15  C   UNL     1      86.514  50.764  45.281  0.00  0.00    -0.004 A 
ATOM     16  C   UNL     1      86.051  51.288  46.500  0.00  0.00    -0.052 A 
ATOM     17  C   UNL     1      86.781  51.093  47.676  0.00  0.00    -0.020 A 
BRANCH  12  18
ATOM     18  O   UNL     1      88.704  50.148  48.819  0.00  0.00    -0.507 OA
ATOM     19  H   UNL     1      89.535  50.565  48.932  0.00  0.00    +0.000 HD
ENDBRANCH  12  18
ENDBRANCH   1  15
BRANCH   5  20
ATOM     20  O   UNL     1      79.742  50.124  42.846  0.00  0.00    -0.507 OA
ATOM     21  H   UNL     1      79.353  50.056  43.695  0.00  0.00    +0.000 HD
ENDBRANCH   5  20
BRANCH   7  22
ATOM     22  O   UNL     1      82.530  53.359  40.621  0.00  0.00    -0.506 OA
ATOM     23  H   UNL     1      82.627  54.248  40.901  0.00  0.00    +0.000 HD
ENDBRANCH   7  22
BRANCH  11  24
ATOM     24  O   UNL     1      85.386  53.293  44.486  0.00  0.00    -0.333 OA
BRANCH  24  25
ATOM     25  C   UNL     1      86.106  54.512  44.403  0.00  0.00    +0.189 C 
ATOM     26  O   UNL     1      86.584  54.892  45.692  0.00  0.00    -0.343 OA
ATOM     27  C   UNL     1      85.566  55.505  46.461  0.00  0.00    +0.087 C 
ATOM     28  C   UNL     1      86.022  55.574  47.919  0.00  0.00    -0.036 C 
ATOM     29  C   UNL     1      85.248  56.919  45.907  0.00  0.00    +0.109 C 
ATOM     30  C   UNL     1      85.465  56.980  44.372  0.00  0.00    +0.114 C 
ATOM     31  C   UNL     1      85.198  55.596  43.751  0.00  0.00    +0.134 C 
BRANCH  31  32
ATOM     32  O   UNL     1      85.341  55.619  42.350  0.00  0.00    -0.384 OA
ATOM     33  H   UNL     1      85.962  54.926  42.078  0.00  0.00    +0.000 HD
ENDBRANCH  31  32
BRANCH  30  34
ATOM     34  O   UNL     1      86.785  57.375  44.091  0.00  0.00    -0.386 OA
ATOM     35  H   UNL     1      86.777  58.233  43.639  0.00  0.00    +0.000 HD
ENDBRANCH  30  34
BRANCH  29  36
ATOM     36  O   UNL     1      83.916  57.238  46.217  0.00  0.00    -0.387 OA
ATOM     37  H   UNL     1      83.410  57.347  45.397  0.00  0.00    +0.000 HD
ENDBRANCH  29  36
ENDBRANCH  24  25
ENDBRANCH  11  24
TORSDOF 9
ENDMDL
MODEL 9
REMARK VINA RESULT:    -7.883      2.805      7.148
REMARK INTER + INTRA:         -11.969
REMARK INTER:                 -10.648
REMARK INTRA:                  -1.320
REMARK UNBOUND:                -1.320
REMARK  Name = 
REMARK  10 active torsions:
REMARK  status: ('A' for Active; 'I' for Inactive)
REMARK    1  A    between atoms: O_1  and  C_2
REMARK    2  A    between atoms: C_5  and  C_8
REMARK    3  A    between atoms: C_12  and  O_13
REMARK    4  A    between atoms: C_15  and  O_31
REMARK    5  A    between atoms: C_19  and  O_20
REMARK    6  A    between atoms: O_20  and  C_21
REMARK    7  A    between atoms: C_23  and  C_24
REMARK    8  A    between atoms: C_25  and  O_30
REMARK    9  A    between atoms: C_26  and  O_29
REMARK   10  A    between atoms: C_27  and  O_28
REMARK                            x       y       z     vdW  Elec       q    Type
REMARK                         _______ _______ _______ _____ _____    ______ ____
ROOT
ATOM      1  C   UNL     1      86.889  52.287  42.773  0.00  0.00    +0.158 C 
ATOM      2  O   UNL     1      86.573  52.649  41.424  0.00  0.00    -0.480 OA
ATOM      3  C   UNL     1      85.482  53.468  41.101  0.00  0.00    +0.139 A 
ATOM      4  C   UNL     1      85.386  53.991  39.809  0.00  0.00    +0.023 A 
ATOM      5  C   UNL     1      84.318  54.817  39.461  0.00  0.00    +0.124 A 
ATOM      6  C   UNL     1      83.323  55.101  40.403  0.00  0.00    +0.022 A 
ATOM      7  C   UNL     1      83.380  54.556  41.691  0.00  0.00    +0.134 A 
ATOM      8  C   UNL     1      84.490  53.755  42.061  0.00  0.00    +0.103 A 
ATOM      9  C   UNL     1      84.686  53.180  43.415  0.00  0.00    +0.203 C 
ATOM     10  O   UNL     1      84.155  53.693  44.435  0.00  0.00    -0.289 OA
ATOM     11  C   UNL     1      85.603  51.998  43.573  0.00  0.00    +0.165 C 
ENDROOT
BRANCH   1  15
ATOM     12  C   UNL     1      89.664  48.973  42.855  0.00  0.00    +0.117 A 
ATOM     13  C   UNL     1      88.926  49.293  43.998  0.00  0.00    -0.020 A 
ATOM     14  C   UNL     1      88.015  50.354  43.973  0.00  0.00    -0.052 A 
ATOM     15  C   UNL     1      87.830  51.105  42.798  0.00  0.00    -0.004 A 
ATOM     16  C   UNL     1      88.586  50.786  41.658  0.00  0.00    -0.052 A 
ATOM     17  C   UNL     1      89.490  49.721  41.684  0.00  0.00    -0.020 A 
BRANCH  12  18
ATOM     18  O   UNL     1      90.570  47.915  42.896  0.00  0.00    -0.507 OA
ATOM     19  H   UNL     1      90.567  47.269  42.218  0.00  0.00    +0.000 HD
ENDBRANCH  12  18
ENDBRANCH   1  15
BRANCH   5  20
ATOM     20  O   UNL     1      84.250  55.347  38.174  0.00  0.00    -0.507 OA
ATOM     21  H   UNL     1      83.814  54.871  37.494  0.00  0.00    +0.000 HD
ENDBRANCH   5  20
BRANCH   7  22
ATOM     22  O   UNL     1      82.302  54.806  42.545  0.00  0.00    -0.506 OA
ATOM     23  H   UNL     1      81.827  55.610  42.477  0.00  0.00    +0.000 HD
ENDBRANCH   7  22
BRANCH  11  24
ATOM     24  O   UNL     1      84.972  50.842  43.049  0.00  0.00    -0.333 OA
BRANCH  24  25
ATOM     25  C   UNL     1      84.025  50.313  43.963  0.00  0.00    +0.189 C 
ATOM     26  O   UNL     1      84.577  49.195  44.655  0.00  0.00    -0.343 OA
ATOM     27  C   UNL     1      84.523  48.021  43.866  0.00  0.00    +0.087 C 
ATOM     28  C   UNL     1      85.420  46.958  44.500  0.00  0.00    -0.036 C 
ATOM     29  C   UNL     1      83.060  47.518  43.745  0.00  0.00    +0.109 C 
ATOM     30  C   UNL     1      82.057  48.701  43.781  0.00  0.00    +0.114 C 
ATOM     31  C   UNL     1      82.716  49.964  43.194  0.00  0.00    +0.134 C 
BRANCH  31  32
ATOM     32  O   UNL     1      81.823  51.051  43.168  0.00  0.00    -0.384 OA
ATOM     33  H   UNL     1      81.011  50.791  42.707  0.00  0.00    +0.000 HD
ENDBRANCH  31  32
BRANCH  30  34
ATOM     34  O   UNL     1      81.661  48.950  45.107  0.00  0.00    -0.386 OA
ATOM     35  H   UNL     1      82.374  49.410  45.577  0.00  0.00    +0.000 HD
ENDBRANCH  30  34
BRANCH  29  36
ATOM     36  O   UNL     1      82.923  46.808  42.540  0.00  0.00    -0.387 OA
ATOM     37  H   UNL     1      83.131  45.873  42.690  0.00  0.00    +0.000 HD
ENDBRANCH  29  36
ENDBRANCH  24  25
ENDBRANCH  11  24
TORSDOF 9
ENDMDL
