=
 OpenBabel08112514243D

 30 33  0  0  1  0  0  0  0  0999 V2000
   81.9570   52.8720   41.3120 O   0  0  0  0  0  0  0  0  0  0  0  0
   82.2780   52.0790   42.2350 C   0  0  0  0  0  0  0  0  0  0  0  0
   81.5500   50.7650   42.3220 C   0  0  0  0  0  2  0  0  0  0  0  0
   81.6590   50.1690   43.7360 C   0  0  2  0  0  3  0  0  0  0  0  0
   83.0270   50.1800   44.1450 O   0  0  0  0  0  0  0  0  0  0  0  0
   83.8330   51.3120   43.9920 C   0  0  0  0  0  0  0  0  0  0  0  0
   83.4480   52.3480   43.1210 C   0  0  0  0  0  0  0  0  0  0  0  0
   84.2320   53.5320   43.0700 C   0  0  0  0  0  0  0  0  0  0  0  0
   85.4540   53.5990   43.7810 C   0  0  0  0  0  0  0  0  0  0  0  0
   85.8410   52.5210   44.6040 C   0  0  0  0  0  0  0  0  0  0  0  0
   85.0230   51.3960   44.7110 C   0  0  0  0  0  3  0  0  0  0  0  0
   81.1030   48.7610   43.8860 C   0  0  0  0  0  0  0  0  0  0  0  0
   82.0070   47.6830   43.8830 C   0  0  0  0  0  3  0  0  0  0  0  0
   81.5540   46.3700   44.0440 C   0  0  0  0  0  3  0  0  0  0  0  0
   80.1930   46.1160   44.2220 C   0  0  0  0  0  3  0  0  0  0  0  0
   79.2840   47.1750   44.2460 C   0  0  0  0  0  3  0  0  0  0  0  0
   79.7310   48.4900   44.0870 C   0  0  0  0  0  3  0  0  0  0  0  0
   83.8260   54.6650   42.3580 O   0  0  0  0  0  0  0  0  0  0  0  0
   83.0360   54.6430   41.8550 H   0  0  0  0  0  0  0  0  0  0  0  0
   87.0320   52.5770   45.3290 O   0  0  0  0  0  0  0  0  0  0  0  0
   87.0170   52.8010   46.2380 H   0  0  0  0  0  0  0  0  0  0  0  0
   86.3310   54.8300   43.6640 C   0  0  0  0  0  2  0  0  0  0  0  0
   85.8880   55.9090   44.6240 C   0  0  0  0  0  0  0  0  0  0  0  0
   86.1350   55.7660   46.0010 C   0  0  0  0  0  3  0  0  0  0  0  0
   85.7140   56.7480   46.9020 C   0  0  0  0  0  3  0  0  0  0  0  0
   85.0430   57.8810   46.4400 C   0  0  0  0  0  3  0  0  0  0  0  0
   84.7950   58.0390   45.0750 C   0  0  0  0  0  3  0  0  0  0  0  0
   85.2140   57.0600   44.1620 C   0  0  0  0  0  0  0  0  0  0  0  0
   84.9660   57.2300   42.8010 O   0  0  0  0  0  0  0  0  0  0  0  0
   84.7340   56.4920   42.2710 H   0  0  0  0  0  0  0  0  0  0  0  0
  1  2  2  0  0  0  0
  2  3  1  0  0  0  0
  2  7  1  0  0  0  0
  3  4  1  0  0  0  0
  4 12  1  6  0  0  0
  4  5  1  0  0  0  0
  6  5  1  0  0  0  0
  6 11  1  0  0  0  0
  7  6  2  0  0  0  0
  8  7  1  0  0  0  0
  8  9  2  0  0  0  0
  9 10  1  0  0  0  0
 10 11  2  0  0  0  0
 10 20  1  0  0  0  0
 12 17  1  0  0  0  0
 13 12  2  0  0  0  0
 13 14  1  0  0  0  0
 14 15  2  0  0  0  0
 15 16  1  0  0  0  0
 17 16  2  0  0  0  0
 18  8  1  0  0  0  0
 19 18  1  0  0  0  0
 20 21  1  0  0  0  0
 22  9  1  0  0  0  0
 22 23  1  0  0  0  0
 23 24  1  0  0  0  0
 24 25  2  0  0  0  0
 26 25  1  0  0  0  0
 27 26  2  0  0  0  0
 28 23  2  0  0  0  0
 28 27  1  0  0  0  0
 29 28  1  0  0  0  0
 30 29  1  0  0  0  0
M  END
>  <MODEL>
1

>  <REMARK>
 VINA RESULT:    -9.612      0.000      0.000
 INTER + INTRA:         -12.600
 INTER:                 -11.659
 INTRA:                  -0.941
 UNBOUND:                -0.460
  Name = 
  6 active torsions:
  status: ('A' for Active; 'I' for Inactive)
    1  A    between atoms: C_4  and  C_22
    2  A    between atoms: C_8  and  O_9
    3  A    between atoms: C_10  and  C_14
    4  A    between atoms: C_11  and  O_13
    5  A    between atoms: C_14  and  C_15
    6  A    between atoms: C_20  and  O_21
                            x       y       z     vdW  Elec       q    Type
                         _______ _______ _______ _____ _____    ______ ____

>  <TORSDO>
F 6

$$$$
=
 OpenBabel08112514243D

 30 33  0  0  1  0  0  0  0  0999 V2000
   85.2390   50.8890   44.4190 O   0  0  0  0  0  0  0  0  0  0  0  0
   85.7250   52.0050   44.0990 C   0  0  0  0  0  0  0  0  0  0  0  0
   85.2780   53.2170   44.8720 C   0  0  0  0  0  2  0  0  0  0  0  0
   85.5220   54.5040   44.0660 C   0  0  2  0  0  3  0  0  0  0  0  0
   86.8630   54.5050   43.5780 O   0  0  0  0  0  0  0  0  0  0  0  0
   87.4220   53.3850   42.9540 C   0  0  0  0  0  0  0  0  0  0  0  0
   86.8250   52.1180   43.0990 C   0  0  0  0  0  0  0  0  0  0  0  0
   87.3520   51.0210   42.3650 C   0  0  0  0  0  0  0  0  0  0  0  0
   88.5430   51.1810   41.6180 C   0  0  0  0  0  0  0  0  0  0  0  0
   89.1500   52.4520   41.5360 C   0  0  0  0  0  0  0  0  0  0  0  0
   88.5780   53.5420   42.1940 C   0  0  0  0  0  3  0  0  0  0  0  0
   85.2630   55.7970   44.8240 C   0  0  0  0  0  0  0  0  0  0  0  0
   85.6320   57.0120   44.2150 C   0  0  0  0  0  3  0  0  0  0  0  0
   85.3940   58.2320   44.8550 C   0  0  0  0  0  3  0  0  0  0  0  0
   84.7720   58.2590   46.1040 C   0  0  0  0  0  3  0  0  0  0  0  0
   84.3830   57.0650   46.7130 C   0  0  0  0  0  3  0  0  0  0  0  0
   84.6170   55.8410   46.0790 C   0  0  0  0  0  3  0  0  0  0  0  0
   86.7180   49.7760   42.3270 O   0  0  0  0  0  0  0  0  0  0  0  0
   86.5080   49.3820   41.5040 H   0  0  0  0  0  0  0  0  0  0  0  0
   90.3120   52.6340   40.7860 O   0  0  0  0  0  0  0  0  0  0  0  0
   91.0460   52.0670   40.9130 H   0  0  0  0  0  0  0  0  0  0  0  0
   89.1510   49.9930   40.9000 C   0  0  0  0  0  2  0  0  0  0  0  0
   89.8070   49.0420   41.8740 C   0  0  0  0  0  0  0  0  0  0  0  0
   90.8750   49.4860   42.6740 C   0  0  0  0  0  3  0  0  0  0  0  0
   91.5030   48.6130   43.5660 C   0  0  0  0  0  3  0  0  0  0  0  0
   91.0730   47.2890   43.6690 C   0  0  0  0  0  3  0  0  0  0  0  0
   90.0110   46.8350   42.8840 C   0  0  0  0  0  3  0  0  0  0  0  0
   89.3740   47.7040   41.9860 C   0  0  0  0  0  0  0  0  0  0  0  0
   88.3110   47.2430   41.2110 O   0  0  0  0  0  0  0  0  0  0  0  0
   88.0260   46.3530   41.2890 H   0  0  0  0  0  0  0  0  0  0  0  0
  2  1  2  0  0  0  0
  2  3  1  0  0  0  0
  4 12  1  1  0  0  0
  4  3  1  0  0  0  0
  5  4  1  0  0  0  0
  6  7  1  0  0  0  0
  6  5  1  0  0  0  0
  7  2  1  0  0  0  0
  8  7  2  0  0  0  0
  9  8  1  0  0  0  0
 10  9  2  0  0  0  0
 10 11  1  0  0  0  0
 11  6  2  0  0  0  0
 12 17  1  0  0  0  0
 13 12  2  0  0  0  0
 13 14  1  0  0  0  0
 14 15  2  0  0  0  0
 15 16  1  0  0  0  0
 17 16  2  0  0  0  0
 18  8  1  0  0  0  0
 19 18  1  0  0  0  0
 20 21  1  0  0  0  0
 20 10  1  0  0  0  0
 22  9  1  0  0  0  0
 22 23  1  0  0  0  0
 23 28  2  0  0  0  0
 23 24  1  0  0  0  0
 24 25  2  0  0  0  0
 25 26  1  0  0  0  0
 27 26  2  0  0  0  0
 28 27  1  0  0  0  0
 29 30  1  0  0  0  0
 29 28  1  0  0  0  0
M  END
>  <MODEL>
2

>  <REMARK>
 VINA RESULT:    -9.476      4.178      8.267
 INTER + INTRA:         -12.429
 INTER:                 -11.496
 INTRA:                  -0.933
 UNBOUND:                -0.460
  Name = 
  6 active torsions:
  status: ('A' for Active; 'I' for Inactive)
    1  A    between atoms: C_4  and  C_22
    2  A    between atoms: C_8  and  O_9
    3  A    between atoms: C_10  and  C_14
    4  A    between atoms: C_11  and  O_13
    5  A    between atoms: C_14  and  C_15
    6  A    between atoms: C_20  and  O_21
                            x       y       z     vdW  Elec       q    Type
                         _______ _______ _______ _____ _____    ______ ____

>  <TORSDO>
F 6

$$$$
=
 OpenBabel08112514243D

 30 33  0  0  1  0  0  0  0  0999 V2000
   86.2160   53.3270   40.9590 O   0  0  0  0  0  0  0  0  0  0  0  0
   86.1030   53.4200   42.2100 C   0  0  0  0  0  0  0  0  0  0  0  0
   85.6700   54.7420   42.7830 C   0  0  0  0  0  2  0  0  0  0  0  0
   86.0800   54.8610   44.2610 C   0  0  2  0  0  3  0  0  0  0  0  0
   85.6660   53.6860   44.9580 O   0  0  0  0  0  0  0  0  0  0  0  0
   85.9070   52.4050   44.4520 C   0  0  0  0  0  0  0  0  0  0  0  0
   86.2350   52.2270   43.0950 C   0  0  0  0  0  0  0  0  0  0  0  0
   86.5810   50.9260   42.6360 C   0  0  0  0  0  0  0  0  0  0  0  0
   86.4530   49.8160   43.5030 C   0  0  0  0  0  0  0  0  0  0  0  0
   86.0680   50.0200   44.8440 C   0  0  0  0  0  0  0  0  0  0  0  0
   85.8100   51.3110   45.3080 C   0  0  0  0  0  3  0  0  0  0  0  0
   85.5400   56.0870   44.9820 C   0  0  0  0  0  0  0  0  0  0  0  0
   85.8010   57.3550   44.4270 C   0  0  0  0  0  3  0  0  0  0  0  0
   85.3080   58.5140   45.0320 C   0  0  0  0  0  3  0  0  0  0  0  0
   84.5360   58.4250   46.1920 C   0  0  0  0  0  3  0  0  0  0  0  0
   84.2520   57.1760   46.7440 C   0  0  0  0  0  3  0  0  0  0  0  0
   84.7420   56.0120   46.1440 C   0  0  0  0  0  3  0  0  0  0  0  0
   87.0760   50.6980   41.3480 O   0  0  0  0  0  0  0  0  0  0  0  0
   87.5400   49.9060   41.1590 H   0  0  0  0  0  0  0  0  0  0  0  0
   85.9580   48.9400   45.7210 O   0  0  0  0  0  0  0  0  0  0  0  0
   85.8610   48.0720   45.3860 H   0  0  0  0  0  0  0  0  0  0  0  0
   86.7440   48.4190   42.9920 C   0  0  0  0  0  2  0  0  0  0  0  0
   88.2170   48.0970   43.0870 C   0  0  0  0  0  0  0  0  0  0  0  0
   89.0760   48.9530   43.8000 C   0  0  0  0  0  3  0  0  0  0  0  0
   90.4440   48.6780   43.8800 C   0  0  0  0  0  3  0  0  0  0  0  0
   90.9690   47.5480   43.2510 C   0  0  0  0  0  3  0  0  0  0  0  0
   90.1280   46.6880   42.5420 C   0  0  0  0  0  3  0  0  0  0  0  0
   88.7530   46.9550   42.4560 C   0  0  0  0  0  0  0  0  0  0  0  0
   87.9210   46.0860   41.7520 O   0  0  0  0  0  0  0  0  0  0  0  0
   87.7920   45.2100   42.0580 H   0  0  0  0  0  0  0  0  0  0  0  0
  1  2  2  0  0  0  0
  2  3  1  0  0  0  0
  2  7  1  0  0  0  0
  3  4  1  0  0  0  0
  4  5  1  0  0  0  0
  4 12  1  1  0  0  0
  6  5  1  0  0  0  0
  6 11  1  0  0  0  0
  7  6  2  0  0  0  0
  8  7  1  0  0  0  0
  8  9  2  0  0  0  0
  9 10  1  0  0  0  0
 10 11  2  0  0  0  0
 10 20  1  0  0  0  0
 12 17  1  0  0  0  0
 13 12  2  0  0  0  0
 13 14  1  0  0  0  0
 14 15  2  0  0  0  0
 15 16  1  0  0  0  0
 17 16  2  0  0  0  0
 18  8  1  0  0  0  0
 19 18  1  0  0  0  0
 21 20  1  0  0  0  0
 22 23  1  0  0  0  0
 22  9  1  0  0  0  0
 23 24  1  0  0  0  0
 24 25  2  0  0  0  0
 26 25  1  0  0  0  0
 27 26  2  0  0  0  0
 28 27  1  0  0  0  0
 28 23  2  0  0  0  0
 29 30  1  0  0  0  0
 29 28  1  0  0  0  0
M  END
>  <MODEL>
3

>  <REMARK>
 VINA RESULT:    -9.037      3.746      8.145
 INTER + INTRA:         -11.875
 INTER:                 -11.301
 INTRA:                  -0.573
 UNBOUND:                -0.460
  Name = 
  6 active torsions:
  status: ('A' for Active; 'I' for Inactive)
    1  A    between atoms: C_4  and  C_22
    2  A    between atoms: C_8  and  O_9
    3  A    between atoms: C_10  and  C_14
    4  A    between atoms: C_11  and  O_13
    5  A    between atoms: C_14  and  C_15
    6  A    between atoms: C_20  and  O_21
                            x       y       z     vdW  Elec       q    Type
                         _______ _______ _______ _____ _____    ______ ____

>  <TORSDO>
F 6

$$$$
=
 OpenBabel08112514243D

 30 33  0  0  1  0  0  0  0  0999 V2000
   85.6980   50.1090   44.1440 O   0  0  0  0  0  0  0  0  0  0  0  0
   84.4860   50.1380   43.8070 C   0  0  0  0  0  0  0  0  0  0  0  0
   83.5860   49.0440   44.3130 C   0  0  0  0  0  2  0  0  0  0  0  0
   82.3320   48.9110   43.4310 C   0  0  2  0  0  3  0  0  0  0  0  0
   81.7460   50.2010   43.2520 O   0  0  0  0  0  0  0  0  0  0  0  0
   82.5140   51.3170   42.9030 C   0  0  0  0  0  0  0  0  0  0  0  0
   83.9120   51.2980   43.0650 C   0  0  0  0  0  0  0  0  0  0  0  0
   84.6730   52.4050   42.6010 C   0  0  0  0  0  0  0  0  0  0  0  0
   84.0140   53.5600   42.1190 C   0  0  0  0  0  0  0  0  0  0  0  0
   82.6080   53.5710   42.0200 C   0  0  0  0  0  0  0  0  0  0  0  0
   81.8730   52.4470   42.4020 C   0  0  0  0  0  3  0  0  0  0  0  0
   81.2760   47.9500   43.9540 C   0  0  0  0  0  0  0  0  0  0  0  0
   79.9870   48.4520   44.2160 C   0  0  0  0  0  3  0  0  0  0  0  0
   78.9710   47.6080   44.6730 C   0  0  0  0  0  3  0  0  0  0  0  0
   79.2210   46.2490   44.8620 C   0  0  0  0  0  3  0  0  0  0  0  0
   80.4880   45.7300   44.5890 C   0  0  0  0  0  3  0  0  0  0  0  0
   81.5090   46.5680   44.1310 C   0  0  0  0  0  3  0  0  0  0  0  0
   86.0710   52.3890   42.5750 O   0  0  0  0  0  0  0  0  0  0  0  0
   86.5550   53.0240   43.0660 H   0  0  0  0  0  0  0  0  0  0  0  0
   81.9410   54.6920   41.5260 O   0  0  0  0  0  0  0  0  0  0  0  0
   82.0830   55.5320   41.9160 H   0  0  0  0  0  0  0  0  0  0  0  0
   84.8220   54.7720   41.6980 C   0  0  0  0  0  2  0  0  0  0  0  0
   85.1310   55.6600   42.8810 C   0  0  0  0  0  0  0  0  0  0  0  0
   84.1580   56.5560   43.3580 C   0  0  0  0  0  3  0  0  0  0  0  0
   84.4360   57.3960   44.4390 C   0  0  0  0  0  3  0  0  0  0  0  0
   85.6880   57.3520   45.0550 C   0  0  0  0  0  3  0  0  0  0  0  0
   86.6630   56.4650   44.5960 C   0  0  0  0  0  3  0  0  0  0  0  0
   86.3930   55.6160   43.5110 C   0  0  0  0  0  0  0  0  0  0  0  0
   87.3720   54.7300   43.0640 O   0  0  0  0  0  0  0  0  0  0  0  0
   87.2170   54.2070   42.3020 H   0  0  0  0  0  0  0  0  0  0  0  0
  2  1  2  0  0  0  0
  2  3  1  0  0  0  0
  4 12  1  1  0  0  0
  4  3  1  0  0  0  0
  5  4  1  0  0  0  0
  6  7  1  0  0  0  0
  6  5  1  0  0  0  0
  7  2  1  0  0  0  0
  8  7  2  0  0  0  0
  9  8  1  0  0  0  0
 10  9  2  0  0  0  0
 10 11  1  0  0  0  0
 11  6  2  0  0  0  0
 12 17  2  0  0  0  0
 12 13  1  0  0  0  0
 13 14  2  0  0  0  0
 14 15  1  0  0  0  0
 16 15  2  0  0  0  0
 17 16  1  0  0  0  0
 18  8  1  0  0  0  0
 18 19  1  0  0  0  0
 20 21  1  0  0  0  0
 20 10  1  0  0  0  0
 22  9  1  0  0  0  0
 22 23  1  0  0  0  0
 23 24  2  0  0  0  0
 23 28  1  0  0  0  0
 24 25  1  0  0  0  0
 25 26  2  0  0  0  0
 27 26  1  0  0  0  0
 28 27  2  0  0  0  0
 29 28  1  0  0  0  0
 30 29  1  0  0  0  0
M  END
>  <MODEL>
4

>  <REMARK>
 VINA RESULT:    -8.960      1.540      2.964
 INTER + INTRA:         -11.778
 INTER:                 -10.734
 INTRA:                  -1.044
 UNBOUND:                -0.460
  Name = 
  6 active torsions:
  status: ('A' for Active; 'I' for Inactive)
    1  A    between atoms: C_4  and  C_22
    2  A    between atoms: C_8  and  O_9
    3  A    between atoms: C_10  and  C_14
    4  A    between atoms: C_11  and  O_13
    5  A    between atoms: C_14  and  C_15
    6  A    between atoms: C_20  and  O_21
                            x       y       z     vdW  Elec       q    Type
                         _______ _______ _______ _____ _____    ______ ____

>  <TORSDO>
F 6

$$$$
=
 OpenBabel08112514243D

 30 33  0  0  1  0  0  0  0  0999 V2000
   86.4600   51.6650   48.0570 O   0  0  0  0  0  0  0  0  0  0  0  0
   86.1180   52.3660   47.0700 C   0  0  0  0  0  0  0  0  0  0  0  0
   85.8550   53.8300   47.3010 C   0  0  0  0  0  2  0  0  0  0  0  0
   84.9690   54.4120   46.1850 C   0  0  2  0  0  3  0  0  0  0  0  0
   85.5100   54.0430   44.9170 O   0  0  0  0  0  0  0  0  0  0  0  0
   85.9050   52.7310   44.6370 C   0  0  0  0  0  0  0  0  0  0  0  0
   86.1220   51.8150   45.6840 C   0  0  0  0  0  0  0  0  0  0  0  0
   86.4170   50.4620   45.3640 C   0  0  0  0  0  0  0  0  0  0  0  0
   86.6270   50.0870   44.0160 C   0  0  0  0  0  0  0  0  0  0  0  0
   86.4570   51.0410   42.9920 C   0  0  0  0  0  0  0  0  0  0  0  0
   86.0870   52.3480   43.3110 C   0  0  0  0  0  3  0  0  0  0  0  0
   84.7850   55.9210   46.2320 C   0  0  0  0  0  0  0  0  0  0  0  0
   85.5340   56.7120   45.3410 C   0  0  0  0  0  3  0  0  0  0  0  0
   85.3860   58.1020   45.3210 C   0  0  0  0  0  3  0  0  0  0  0  0
   84.4780   58.7210   46.1820 C   0  0  0  0  0  3  0  0  0  0  0  0
   83.7130   57.9510   47.0580 C   0  0  0  0  0  3  0  0  0  0  0  0
   83.8560   56.5600   47.0830 C   0  0  0  0  0  3  0  0  0  0  0  0
   86.4820   49.4620   46.3400 O   0  0  0  0  0  0  0  0  0  0  0  0
   86.7730   48.6020   46.1100 H   0  0  0  0  0  0  0  0  0  0  0  0
   86.6380   50.6850   41.6550 O   0  0  0  0  0  0  0  0  0  0  0  0
   85.9960   50.1620   41.2180 H   0  0  0  0  0  0  0  0  0  0  0  0
   87.0210   48.6610   43.6800 C   0  0  0  0  0  2  0  0  0  0  0  0
   88.4680   48.5800   43.2540 C   0  0  0  0  0  0  0  0  0  0  0  0
   89.4890   48.7910   44.1970 C   0  0  0  0  0  3  0  0  0  0  0  0
   90.8310   48.7380   43.8130 C   0  0  0  0  0  3  0  0  0  0  0  0
   91.1690   48.4720   42.4850 C   0  0  0  0  0  3  0  0  0  0  0  0
   90.1670   48.2560   41.5380 C   0  0  0  0  0  3  0  0  0  0  0  0
   88.8160   48.3070   41.9140 C   0  0  0  0  0  0  0  0  0  0  0  0
   87.8220   48.0840   40.9610 O   0  0  0  0  0  0  0  0  0  0  0  0
   86.9190   48.1680   41.1980 H   0  0  0  0  0  0  0  0  0  0  0  0
  2  3  1  0  0  0  0
  2  1  2  0  0  0  0
  4 12  1  6  0  0  0
  4  3  1  0  0  0  0
  5  4  1  0  0  0  0
  6  5  1  0  0  0  0
  6  7  1  0  0  0  0
  7  2  1  0  0  0  0
  8  7  2  0  0  0  0
  8 18  1  0  0  0  0
  9  8  1  0  0  0  0
 10 11  1  0  0  0  0
 10  9  2  0  0  0  0
 11  6  2  0  0  0  0
 12 17  1  0  0  0  0
 13 12  2  0  0  0  0
 14 13  1  0  0  0  0
 14 15  2  0  0  0  0
 15 16  1  0  0  0  0
 16 17  2  0  0  0  0
 19 18  1  0  0  0  0
 20 10  1  0  0  0  0
 21 20  1  0  0  0  0
 22  9  1  0  0  0  0
 23 22  1  0  0  0  0
 23 24  1  0  0  0  0
 25 24  2  0  0  0  0
 26 25  1  0  0  0  0
 27 28  1  0  0  0  0
 27 26  2  0  0  0  0
 28 23  2  0  0  0  0
 29 30  1  0  0  0  0
 29 28  1  0  0  0  0
M  END
>  <MODEL>
5

>  <REMARK>
 VINA RESULT:    -8.904      4.006      8.196
 INTER + INTRA:         -11.706
 INTER:                 -10.776
 INTRA:                  -0.930
 UNBOUND:                -0.460
  Name = 
  6 active torsions:
  status: ('A' for Active; 'I' for Inactive)
    1  A    between atoms: C_4  and  C_22
    2  A    between atoms: C_8  and  O_9
    3  A    between atoms: C_10  and  C_14
    4  A    between atoms: C_11  and  O_13
    5  A    between atoms: C_14  and  C_15
    6  A    between atoms: C_20  and  O_21
                            x       y       z     vdW  Elec       q    Type
                         _______ _______ _______ _____ _____    ______ ____

>  <TORSDO>
F 6

$$$$
=
 OpenBabel08112514243D

 30 33  0  0  1  0  0  0  0  0999 V2000
   89.7300   51.5360   42.0060 O   0  0  0  0  0  0  0  0  0  0  0  0
   88.7150   50.8400   42.2680 C   0  0  0  0  0  0  0  0  0  0  0  0
   88.8920   49.3500   42.3860 C   0  0  0  0  0  2  0  0  0  0  0  0
   87.5540   48.6190   42.1790 C   0  0  2  0  0  3  0  0  0  0  0  0
   86.5580   49.2210   43.0060 O   0  0  0  0  0  0  0  0  0  0  0  0
   86.3910   50.6080   43.0680 C   0  0  0  0  0  0  0  0  0  0  0  0
   87.4060   51.4680   42.6100 C   0  0  0  0  0  0  0  0  0  0  0  0
   87.1620   52.8680   42.5850 C   0  0  0  0  0  0  0  0  0  0  0  0
   85.9710   53.3860   43.1470 C   0  0  0  0  0  0  0  0  0  0  0  0
   84.9950   52.5010   43.6490 C   0  0  0  0  0  0  0  0  0  0  0  0
   85.2090   51.1230   43.5940 C   0  0  0  0  0  3  0  0  0  0  0  0
   87.5910   47.1220   42.4470 C   0  0  0  0  0  0  0  0  0  0  0  0
   88.8310   46.4620   42.3750 C   0  0  0  0  0  3  0  0  0  0  0  0
   88.9280   45.0920   42.6370 C   0  0  0  0  0  3  0  0  0  0  0  0
   87.7900   44.3640   42.9880 C   0  0  0  0  0  3  0  0  0  0  0  0
   86.5550   45.0070   43.0830 C   0  0  0  0  0  3  0  0  0  0  0  0
   86.4510   46.3760   42.8220 C   0  0  0  0  0  3  0  0  0  0  0  0
   88.0530   53.7700   41.9930 O   0  0  0  0  0  0  0  0  0  0  0  0
   88.8090   54.0580   42.4660 H   0  0  0  0  0  0  0  0  0  0  0  0
   83.8050   52.9910   44.1870 O   0  0  0  0  0  0  0  0  0  0  0  0
   83.1390   52.3970   44.4710 H   0  0  0  0  0  0  0  0  0  0  0  0
   85.7460   54.8840   43.1940 C   0  0  0  0  0  2  0  0  0  0  0  0
   85.6630   55.3810   44.6180 C   0  0  0  0  0  0  0  0  0  0  0  0
   86.6000   54.9400   45.5700 C   0  0  0  0  0  3  0  0  0  0  0  0
   86.5240   55.3760   46.8950 C   0  0  0  0  0  3  0  0  0  0  0  0
   85.5130   56.2550   47.2850 C   0  0  0  0  0  3  0  0  0  0  0  0
   84.5780   56.7050   46.3510 C   0  0  0  0  0  3  0  0  0  0  0  0
   84.6460   56.2730   45.0180 C   0  0  0  0  0  0  0  0  0  0  0  0
   83.7110   56.7330   44.0920 O   0  0  0  0  0  0  0  0  0  0  0  0
   82.9700   56.2020   43.8710 H   0  0  0  0  0  0  0  0  0  0  0  0
  1  2  2  0  0  0  0
  2  3  1  0  0  0  0
  2  7  1  0  0  0  0
  4  3  1  0  0  0  0
  4 12  1  1  0  0  0
  4  5  1  0  0  0  0
  5  6  1  0  0  0  0
  6 11  1  0  0  0  0
  7  6  2  0  0  0  0
  8  7  1  0  0  0  0
  8  9  2  0  0  0  0
  9 22  1  0  0  0  0
  9 10  1  0  0  0  0
 10 20  1  0  0  0  0
 11 10  2  0  0  0  0
 12 17  1  0  0  0  0
 13 12  2  0  0  0  0
 13 14  1  0  0  0  0
 14 15  2  0  0  0  0
 15 16  1  0  0  0  0
 17 16  2  0  0  0  0
 18 19  1  0  0  0  0
 18  8  1  0  0  0  0
 20 21  1  0  0  0  0
 22 23  1  0  0  0  0
 23 28  2  0  0  0  0
 23 24  1  0  0  0  0
 24 25  2  0  0  0  0
 25 26  1  0  0  0  0
 27 26  2  0  0  0  0
 28 27  1  0  0  0  0
 29 28  1  0  0  0  0
 30 29  1  0  0  0  0
M  END
>  <MODEL>
6

>  <REMARK>
 VINA RESULT:    -8.810      3.709      4.825
 INTER + INTRA:         -11.588
 INTER:                 -10.981
 INTRA:                  -0.607
 UNBOUND:                -0.460
  Name = 
  6 active torsions:
  status: ('A' for Active; 'I' for Inactive)
    1  A    between atoms: C_4  and  C_22
    2  A    between atoms: C_8  and  O_9
    3  A    between atoms: C_10  and  C_14
    4  A    between atoms: C_11  and  O_13
    5  A    between atoms: C_14  and  C_15
    6  A    between atoms: C_20  and  O_21
                            x       y       z     vdW  Elec       q    Type
                         _______ _______ _______ _____ _____    ______ ____

>  <TORSDO>
F 6

$$$$
=
 OpenBabel08112514243D

 30 33  0  0  1  0  0  0  0  0999 V2000
   88.2350   49.9350   40.8720 O   0  0  0  0  0  0  0  0  0  0  0  0
   87.6090   49.3130   41.7690 C   0  0  0  0  0  0  0  0  0  0  0  0
   87.9830   47.8780   42.0250 C   0  0  0  0  0  2  0  0  0  0  0  0
   86.8370   47.1280   42.7270 C   0  0  2  0  0  3  0  0  0  0  0  0
   86.3940   47.8920   43.8480 O   0  0  0  0  0  0  0  0  0  0  0  0
   86.1380   49.2640   43.7510 C   0  0  0  0  0  0  0  0  0  0  0  0
   86.6390   50.0060   42.6650 C   0  0  0  0  0  0  0  0  0  0  0  0
   86.2700   51.3730   42.5380 C   0  0  0  0  0  0  0  0  0  0  0  0
   85.5300   52.0010   43.5670 C   0  0  0  0  0  0  0  0  0  0  0  0
   85.0880   51.2430   44.6700 C   0  0  0  0  0  0  0  0  0  0  0  0
   85.3850   49.8820   44.7460 C   0  0  0  0  0  3  0  0  0  0  0  0
   87.1760   45.7170   43.1840 C   0  0  0  0  0  0  0  0  0  0  0  0
   86.2180   45.0120   43.9360 C   0  0  0  0  0  3  0  0  0  0  0  0
   86.4650   43.7030   44.3600 C   0  0  0  0  0  3  0  0  0  0  0  0
   87.6660   43.0740   44.0280 C   0  0  0  0  0  3  0  0  0  0  0  0
   88.6200   43.7520   43.2670 C   0  0  0  0  0  3  0  0  0  0  0  0
   88.3790   45.0610   42.8390 C   0  0  0  0  0  3  0  0  0  0  0  0
   86.5900   52.1280   41.4050 O   0  0  0  0  0  0  0  0  0  0  0  0
   86.9780   52.9760   41.5030 H   0  0  0  0  0  0  0  0  0  0  0  0
   84.3380   51.8400   45.6840 O   0  0  0  0  0  0  0  0  0  0  0  0
   84.0910   52.7410   45.6170 H   0  0  0  0  0  0  0  0  0  0  0  0
   85.2040   53.4790   43.4700 C   0  0  0  0  0  2  0  0  0  0  0  0
   83.9650   53.7130   42.6380 C   0  0  0  0  0  0  0  0  0  0  0  0
   82.8670   52.8420   42.7570 C   0  0  0  0  0  3  0  0  0  0  0  0
   81.7220   53.0350   41.9810 C   0  0  0  0  0  3  0  0  0  0  0  0
   81.6590   54.0980   41.0780 C   0  0  0  0  0  3  0  0  0  0  0  0
   82.7390   54.9730   40.9520 C   0  0  0  0  0  3  0  0  0  0  0  0
   83.8940   54.7880   41.7280 C   0  0  0  0  0  0  0  0  0  0  0  0
   84.9650   55.6710   41.5980 O   0  0  0  0  0  0  0  0  0  0  0  0
   85.4930   55.8790   42.3440 H   0  0  0  0  0  0  0  0  0  0  0  0
  1  2  2  0  0  0  0
  2  3  1  0  0  0  0
  2  7  1  0  0  0  0
  3  4  1  0  0  0  0
  4 12  1  1  0  0  0
  4  5  1  0  0  0  0
  6  5  1  0  0  0  0
  6 11  1  0  0  0  0
  7  6  2  0  0  0  0
  8  7  1  0  0  0  0
  8  9  2  0  0  0  0
  9 10  1  0  0  0  0
 10 11  2  0  0  0  0
 10 20  1  0  0  0  0
 12 13  1  0  0  0  0
 13 14  2  0  0  0  0
 15 14  1  0  0  0  0
 16 15  2  0  0  0  0
 17 12  2  0  0  0  0
 17 16  1  0  0  0  0
 18 19  1  0  0  0  0
 18  8  1  0  0  0  0
 21 20  1  0  0  0  0
 22  9  1  0  0  0  0
 23 24  1  0  0  0  0
 23 22  1  0  0  0  0
 25 24  2  0  0  0  0
 26 25  1  0  0  0  0
 27 26  2  0  0  0  0
 27 28  1  0  0  0  0
 28 23  2  0  0  0  0
 29 28  1  0  0  0  0
 29 30  1  0  0  0  0
M  END
>  <MODEL>
7

>  <REMARK>
 VINA RESULT:    -8.806      3.984      5.477
 INTER + INTRA:         -11.582
 INTER:                 -10.921
 INTRA:                  -0.661
 UNBOUND:                -0.460
  Name = 
  6 active torsions:
  status: ('A' for Active; 'I' for Inactive)
    1  A    between atoms: C_4  and  C_22
    2  A    between atoms: C_8  and  O_9
    3  A    between atoms: C_10  and  C_14
    4  A    between atoms: C_11  and  O_13
    5  A    between atoms: C_14  and  C_15
    6  A    between atoms: C_20  and  O_21
                            x       y       z     vdW  Elec       q    Type
                         _______ _______ _______ _____ _____    ______ ____

>  <TORSDO>
F 6

$$$$
=
 OpenBabel08112514243D

 30 33  0  0  1  0  0  0  0  0999 V2000
   88.6430   50.5210   42.4240 O   0  0  0  0  0  0  0  0  0  0  0  0
   87.8170   50.5250   43.3730 C   0  0  0  0  0  0  0  0  0  0  0  0
   87.5780   51.8230   44.0960 C   0  0  0  0  0  2  0  0  0  0  0  0
   86.9920   51.5730   45.4960 C   0  0  2  0  0  3  0  0  0  0  0  0
   85.8850   50.6780   45.3880 O   0  0  0  0  0  0  0  0  0  0  0  0
   85.9590   49.5010   44.6360 C   0  0  0  0  0  0  0  0  0  0  0  0
   86.9780   49.3310   43.6810 C   0  0  0  0  0  0  0  0  0  0  0  0
   87.0910   48.0820   43.0110 C   0  0  0  0  0  0  0  0  0  0  0  0
   86.1040   47.0870   43.2050 C   0  0  0  0  0  0  0  0  0  0  0  0
   85.0620   47.3090   44.1290 C   0  0  0  0  0  0  0  0  0  0  0  0
   85.0060   48.5070   44.8430 C   0  0  0  0  0  3  0  0  0  0  0  0
   86.5540   52.8240   46.2430 C   0  0  0  0  0  0  0  0  0  0  0  0
   86.0780   52.6810   47.5600 C   0  0  0  0  0  3  0  0  0  0  0  0
   85.6870   53.7990   48.3030 C   0  0  0  0  0  3  0  0  0  0  0  0
   85.7780   55.0760   47.7480 C   0  0  0  0  0  3  0  0  0  0  0  0
   86.2660   55.2380   46.4500 C   0  0  0  0  0  3  0  0  0  0  0  0
   86.6590   54.1240   45.7020 C   0  0  0  0  0  3  0  0  0  0  0  0
   88.1710   47.7790   42.1750 O   0  0  0  0  0  0  0  0  0  0  0  0
   88.9370   47.3730   42.5290 H   0  0  0  0  0  0  0  0  0  0  0  0
   84.0920   46.3310   44.3500 O   0  0  0  0  0  0  0  0  0  0  0  0
   83.9410   46.0070   45.2160 H   0  0  0  0  0  0  0  0  0  0  0  0
   86.1790   45.7860   42.4310 C   0  0  0  0  0  2  0  0  0  0  0  0
   87.0460   44.7750   43.1440 C   0  0  0  0  0  0  0  0  0  0  0  0
   88.4350   44.7600   42.9180 C   0  0  0  0  0  3  0  0  0  0  0  0
   89.2460   43.8180   43.5560 C   0  0  0  0  0  3  0  0  0  0  0  0
   88.6830   42.8820   44.4250 C   0  0  0  0  0  3  0  0  0  0  0  0
   87.3070   42.8870   44.6620 C   0  0  0  0  0  3  0  0  0  0  0  0
   86.4830   43.8290   44.0260 C   0  0  0  0  0  0  0  0  0  0  0  0
   85.1110   43.8290   44.2740 O   0  0  0  0  0  0  0  0  0  0  0  0
   84.5320   44.2930   43.7020 H   0  0  0  0  0  0  0  0  0  0  0  0
  1  2  2  0  0  0  0
  2  7  1  0  0  0  0
  2  3  1  0  0  0  0
  3  4  1  0  0  0  0
  4 12  1  6  0  0  0
  5  4  1  0  0  0  0
  6 11  1  0  0  0  0
  6  5  1  0  0  0  0
  7  6  2  0  0  0  0
  8  9  2  0  0  0  0
  8  7  1  0  0  0  0
  9 10  1  0  0  0  0
 10 20  1  0  0  0  0
 10 11  2  0  0  0  0
 12 13  1  0  0  0  0
 13 14  2  0  0  0  0
 15 14  1  0  0  0  0
 16 15  2  0  0  0  0
 17 12  2  0  0  0  0
 17 16  1  0  0  0  0
 18 19  1  0  0  0  0
 18  8  1  0  0  0  0
 20 21  1  0  0  0  0
 22 23  1  0  0  0  0
 22  9  1  0  0  0  0
 23 28  1  0  0  0  0
 24 23  2  0  0  0  0
 24 25  1  0  0  0  0
 25 26  2  0  0  0  0
 26 27  1  0  0  0  0
 28 29  1  0  0  0  0
 28 27  2  0  0  0  0
 30 29  1  0  0  0  0
M  END
>  <MODEL>
8

>  <REMARK>
 VINA RESULT:    -8.773      4.472      9.288
 INTER + INTRA:         -11.541
 INTER:                 -10.761
 INTRA:                  -0.780
 UNBOUND:                -0.460
  Name = 
  6 active torsions:
  status: ('A' for Active; 'I' for Inactive)
    1  A    between atoms: C_4  and  C_22
    2  A    between atoms: C_8  and  O_9
    3  A    between atoms: C_10  and  C_14
    4  A    between atoms: C_11  and  O_13
    5  A    between atoms: C_14  and  C_15
    6  A    between atoms: C_20  and  O_21
                            x       y       z     vdW  Elec       q    Type
                         _______ _______ _______ _____ _____    ______ ____

>  <TORSDO>
F 6

$$$$
=
 OpenBabel08112514243D

 30 33  0  0  1  0  0  0  0  0999 V2000
   89.0700   49.8280   40.5520 O   0  0  0  0  0  0  0  0  0  0  0  0
   88.3720   49.4150   41.5140 C   0  0  0  0  0  0  0  0  0  0  0  0
   88.3320   47.9330   41.7730 C   0  0  0  0  0  2  0  0  0  0  0  0
   87.0830   47.5510   42.5880 C   0  0  2  0  0  3  0  0  0  0  0  0
   86.9840   48.4100   43.7230 O   0  0  0  0  0  0  0  0  0  0  0  0
   87.1310   49.7970   43.6150 C   0  0  0  0  0  0  0  0  0  0  0  0
   87.7290   50.3610   42.4720 C   0  0  0  0  0  0  0  0  0  0  0  0
   87.7660   51.7760   42.3420 C   0  0  0  0  0  0  0  0  0  0  0  0
   87.3350   52.5930   43.4150 C   0  0  0  0  0  0  0  0  0  0  0  0
   86.7910   51.9960   44.5710 C   0  0  0  0  0  0  0  0  0  0  0  0
   86.6840   50.6070   44.6550 C   0  0  0  0  0  3  0  0  0  0  0  0
   87.0350   46.1030   43.0490 C   0  0  0  0  0  0  0  0  0  0  0  0
   88.1070   45.2570   42.7060 C   0  0  0  0  0  3  0  0  0  0  0  0
   88.1270   43.9240   43.1260 C   0  0  0  0  0  3  0  0  0  0  0  0
   87.0850   43.4190   43.9050 C   0  0  0  0  0  3  0  0  0  0  0  0
   86.0240   44.2480   44.2700 C   0  0  0  0  0  3  0  0  0  0  0  0
   85.9970   45.5820   43.8540 C   0  0  0  0  0  3  0  0  0  0  0  0
   88.1910   52.4060   41.1690 O   0  0  0  0  0  0  0  0  0  0  0  0
   89.0500   52.7770   41.1220 H   0  0  0  0  0  0  0  0  0  0  0  0
   86.3410   52.7860   45.6300 O   0  0  0  0  0  0  0  0  0  0  0  0
   86.0220   53.6510   45.4670 H   0  0  0  0  0  0  0  0  0  0  0  0
   87.4490   54.1010   43.3100 C   0  0  0  0  0  2  0  0  0  0  0  0
   86.0870   54.7440   43.1850 C   0  0  0  0  0  0  0  0  0  0  0  0
   85.5640   55.4900   44.2570 C   0  0  0  0  0  3  0  0  0  0  0  0
   84.2990   56.0740   44.1620 C   0  0  0  0  0  3  0  0  0  0  0  0
   83.5410   55.9210   43.0000 C   0  0  0  0  0  3  0  0  0  0  0  0
   84.0490   55.1870   41.9260 C   0  0  0  0  0  3  0  0  0  0  0  0
   85.3190   54.5970   42.0110 C   0  0  0  0  0  0  0  0  0  0  0  0
   85.8190   53.8700   40.9310 O   0  0  0  0  0  0  0  0  0  0  0  0
   86.7340   53.9010   40.7290 H   0  0  0  0  0  0  0  0  0  0  0  0
  1  2  2  0  0  0  0
  2  3  1  0  0  0  0
  2  7  1  0  0  0  0
  3  4  1  0  0  0  0
  4 12  1  1  0  0  0
  4  5  1  0  0  0  0
  6  5  1  0  0  0  0
  6 11  1  0  0  0  0
  7  6  2  0  0  0  0
  8  7  1  0  0  0  0
  8  9  2  0  0  0  0
  9 10  1  0  0  0  0
 10 11  2  0  0  0  0
 10 20  1  0  0  0  0
 12 17  1  0  0  0  0
 13 12  2  0  0  0  0
 13 14  1  0  0  0  0
 14 15  2  0  0  0  0
 15 16  1  0  0  0  0
 17 16  2  0  0  0  0
 18  8  1  0  0  0  0
 19 18  1  0  0  0  0
 21 20  1  0  0  0  0
 22  9  1  0  0  0  0
 23 22  1  0  0  0  0
 23 24  1  0  0  0  0
 25 24  2  0  0  0  0
 26 25  1  0  0  0  0
 27 28  1  0  0  0  0
 27 26  2  0  0  0  0
 28 23  2  0  0  0  0
 29 28  1  0  0  0  0
 30 29  1  0  0  0  0
M  END
>  <MODEL>
9

>  <REMARK>
 VINA RESULT:    -8.380      3.958      5.016
 INTER + INTRA:         -11.045
 INTER:                 -10.585
 INTRA:                  -0.460
 UNBOUND:                -0.460
  Name = 
  6 active torsions:
  status: ('A' for Active; 'I' for Inactive)
    1  A    between atoms: C_4  and  C_22
    2  A    between atoms: C_8  and  O_9
    3  A    between atoms: C_10  and  C_14
    4  A    between atoms: C_11  and  O_13
    5  A    between atoms: C_14  and  C_15
    6  A    between atoms: C_20  and  O_21
                            x       y       z     vdW  Elec       q    Type
                         _______ _______ _______ _____ _____    ______ ____

>  <TORSDO>
F 6

$$$$
