MODEL 1
REMARK VINA RESULT:    -7.802      0.000      0.000
REMARK INTER + INTRA:          -7.802
REMARK INTER:                  -7.802
REMARK INTRA:                   0.000
REMARK UNBOUND:                 0.000
REMARK  Name = 
REMARK  3 active torsions:
REMARK  status: ('A' for Active; 'I' for Inactive)
REMARK    1  A    between atoms: C_1  and  C_2
REMARK    2  A    between atoms: C_12  and  C_14
REMARK    3  A    between atoms: C_12  and  C_15
REMARK                            x       y       z     vdW  Elec       q    Type
REMARK                         _______ _______ _______ _____ _____    ______ ____
ROOT
ATOM      1  C   UNL     1      85.216  57.735  45.423  0.00  0.00    -0.044 C 
ATOM      2  C   UNL     1      85.053  56.596  46.405  0.00  0.00    -0.077 C 
ATOM      3  C   UNL     1      83.780  56.336  46.824  0.00  0.00    -0.085 C 
ATOM      4  C   UNL     1      83.203  55.186  47.638  0.00  0.00    -0.031 C 
ATOM      5  C   UNL     1      83.951  54.735  48.904  0.00  0.00    -0.028 C 
ATOM      6  C   UNL     1      84.512  53.318  48.794  0.00  0.00    -0.073 C 
ATOM      7  C   UNL     1      84.003  52.372  49.608  0.00  0.00    -0.099 C 
ATOM      8  C   UNL     1      85.798  53.054  48.007  0.00  0.00    -0.016 C 
ATOM      9  C   UNL     1      85.767  53.474  46.524  0.00  0.00    -0.029 C 
ATOM     10  C   UNL     1      86.706  54.640  46.174  0.00  0.00    -0.045 C 
ATOM     11  C   UNL     1      86.328  55.931  46.906  0.00  0.00    -0.032 C 
ATOM     12  C   UNL     1      86.192  52.046  46.104  0.00  0.00    -0.031 C 
ATOM     13  C   UNL     1      86.085  51.603  47.571  0.00  0.00    -0.041 C 
ATOM     14  C   UNL     1      85.157  51.358  45.194  0.00  0.00    -0.060 C 
ATOM     15  C   UNL     1      87.620  51.883  45.545  0.00  0.00    -0.060 C 
ENDROOT
TORSDOF 0
ENDMDL
MODEL 2
REMARK VINA RESULT:    -7.325      2.376      4.541
REMARK INTER + INTRA:          -7.325
REMARK INTER:                  -7.325
REMARK INTRA:                   0.000
REMARK UNBOUND:                 0.000
REMARK  Name = 
REMARK  3 active torsions:
REMARK  status: ('A' for Active; 'I' for Inactive)
REMARK    1  A    between atoms: C_1  and  C_2
REMARK    2  A    between atoms: C_12  and  C_14
REMARK    3  A    between atoms: C_12  and  C_15
REMARK                            x       y       z     vdW  Elec       q    Type
REMARK                         _______ _______ _______ _____ _____    ______ ____
ROOT
ATOM      1  C   UNL     1      85.145  53.232  41.291  0.00  0.00    -0.044 C 
ATOM      2  C   UNL     1      85.284  54.363  42.286  0.00  0.00    -0.077 C 
ATOM      3  C   UNL     1      84.388  55.385  42.169  0.00  0.00    -0.085 C 
ATOM      4  C   UNL     1      84.094  56.576  43.071  0.00  0.00    -0.031 C 
ATOM      5  C   UNL     1      85.279  57.379  43.635  0.00  0.00    -0.028 C 
ATOM      6  C   UNL     1      85.401  57.279  45.155  0.00  0.00    -0.073 C 
ATOM      7  C   UNL     1      85.206  58.398  45.880  0.00  0.00    -0.099 C 
ATOM      8  C   UNL     1      86.011  56.032  45.801  0.00  0.00    -0.016 C 
ATOM      9  C   UNL     1      85.305  54.701  45.473  0.00  0.00    -0.029 C 
ATOM     10  C   UNL     1      86.143  53.730  44.626  0.00  0.00    -0.045 C 
ATOM     11  C   UNL     1      86.469  54.297  43.241  0.00  0.00    -0.032 C 
ATOM     12  C   UNL     1      85.152  54.404  46.984  0.00  0.00    -0.031 C 
ATOM     13  C   UNL     1      85.730  55.792  47.298  0.00  0.00    -0.041 C 
ATOM     14  C   UNL     1      83.681  54.256  47.418  0.00  0.00    -0.060 C 
ATOM     15  C   UNL     1      86.019  53.265  47.559  0.00  0.00    -0.060 C 
ENDROOT
TORSDOF 0
ENDMDL
MODEL 3
REMARK VINA RESULT:    -7.282      1.097      1.365
REMARK INTER + INTRA:          -7.282
REMARK INTER:                  -7.282
REMARK INTRA:                   0.000
REMARK UNBOUND:                 0.000
REMARK  Name = 
REMARK  3 active torsions:
REMARK  status: ('A' for Active; 'I' for Inactive)
REMARK    1  A    between atoms: C_1  and  C_2
REMARK    2  A    between atoms: C_12  and  C_14
REMARK    3  A    between atoms: C_12  and  C_15
REMARK                            x       y       z     vdW  Elec       q    Type
REMARK                         _______ _______ _______ _____ _____    ______ ____
ROOT
ATOM      1  C   UNL     1      84.849  57.817  45.503  0.00  0.00    -0.044 C 
ATOM      2  C   UNL     1      85.155  56.532  46.241  0.00  0.00    -0.077 C 
ATOM      3  C   UNL     1      84.269  56.167  47.213  0.00  0.00    -0.085 C 
ATOM      4  C   UNL     1      84.134  54.885  48.024  0.00  0.00    -0.031 C 
ATOM      5  C   UNL     1      85.403  54.264  48.632  0.00  0.00    -0.028 C 
ATOM      6  C   UNL     1      85.749  52.901  48.033  0.00  0.00    -0.073 C 
ATOM      7  C   UNL     1      85.684  51.823  48.839  0.00  0.00    -0.099 C 
ATOM      8  C   UNL     1      86.427  52.808  46.664  0.00  0.00    -0.016 C 
ATOM      9  C   UNL     1      85.657  53.455  45.496  0.00  0.00    -0.029 C 
ATOM     10  C   UNL     1      86.342  54.692  44.892  0.00  0.00    -0.045 C 
ATOM     11  C   UNL     1      86.467  55.838  45.901  0.00  0.00    -0.032 C 
ATOM     12  C   UNL     1      85.726  52.126  44.706  0.00  0.00    -0.031 C 
ATOM     13  C   UNL     1      86.368  51.454  45.928  0.00  0.00    -0.041 C 
ATOM     14  C   UNL     1      84.333  51.557  44.372  0.00  0.00    -0.060 C 
ATOM     15  C   UNL     1      86.649  52.101  43.470  0.00  0.00    -0.060 C 
ENDROOT
TORSDOF 0
ENDMDL
MODEL 4
REMARK VINA RESULT:    -6.974      1.441      4.450
REMARK INTER + INTRA:          -6.974
REMARK INTER:                  -6.974
REMARK INTRA:                   0.000
REMARK UNBOUND:                 0.000
REMARK  Name = 
REMARK  3 active torsions:
REMARK  status: ('A' for Active; 'I' for Inactive)
REMARK    1  A    between atoms: C_1  and  C_2
REMARK    2  A    between atoms: C_12  and  C_14
REMARK    3  A    between atoms: C_12  and  C_15
REMARK                            x       y       z     vdW  Elec       q    Type
REMARK                         _______ _______ _______ _____ _____    ______ ____
ROOT
ATOM      1  C   UNL     1      86.590  52.118  42.293  0.00  0.00    -0.044 C 
ATOM      2  C   UNL     1      86.378  51.980  43.785  0.00  0.00    -0.077 C 
ATOM      3  C   UNL     1      87.443  51.531  44.509  0.00  0.00    -0.085 C 
ATOM      4  C   UNL     1      87.675  51.440  46.011  0.00  0.00    -0.031 C 
ATOM      5  C   UNL     1      86.549  50.876  46.894  0.00  0.00    -0.028 C 
ATOM      6  C   UNL     1      85.967  51.911  47.855  0.00  0.00    -0.073 C 
ATOM      7  C   UNL     1      86.144  51.717  49.177  0.00  0.00    -0.099 C 
ATOM      8  C   UNL     1      84.970  52.958  47.352  0.00  0.00    -0.016 C 
ATOM      9  C   UNL     1      85.478  53.866  46.215  0.00  0.00    -0.029 C 
ATOM     10  C   UNL     1      84.762  53.661  44.871  0.00  0.00    -0.045 C 
ATOM     11  C   UNL     1      84.974  52.252  44.308  0.00  0.00    -0.032 C 
ATOM     12  C   UNL     1      85.119  55.121  47.047  0.00  0.00    -0.031 C 
ATOM     13  C   UNL     1      84.745  54.209  48.226  0.00  0.00    -0.041 C 
ATOM     14  C   UNL     1      86.341  56.012  47.344  0.00  0.00    -0.060 C 
ATOM     15  C   UNL     1      83.923  55.961  46.554  0.00  0.00    -0.060 C 
ENDROOT
TORSDOF 0
ENDMDL
MODEL 5
REMARK VINA RESULT:    -6.972      2.046      4.573
REMARK INTER + INTRA:          -6.972
REMARK INTER:                  -6.972
REMARK INTRA:                   0.000
REMARK UNBOUND:                 0.000
REMARK  Name = 
REMARK  3 active torsions:
REMARK  status: ('A' for Active; 'I' for Inactive)
REMARK    1  A    between atoms: C_1  and  C_2
REMARK    2  A    between atoms: C_12  and  C_14
REMARK    3  A    between atoms: C_12  and  C_15
REMARK                            x       y       z     vdW  Elec       q    Type
REMARK                         _______ _______ _______ _____ _____    ______ ____
ROOT
ATOM      1  C   UNL     1      84.476  53.627  48.976  0.00  0.00    -0.044 C 
ATOM      2  C   UNL     1      85.340  52.912  47.961  0.00  0.00    -0.077 C 
ATOM      3  C   UNL     1      85.972  51.782  48.392  0.00  0.00    -0.085 C 
ATOM      4  C   UNL     1      86.754  50.715  47.639  0.00  0.00    -0.031 C 
ATOM      5  C   UNL     1      87.788  51.164  46.593  0.00  0.00    -0.028 C 
ATOM      6  C   UNL     1      87.415  50.757  45.169  0.00  0.00    -0.073 C 
ATOM      7  C   UNL     1      88.206  49.867  44.538  0.00  0.00    -0.099 C 
ATOM      8  C   UNL     1      86.364  51.551  44.388  0.00  0.00    -0.016 C 
ATOM      9  C   UNL     1      84.972  51.634  45.045  0.00  0.00    -0.029 C 
ATOM     10  C   UNL     1      84.573  53.044  45.510  0.00  0.00    -0.045 C 
ATOM     11  C   UNL     1      85.502  53.581  46.603  0.00  0.00    -0.032 C 
ATOM     12  C   UNL     1      84.322  51.082  43.753  0.00  0.00    -0.031 C 
ATOM     13  C   UNL     1      85.724  50.874  43.159  0.00  0.00    -0.041 C 
ATOM     14  C   UNL     1      83.566  49.760  43.982  0.00  0.00    -0.060 C 
ATOM     15  C   UNL     1      83.477  52.071  42.925  0.00  0.00    -0.060 C 
ENDROOT
TORSDOF 0
ENDMDL
MODEL 6
REMARK VINA RESULT:    -6.902      2.121      4.361
REMARK INTER + INTRA:          -6.902
REMARK INTER:                  -6.902
REMARK INTRA:                   0.000
REMARK UNBOUND:                 0.000
REMARK  Name = 
REMARK  3 active torsions:
REMARK  status: ('A' for Active; 'I' for Inactive)
REMARK    1  A    between atoms: C_1  and  C_2
REMARK    2  A    between atoms: C_12  and  C_14
REMARK    3  A    between atoms: C_12  and  C_15
REMARK                            x       y       z     vdW  Elec       q    Type
REMARK                         _______ _______ _______ _____ _____    ______ ____
ROOT
ATOM      1  C   UNL     1      85.404  52.384  48.801  0.00  0.00    -0.044 C 
ATOM      2  C   UNL     1      85.213  53.519  47.819  0.00  0.00    -0.077 C 
ATOM      3  C   UNL     1      85.993  54.622  48.009  0.00  0.00    -0.085 C 
ATOM      4  C   UNL     1      86.220  55.856  47.147  0.00  0.00    -0.031 C 
ATOM      5  C   UNL     1      84.998  56.551  46.525  0.00  0.00    -0.028 C 
ATOM      6  C   UNL     1      84.979  56.474  44.999  0.00  0.00    -0.073 C 
ATOM      7  C   UNL     1      85.104  57.623  44.306  0.00  0.00    -0.099 C 
ATOM      8  C   UNL     1      84.536  55.188  44.295  0.00  0.00    -0.016 C 
ATOM      9  C   UNL     1      85.350  53.927  44.643  0.00  0.00    -0.029 C 
ATOM     10  C   UNL     1      84.564  52.858  45.420  0.00  0.00    -0.045 C 
ATOM     11  C   UNL     1      84.101  53.358  46.792  0.00  0.00    -0.032 C 
ATOM     12  C   UNL     1      85.624  53.681  43.140  0.00  0.00    -0.031 C 
ATOM     13  C   UNL     1      84.929  55.012  42.815  0.00  0.00    -0.041 C 
ATOM     14  C   UNL     1      87.126  53.689  42.796  0.00  0.00    -0.060 C 
ATOM     15  C   UNL     1      84.911  52.475  42.493  0.00  0.00    -0.060 C 
ENDROOT
TORSDOF 0
ENDMDL
MODEL 7
REMARK VINA RESULT:    -6.672      2.002      4.500
REMARK INTER + INTRA:          -6.672
REMARK INTER:                  -6.672
REMARK INTRA:                   0.000
REMARK UNBOUND:                 0.000
REMARK  Name = 
REMARK  3 active torsions:
REMARK  status: ('A' for Active; 'I' for Inactive)
REMARK    1  A    between atoms: C_1  and  C_2
REMARK    2  A    between atoms: C_12  and  C_14
REMARK    3  A    between atoms: C_12  and  C_15
REMARK                            x       y       z     vdW  Elec       q    Type
REMARK                         _______ _______ _______ _____ _____    ______ ____
ROOT
ATOM      1  C   UNL     1      84.800  54.064  48.848  0.00  0.00    -0.044 C 
ATOM      2  C   UNL     1      85.602  53.438  47.729  0.00  0.00    -0.077 C 
ATOM      3  C   UNL     1      85.907  52.115  47.870  0.00  0.00    -0.085 C 
ATOM      4  C   UNL     1      86.519  51.113  46.900  0.00  0.00    -0.031 C 
ATOM      5  C   UNL     1      87.749  51.542  46.081  0.00  0.00    -0.028 C 
ATOM      6  C   UNL     1      87.472  51.613  44.580  0.00  0.00    -0.073 C 
ATOM      7  C   UNL     1      88.116  50.743  43.777  0.00  0.00    -0.099 C 
ATOM      8  C   UNL     1      86.730  52.813  43.987  0.00  0.00    -0.016 C 
ATOM      9  C   UNL     1      85.321  53.070  44.557  0.00  0.00    -0.029 C 
ATOM     10  C   UNL     1      85.191  54.370  45.367  0.00  0.00    -0.045 C 
ATOM     11  C   UNL     1      86.075  54.366  46.619  0.00  0.00    -0.032 C 
ATOM     12  C   UNL     1      84.729  53.041  43.127  0.00  0.00    -0.031 C 
ATOM     13  C   UNL     1      86.111  52.648  42.583  0.00  0.00    -0.041 C 
ATOM     14  C   UNL     1      83.675  51.933  42.939  0.00  0.00    -0.060 C 
ATOM     15  C   UNL     1      84.234  54.384  42.554  0.00  0.00    -0.060 C 
ENDROOT
TORSDOF 0
ENDMDL
MODEL 8
REMARK VINA RESULT:    -6.610      3.579      6.876
REMARK INTER + INTRA:          -6.610
REMARK INTER:                  -6.610
REMARK INTRA:                   0.000
REMARK UNBOUND:                 0.000
REMARK  Name = 
REMARK  3 active torsions:
REMARK  status: ('A' for Active; 'I' for Inactive)
REMARK    1  A    between atoms: C_1  and  C_2
REMARK    2  A    between atoms: C_12  and  C_14
REMARK    3  A    between atoms: C_12  and  C_15
REMARK                            x       y       z     vdW  Elec       q    Type
REMARK                         _______ _______ _______ _____ _____    ______ ____
ROOT
ATOM      1  C   UNL     1      90.132  52.477  40.974  0.00  0.00    -0.044 C 
ATOM      2  C   UNL     1      89.194  51.402  41.477  0.00  0.00    -0.077 C 
ATOM      3  C   UNL     1      89.662  50.121  41.432  0.00  0.00    -0.085 C 
ATOM      4  C   UNL     1      89.105  48.824  42.003  0.00  0.00    -0.031 C 
ATOM      5  C   UNL     1      87.609  48.523  41.817  0.00  0.00    -0.028 C 
ATOM      6  C   UNL     1      86.835  48.498  43.134  0.00  0.00    -0.073 C 
ATOM      7  C   UNL     1      86.302  47.326  43.532  0.00  0.00    -0.099 C 
ATOM      8  C   UNL     1      86.429  49.807  43.817  0.00  0.00    -0.016 C 
ATOM      9  C   UNL     1      87.590  50.757  44.176  0.00  0.00    -0.029 C 
ATOM     10  C   UNL     1      87.601  52.073  43.381  0.00  0.00    -0.045 C 
ATOM     11  C   UNL     1      87.794  51.844  41.879  0.00  0.00    -0.032 C 
ATOM     12  C   UNL     1      87.110  50.798  45.647  0.00  0.00    -0.031 C 
ATOM     13  C   UNL     1      86.043  49.745  45.309  0.00  0.00    -0.041 C 
ATOM     14  C   UNL     1      88.172  50.279  46.636  0.00  0.00    -0.060 C 
ATOM     15  C   UNL     1      86.491  52.122  46.137  0.00  0.00    -0.060 C 
ENDROOT
TORSDOF 0
ENDMDL
MODEL 9
REMARK VINA RESULT:    -6.519      3.595      6.323
REMARK INTER + INTRA:          -6.519
REMARK INTER:                  -6.519
REMARK INTRA:                   0.000
REMARK UNBOUND:                 0.000
REMARK  Name = 
REMARK  3 active torsions:
REMARK  status: ('A' for Active; 'I' for Inactive)
REMARK    1  A    between atoms: C_1  and  C_2
REMARK    2  A    between atoms: C_12  and  C_14
REMARK    3  A    between atoms: C_12  and  C_15
REMARK                            x       y       z     vdW  Elec       q    Type
REMARK                         _______ _______ _______ _____ _____    ______ ____
ROOT
ATOM      1  C   UNL     1      88.189  50.512  47.341  0.00  0.00    -0.044 C 
ATOM      2  C   UNL     1      87.547  50.879  46.021  0.00  0.00    -0.077 C 
ATOM      3  C   UNL     1      87.057  52.148  45.919  0.00  0.00    -0.085 C 
ATOM      4  C   UNL     1      86.524  52.929  44.725  0.00  0.00    -0.031 C 
ATOM      5  C   UNL     1      85.539  52.231  43.772  0.00  0.00    -0.028 C 
ATOM      6  C   UNL     1      86.107  52.029  42.368  0.00  0.00    -0.073 C 
ATOM      7  C   UNL     1      85.526  52.694  41.350  0.00  0.00    -0.099 C 
ATOM      8  C   UNL     1      87.094  50.893  42.089  0.00  0.00    -0.016 C 
ATOM      9  C   UNL     1      88.387  50.916  42.928  0.00  0.00    -0.029 C 
ATOM     10  C   UNL     1      88.519  49.752  43.923  0.00  0.00    -0.045 C 
ATOM     11  C   UNL     1      87.417  49.768  44.988  0.00  0.00    -0.032 C 
ATOM     12  C   UNL     1      89.235  50.868  41.635  0.00  0.00    -0.031 C 
ATOM     13  C   UNL     1      87.946  50.985  40.807  0.00  0.00    -0.041 C 
ATOM     14  C   UNL     1      90.159  52.091  41.480  0.00  0.00    -0.060 C 
ATOM     15  C   UNL     1      89.996  49.556  41.352  0.00  0.00    -0.060 C 
ENDROOT
TORSDOF 0
ENDMDL
