MODEL 1
REMARK VINA RESULT:    -7.569      0.000      0.000
REMARK INTER + INTRA:          -7.569
REMARK INTER:                  -7.569
REMARK INTRA:                   0.000
REMARK UNBOUND:                 0.000
REMARK  Name = 
REMARK  3 active torsions:
REMARK  status: ('A' for Active; 'I' for Inactive)
REMARK    1  A    between atoms: C_1  and  C_2
REMARK    2  A    between atoms: C_12  and  C_14
REMARK    3  A    between atoms: C_12  and  C_15
REMARK                            x       y       z     vdW  Elec       q    Type
REMARK                         _______ _______ _______ _____ _____    ______ ____
ROOT
ATOM      1  C   UNL     1      85.043  58.237  45.666  0.00  0.00    -0.044 C 
ATOM      2  C   UNL     1      84.886  57.053  46.594  0.00  0.00    -0.077 C 
ATOM      3  C   UNL     1      83.628  56.818  47.067  0.00  0.00    -0.085 C 
ATOM      4  C   UNL     1      83.048  55.648  47.850  0.00  0.00    -0.031 C 
ATOM      5  C   UNL     1      83.843  55.101  49.048  0.00  0.00    -0.028 C 
ATOM      6  C   UNL     1      84.340  53.673  48.834  0.00  0.00    -0.073 C 
ATOM      7  C   UNL     1      83.837  52.703  49.624  0.00  0.00    -0.099 C 
ATOM      8  C   UNL     1      85.572  53.404  47.966  0.00  0.00    -0.016 C 
ATOM      9  C   UNL     1      85.480  53.905  46.510  0.00  0.00    -0.029 C 
ATOM     10  C   UNL     1      86.445  55.052  46.172  0.00  0.00    -0.045 C 
ATOM     11  C   UNL     1      86.158  56.315  46.990  0.00  0.00    -0.032 C 
ATOM     12  C   UNL     1      85.825  52.487  45.994  0.00  0.00    -0.031 C 
ATOM     13  C   UNL     1      85.777  51.969  47.440  0.00  0.00    -0.041 C 
ATOM     14  C   UNL     1      84.717  51.888  45.107  0.00  0.00    -0.060 C 
ATOM     15  C   UNL     1      87.214  52.302  45.351  0.00  0.00    -0.060 C 
ENDROOT
TORSDOF 0
ENDMDL
MODEL 2
REMARK VINA RESULT:    -7.319      1.189      2.315
REMARK INTER + INTRA:          -7.319
REMARK INTER:                  -7.319
REMARK INTRA:                   0.000
REMARK UNBOUND:                 0.000
REMARK  Name = 
REMARK  3 active torsions:
REMARK  status: ('A' for Active; 'I' for Inactive)
REMARK    1  A    between atoms: C_1  and  C_2
REMARK    2  A    between atoms: C_12  and  C_14
REMARK    3  A    between atoms: C_12  and  C_15
REMARK                            x       y       z     vdW  Elec       q    Type
REMARK                         _______ _______ _______ _____ _____    ______ ____
ROOT
ATOM      1  C   UNL     1      83.568  56.797  47.305  0.00  0.00    -0.044 C 
ATOM      2  C   UNL     1      84.395  55.547  47.508  0.00  0.00    -0.077 C 
ATOM      3  C   UNL     1      83.822  54.557  48.252  0.00  0.00    -0.085 C 
ATOM      4  C   UNL     1      84.248  53.119  48.514  0.00  0.00    -0.031 C 
ATOM      5  C   UNL     1      85.719  52.842  48.868  0.00  0.00    -0.028 C 
ATOM      6  C   UNL     1      86.444  52.018  47.805  0.00  0.00    -0.073 C 
ATOM      7  C   UNL     1      86.863  50.781  48.141  0.00  0.00    -0.099 C 
ATOM      8  C   UNL     1      86.937  52.680  46.516  0.00  0.00    -0.016 C 
ATOM      9  C   UNL     1      85.850  53.366  45.664  0.00  0.00    -0.029 C 
ATOM     10  C   UNL     1      85.976  54.896  45.587  0.00  0.00    -0.045 C 
ATOM     11  C   UNL     1      85.814  55.564  46.957  0.00  0.00    -0.032 C 
ATOM     12  C   UNL     1      86.283  52.537  44.431  0.00  0.00    -0.031 C 
ATOM     13  C   UNL     1      87.267  51.762  45.321  0.00  0.00    -0.041 C 
ATOM     14  C   UNL     1      85.150  51.650  43.880  0.00  0.00    -0.060 C 
ATOM     15  C   UNL     1      86.995  53.301  43.297  0.00  0.00    -0.060 C 
ENDROOT
TORSDOF 0
ENDMDL
MODEL 3
REMARK VINA RESULT:    -7.135      2.069      4.761
REMARK INTER + INTRA:          -7.135
REMARK INTER:                  -7.135
REMARK INTRA:                   0.000
REMARK UNBOUND:                 0.000
REMARK  Name = 
REMARK  3 active torsions:
REMARK  status: ('A' for Active; 'I' for Inactive)
REMARK    1  A    between atoms: C_1  and  C_2
REMARK    2  A    between atoms: C_12  and  C_14
REMARK    3  A    between atoms: C_12  and  C_15
REMARK                            x       y       z     vdW  Elec       q    Type
REMARK                         _______ _______ _______ _____ _____    ______ ____
ROOT
ATOM      1  C   UNL     1      84.175  52.193  42.540  0.00  0.00    -0.044 C 
ATOM      2  C   UNL     1      84.544  53.552  43.095  0.00  0.00    -0.077 C 
ATOM      3  C   UNL     1      83.760  54.598  42.703  0.00  0.00    -0.085 C 
ATOM      4  C   UNL     1      83.698  56.043  43.178  0.00  0.00    -0.031 C 
ATOM      5  C   UNL     1      85.017  56.810  43.368  0.00  0.00    -0.028 C 
ATOM      6  C   UNL     1      85.286  57.185  44.825  0.00  0.00    -0.073 C 
ATOM      7  C   UNL     1      85.295  58.492  45.151  0.00  0.00    -0.099 C 
ATOM      8  C   UNL     1      85.818  56.137  45.807  0.00  0.00    -0.016 C 
ATOM      9  C   UNL     1      84.938  54.884  45.983  0.00  0.00    -0.029 C 
ATOM     10  C   UNL     1      85.568  53.586  45.454  0.00  0.00    -0.045 C 
ATOM     11  C   UNL     1      85.807  53.630  43.941  0.00  0.00    -0.032 C 
ATOM     12  C   UNL     1      84.912  55.109  47.514  0.00  0.00    -0.031 C 
ATOM     13  C   UNL     1      85.671  56.430  47.314  0.00  0.00    -0.041 C 
ATOM     14  C   UNL     1      83.487  55.315  48.064  0.00  0.00    -0.060 C 
ATOM     15  C   UNL     1      85.702  54.104  48.376  0.00  0.00    -0.060 C 
ENDROOT
TORSDOF 0
ENDMDL
MODEL 4
REMARK VINA RESULT:    -6.862      1.643      4.449
REMARK INTER + INTRA:          -6.862
REMARK INTER:                  -6.862
REMARK INTRA:                   0.000
REMARK UNBOUND:                 0.000
REMARK  Name = 
REMARK  3 active torsions:
REMARK  status: ('A' for Active; 'I' for Inactive)
REMARK    1  A    between atoms: C_1  and  C_2
REMARK    2  A    between atoms: C_12  and  C_14
REMARK    3  A    between atoms: C_12  and  C_15
REMARK                            x       y       z     vdW  Elec       q    Type
REMARK                         _______ _______ _______ _____ _____    ______ ____
ROOT
ATOM      1  C   UNL     1      83.842  54.551  49.466  0.00  0.00    -0.044 C 
ATOM      2  C   UNL     1      84.616  54.219  48.210  0.00  0.00    -0.077 C 
ATOM      3  C   UNL     1      84.243  53.085  47.550  0.00  0.00    -0.085 C 
ATOM      4  C   UNL     1      84.644  52.531  46.189  0.00  0.00    -0.031 C 
ATOM      5  C   UNL     1      86.134  52.533  45.807  0.00  0.00    -0.028 C 
ATOM      6  C   UNL     1      86.449  53.456  44.631  0.00  0.00    -0.073 C 
ATOM      7  C   UNL     1      86.878  52.895  43.484  0.00  0.00    -0.099 C 
ATOM      8  C   UNL     1      86.560  54.968  44.844  0.00  0.00    -0.016 C 
ATOM      9  C   UNL     1      85.306  55.651  45.426  0.00  0.00    -0.029 C 
ATOM     10  C   UNL     1      85.492  56.215  46.844  0.00  0.00    -0.045 C 
ATOM     11  C   UNL     1      85.796  55.120  47.871  0.00  0.00    -0.032 C 
ATOM     12  C   UNL     1      85.291  56.647  44.242  0.00  0.00    -0.031 C 
ATOM     13  C   UNL     1      86.454  55.875  43.601  0.00  0.00    -0.041 C 
ATOM     14  C   UNL     1      83.994  56.572  43.414  0.00  0.00    -0.060 C 
ATOM     15  C   UNL     1      85.664  58.109  44.561  0.00  0.00    -0.060 C 
ENDROOT
TORSDOF 0
ENDMDL
MODEL 5
REMARK VINA RESULT:    -6.779      2.246      4.654
REMARK INTER + INTRA:          -6.779
REMARK INTER:                  -6.779
REMARK INTRA:                   0.000
REMARK UNBOUND:                 0.000
REMARK  Name = 
REMARK  3 active torsions:
REMARK  status: ('A' for Active; 'I' for Inactive)
REMARK    1  A    between atoms: C_1  and  C_2
REMARK    2  A    between atoms: C_12  and  C_14
REMARK    3  A    between atoms: C_12  and  C_15
REMARK                            x       y       z     vdW  Elec       q    Type
REMARK                         _______ _______ _______ _____ _____    ______ ____
ROOT
ATOM      1  C   UNL     1      84.692  53.911  49.103  0.00  0.00    -0.044 C 
ATOM      2  C   UNL     1      85.467  53.107  48.082  0.00  0.00    -0.077 C 
ATOM      3  C   UNL     1      86.086  51.982  48.542  0.00  0.00    -0.085 C 
ATOM      4  C   UNL     1      86.784  50.845  47.808  0.00  0.00    -0.031 C 
ATOM      5  C   UNL     1      87.765  51.195  46.676  0.00  0.00    -0.028 C 
ATOM      6  C   UNL     1      87.290  50.719  45.304  0.00  0.00    -0.073 C 
ATOM      7  C   UNL     1      88.010  49.765  44.682  0.00  0.00    -0.099 C 
ATOM      8  C   UNL     1      86.219  51.504  44.542  0.00  0.00    -0.016 C 
ATOM      9  C   UNL     1      84.874  51.676  45.276  0.00  0.00    -0.029 C 
ATOM     10  C   UNL     1      84.551  53.124  45.678  0.00  0.00    -0.045 C 
ATOM     11  C   UNL     1      85.565  53.690  46.679  0.00  0.00    -0.032 C 
ATOM     12  C   UNL     1      84.127  51.074  44.061  0.00  0.00    -0.031 C 
ATOM     13  C   UNL     1      85.481  50.780  43.398  0.00  0.00    -0.041 C 
ATOM     14  C   UNL     1      83.344  49.796  44.415  0.00  0.00    -0.060 C 
ATOM     15  C   UNL     1      83.264  52.043  43.228  0.00  0.00    -0.060 C 
ENDROOT
TORSDOF 0
ENDMDL
MODEL 6
REMARK VINA RESULT:    -6.750      2.049      4.316
REMARK INTER + INTRA:          -6.750
REMARK INTER:                  -6.750
REMARK INTRA:                   0.000
REMARK UNBOUND:                 0.000
REMARK  Name = 
REMARK  3 active torsions:
REMARK  status: ('A' for Active; 'I' for Inactive)
REMARK    1  A    between atoms: C_1  and  C_2
REMARK    2  A    between atoms: C_12  and  C_14
REMARK    3  A    between atoms: C_12  and  C_15
REMARK                            x       y       z     vdW  Elec       q    Type
REMARK                         _______ _______ _______ _____ _____    ______ ____
ROOT
ATOM      1  C   UNL     1      85.538  52.504  48.812  0.00  0.00    -0.044 C 
ATOM      2  C   UNL     1      85.286  53.557  47.756  0.00  0.00    -0.077 C 
ATOM      3  C   UNL     1      85.981  54.724  47.888  0.00  0.00    -0.085 C 
ATOM      4  C   UNL     1      86.137  55.916  46.953  0.00  0.00    -0.031 C 
ATOM      5  C   UNL     1      84.881  56.478  46.266  0.00  0.00    -0.028 C 
ATOM      6  C   UNL     1      84.901  56.304  44.748  0.00  0.00    -0.073 C 
ATOM      7  C   UNL     1      84.958  57.414  43.985  0.00  0.00    -0.099 C 
ATOM      8  C   UNL     1      84.567  54.948  44.121  0.00  0.00    -0.016 C 
ATOM      9  C   UNL     1      85.463  53.774  44.563  0.00  0.00    -0.029 C 
ATOM     10  C   UNL     1      84.739  52.701  45.393  0.00  0.00    -0.045 C 
ATOM     11  C   UNL     1      84.211  53.252  46.722  0.00  0.00    -0.032 C 
ATOM     12  C   UNL     1      85.786  53.454  43.084  0.00  0.00    -0.031 C 
ATOM     13  C   UNL     1      85.005  54.708  42.662  0.00  0.00    -0.041 C 
ATOM     14  C   UNL     1      87.290  53.551  42.766  0.00  0.00    -0.060 C 
ATOM     15  C   UNL     1      85.176  52.161  42.504  0.00  0.00    -0.060 C 
ENDROOT
TORSDOF 0
ENDMDL
MODEL 7
REMARK VINA RESULT:    -6.644      1.394      4.499
REMARK INTER + INTRA:          -6.644
REMARK INTER:                  -6.644
REMARK INTRA:                   0.000
REMARK UNBOUND:                 0.000
REMARK  Name = 
REMARK  3 active torsions:
REMARK  status: ('A' for Active; 'I' for Inactive)
REMARK    1  A    between atoms: C_1  and  C_2
REMARK    2  A    between atoms: C_12  and  C_14
REMARK    3  A    between atoms: C_12  and  C_15
REMARK                            x       y       z     vdW  Elec       q    Type
REMARK                         _______ _______ _______ _____ _____    ______ ____
ROOT
ATOM      1  C   UNL     1      86.365  52.525  42.291  0.00  0.00    -0.044 C 
ATOM      2  C   UNL     1      86.188  52.352  43.783  0.00  0.00    -0.077 C 
ATOM      3  C   UNL     1      87.263  51.865  44.468  0.00  0.00    -0.085 C 
ATOM      4  C   UNL     1      87.531  51.732  45.961  0.00  0.00    -0.031 C 
ATOM      5  C   UNL     1      86.418  51.163  46.858  0.00  0.00    -0.028 C 
ATOM      6  C   UNL     1      85.879  52.183  47.860  0.00  0.00    -0.073 C 
ATOM      7  C   UNL     1      86.086  51.951  49.171  0.00  0.00    -0.099 C 
ATOM      8  C   UNL     1      84.888  53.260  47.410  0.00  0.00    -0.016 C 
ATOM      9  C   UNL     1      85.383  54.189  46.284  0.00  0.00    -0.029 C 
ATOM     10  C   UNL     1      84.630  54.031  44.953  0.00  0.00    -0.045 C 
ATOM     11  C   UNL     1      84.803  52.634  44.349  0.00  0.00    -0.032 C 
ATOM     12  C   UNL     1      85.068  55.427  47.157  0.00  0.00    -0.031 C 
ATOM     13  C   UNL     1      84.707  54.491  48.321  0.00  0.00    -0.041 C 
ATOM     14  C   UNL     1      86.312  56.289  47.445  0.00  0.00    -0.060 C 
ATOM     15  C   UNL     1      83.875  56.300  46.717  0.00  0.00    -0.060 C 
ENDROOT
TORSDOF 0
ENDMDL
MODEL 8
REMARK VINA RESULT:    -6.622      3.979      7.227
REMARK INTER + INTRA:          -6.622
REMARK INTER:                  -6.622
REMARK INTRA:                   0.000
REMARK UNBOUND:                 0.000
REMARK  Name = 
REMARK  3 active torsions:
REMARK  status: ('A' for Active; 'I' for Inactive)
REMARK    1  A    between atoms: C_1  and  C_2
REMARK    2  A    between atoms: C_12  and  C_14
REMARK    3  A    between atoms: C_12  and  C_15
REMARK                            x       y       z     vdW  Elec       q    Type
REMARK                         _______ _______ _______ _____ _____    ______ ____
ROOT
ATOM      1  C   UNL     1      90.080  52.562  41.246  0.00  0.00    -0.044 C 
ATOM      2  C   UNL     1      89.183  51.426  41.685  0.00  0.00    -0.077 C 
ATOM      3  C   UNL     1      89.716  50.172  41.613  0.00  0.00    -0.085 C 
ATOM      4  C   UNL     1      89.209  48.830  42.125  0.00  0.00    -0.031 C 
ATOM      5  C   UNL     1      87.735  48.462  41.882  0.00  0.00    -0.028 C 
ATOM      6  C   UNL     1      86.926  48.355  43.174  0.00  0.00    -0.073 C 
ATOM      7  C   UNL     1      86.441  47.145  43.517  0.00  0.00    -0.099 C 
ATOM      8  C   UNL     1      86.434  49.618  43.886  0.00  0.00    -0.016 C 
ATOM      9  C   UNL     1      87.534  50.611  44.310  0.00  0.00    -0.029 C 
ATOM     10  C   UNL     1      87.502  51.952  43.560  0.00  0.00    -0.045 C 
ATOM     11  C   UNL     1      87.751  51.784  42.057  0.00  0.00    -0.032 C 
ATOM     12  C   UNL     1      87.011  50.579  45.766  0.00  0.00    -0.031 C 
ATOM     13  C   UNL     1      86.009  49.487  45.362  0.00  0.00    -0.041 C 
ATOM     14  C   UNL     1      88.067  50.080  46.771  0.00  0.00    -0.060 C 
ATOM     15  C   UNL     1      86.312  51.854  46.280  0.00  0.00    -0.060 C 
ENDROOT
TORSDOF 0
ENDMDL
MODEL 9
REMARK VINA RESULT:    -6.544      2.610      3.912
REMARK INTER + INTRA:          -6.544
REMARK INTER:                  -6.544
REMARK INTRA:                   0.000
REMARK UNBOUND:                 0.000
REMARK  Name = 
REMARK  3 active torsions:
REMARK  status: ('A' for Active; 'I' for Inactive)
REMARK    1  A    between atoms: C_1  and  C_2
REMARK    2  A    between atoms: C_12  and  C_14
REMARK    3  A    between atoms: C_12  and  C_15
REMARK                            x       y       z     vdW  Elec       q    Type
REMARK                         _______ _______ _______ _____ _____    ______ ____
ROOT
ATOM      1  C   UNL     1      84.075  58.579  46.599  0.00  0.00    -0.044 C 
ATOM      2  C   UNL     1      84.803  57.327  46.162  0.00  0.00    -0.077 C 
ATOM      3  C   UNL     1      84.725  56.256  47.004  0.00  0.00    -0.085 C 
ATOM      4  C   UNL     1      85.153  54.805  46.832  0.00  0.00    -0.031 C 
ATOM      5  C   UNL     1      86.538  54.515  46.229  0.00  0.00    -0.028 C 
ATOM      6  C   UNL     1      86.465  53.817  44.871  0.00  0.00    -0.073 C 
ATOM      7  C   UNL     1      86.941  52.560  44.781  0.00  0.00    -0.099 C 
ATOM      8  C   UNL     1      86.144  54.618  43.606  0.00  0.00    -0.016 C 
ATOM      9  C   UNL     1      84.799  55.372  43.621  0.00  0.00    -0.029 C 
ATOM     10  C   UNL     1      84.931  56.904  43.628  0.00  0.00    -0.045 C 
ATOM     11  C   UNL     1      85.632  57.422  44.888  0.00  0.00    -0.032 C 
ATOM     12  C   UNL     1      84.390  54.682  42.298  0.00  0.00    -0.031 C 
ATOM     13  C   UNL     1      85.669  53.834  42.366  0.00  0.00    -0.041 C 
ATOM     14  C   UNL     1      83.106  53.841  42.435  0.00  0.00    -0.060 C 
ATOM     15  C   UNL     1      84.342  55.571  41.038  0.00  0.00    -0.060 C 
ENDROOT
TORSDOF 0
ENDMDL
