MODEL 1
REMARK VINA RESULT:    -8.779      0.000      0.000
REMARK INTER + INTRA:         -15.244
REMARK INTER:                 -12.897
REMARK INTRA:                  -2.348
REMARK UNBOUND:                -2.360
REMARK  Name = 
REMARK  14 active torsions:
REMARK  status: ('A' for Active; 'I' for Inactive)
REMARK    1  A    between atoms: C_1  and  O_2
REMARK    2  A    between atoms: O_2  and  C_3
REMARK    3  A    between atoms: C_5  and  O_6
REMARK    4  A    between atoms: C_7  and  C_13
REMARK    5  A    between atoms: C_8  and  O_12
REMARK    6  A    between atoms: C_9  and  O_10
REMARK    7  A    between atoms: O_10  and  C_11
REMARK    8  A    between atoms: C_13  and  C_15
REMARK    9  A    between atoms: C_18  and  C_32
REMARK   10  A    between atoms: C_19  and  C_27
REMARK   11  A    between atoms: C_20  and  C_21
REMARK   12  A    between atoms: C_27  and  C_28
REMARK   13  A    between atoms: C_29  and  C_30
REMARK   14  A    between atoms: C_29  and  C_31
REMARK                            x       y       z     vdW  Elec       q    Type
REMARK                         _______ _______ _______ _____ _____    ______ ____
ROOT
ATOM      1  C   UNL     1      86.128  54.195  42.743  0.00  0.00    +0.033 C 
ATOM      2  C   UNL     1      87.392  54.494  43.559  0.00  0.00    -0.024 C 
ATOM      3  C   UNL     1      87.090  55.577  44.551  0.00  0.00    -0.084 C 
ATOM      4  C   UNL     1      85.903  55.635  45.181  0.00  0.00    -0.073 C 
ATOM      5  C   UNL     1      84.834  54.556  44.983  0.00  0.00    -0.009 C 
ATOM      6  C   UNL     1      85.017  53.670  43.694  0.00  0.00    +0.001 C 
ATOM      7  C   UNL     1      85.602  56.839  46.035  0.00  0.00    -0.043 C 
ENDROOT
BRANCH   6   8
ATOM      8  C   UNL     1      83.694  53.485  42.961  0.00  0.00    -0.043 A 
ATOM      9  C   UNL     1      83.020  52.247  42.976  0.00  0.00    -0.058 A 
ATOM     10  C   UNL     1      81.779  52.111  42.351  0.00  0.00    -0.061 A 
ATOM     11  C   UNL     1      81.210  53.194  41.677  0.00  0.00    -0.062 A 
ATOM     12  C   UNL     1      81.885  54.415  41.623  0.00  0.00    -0.061 A 
ATOM     13  C   UNL     1      83.123  54.561  42.256  0.00  0.00    -0.058 A 
ENDBRANCH   6   8
BRANCH   1  14
ATOM     14  C   UNL     1      86.420  53.200  41.637  0.00  0.00    +0.174 C 
ATOM     15  O   UNL     1      85.863  53.331  40.512  0.00  0.00    -0.291 OA
BRANCH  14  19
ATOM     16  C   UNL     1      89.350  50.083  42.146  0.00  0.00    +0.169 A 
ATOM     17  C   UNL     1      89.685  51.293  41.510  0.00  0.00    +0.026 A 
ATOM     18  C   UNL     1      88.739  52.312  41.362  0.00  0.00    +0.135 A 
ATOM     19  C   UNL     1      87.425  52.129  41.832  0.00  0.00    +0.104 A 
ATOM     20  C   UNL     1      87.084  50.918  42.483  0.00  0.00    +0.176 A 
ATOM     21  C   UNL     1      88.048  49.913  42.658  0.00  0.00    +0.204 A 
BRANCH  16  23
ATOM     22  C   UNL     1      91.241  48.885  43.276  0.00  0.00    +0.079 C 
ATOM     23  O   UNL     1      90.273  49.029  42.241  0.00  0.00    -0.491 OA
ENDBRANCH  16  23
BRANCH  18  24
ATOM     24  O   UNL     1      89.109  53.512  40.748  0.00  0.00    -0.506 OA
ATOM     25  H   UNL     1      89.840  53.998  41.074  0.00  0.00    +0.000 HD
ENDBRANCH  18  24
BRANCH  21  26
ATOM     26  O   UNL     1      87.657  48.742  43.327  0.00  0.00    -0.488 OA
ATOM     27  C   UNL     1      87.212  47.559  42.668  0.00  0.00    +0.079 C 
ENDBRANCH  21  26
BRANCH  20  28
ATOM     28  O   UNL     1      85.796  50.680  42.972  0.00  0.00    -0.503 OA
ATOM     29  H   UNL     1      85.127  50.365  42.398  0.00  0.00    +0.000 HD
ENDBRANCH  20  28
ENDBRANCH  14  19
ENDBRANCH   1  14
BRANCH   5  30
ATOM     30  C   UNL     1      84.690  53.688  46.262  0.00  0.00    -0.027 C 
BRANCH  30  31
ATOM     31  C   UNL     1      85.690  52.547  46.309  0.00  0.00    -0.085 C 
ATOM     32  C   UNL     1      86.203  52.000  47.438  0.00  0.00    -0.080 C 
ATOM     33  C   UNL     1      87.251  50.918  47.335  0.00  0.00    -0.044 C 
ATOM     34  C   UNL     1      85.754  52.417  48.816  0.00  0.00    -0.044 C 
ENDBRANCH  30  31
ENDBRANCH   5  30
TORSDOF 9
ENDMDL
MODEL 2
REMARK VINA RESULT:    -8.643      2.904      5.989
REMARK INTER + INTRA:         -15.044
REMARK INTER:                 -12.449
REMARK INTRA:                  -2.595
REMARK UNBOUND:                -2.360
REMARK  Name = 
REMARK  14 active torsions:
REMARK  status: ('A' for Active; 'I' for Inactive)
REMARK    1  A    between atoms: C_1  and  O_2
REMARK    2  A    between atoms: O_2  and  C_3
REMARK    3  A    between atoms: C_5  and  O_6
REMARK    4  A    between atoms: C_7  and  C_13
REMARK    5  A    between atoms: C_8  and  O_12
REMARK    6  A    between atoms: C_9  and  O_10
REMARK    7  A    between atoms: O_10  and  C_11
REMARK    8  A    between atoms: C_13  and  C_15
REMARK    9  A    between atoms: C_18  and  C_32
REMARK   10  A    between atoms: C_19  and  C_27
REMARK   11  A    between atoms: C_20  and  C_21
REMARK   12  A    between atoms: C_27  and  C_28
REMARK   13  A    between atoms: C_29  and  C_30
REMARK   14  A    between atoms: C_29  and  C_31
REMARK                            x       y       z     vdW  Elec       q    Type
REMARK                         _______ _______ _______ _____ _____    ______ ____
ROOT
ATOM      1  C   UNL     1      84.748  51.769  45.095  0.00  0.00    +0.033 C 
ATOM      2  C   UNL     1      83.750  52.697  45.800  0.00  0.00    -0.024 C 
ATOM      3  C   UNL     1      84.279  53.043  47.160  0.00  0.00    -0.084 C 
ATOM      4  C   UNL     1      85.592  53.255  47.365  0.00  0.00    -0.073 C 
ATOM      5  C   UNL     1      86.599  53.237  46.210  0.00  0.00    -0.009 C 
ATOM      6  C   UNL     1      86.095  52.519  44.902  0.00  0.00    +0.001 C 
ATOM      7  C   UNL     1      86.078  53.431  48.779  0.00  0.00    -0.043 C 
ENDROOT
BRANCH   6   8
ATOM      8  C   UNL     1      87.169  51.603  44.329  0.00  0.00    -0.043 A 
ATOM      9  C   UNL     1      87.583  50.444  45.018  0.00  0.00    -0.058 A 
ATOM     10  C   UNL     1      88.522  49.582  44.449  0.00  0.00    -0.061 A 
ATOM     11  C   UNL     1      89.086  49.879  43.206  0.00  0.00    -0.062 A 
ATOM     12  C   UNL     1      88.712  51.043  42.530  0.00  0.00    -0.061 A 
ATOM     13  C   UNL     1      87.763  51.904  43.089  0.00  0.00    -0.058 A 
ENDBRANCH   6   8
BRANCH   1  14
ATOM     14  C   UNL     1      84.194  51.285  43.769  0.00  0.00    +0.174 C 
ATOM     15  O   UNL     1      84.603  51.803  42.693  0.00  0.00    -0.291 OA
BRANCH  14  19
ATOM     16  C   UNL     1      81.401  48.008  43.650  0.00  0.00    +0.169 A 
ATOM     17  C   UNL     1      81.018  49.299  43.244  0.00  0.00    +0.026 A 
ATOM     18  C   UNL     1      81.929  50.359  43.266  0.00  0.00    +0.135 A 
ATOM     19  C   UNL     1      83.246  50.149  43.716  0.00  0.00    +0.104 A 
ATOM     20  C   UNL     1      83.642  48.848  44.115  0.00  0.00    +0.176 A 
ATOM     21  C   UNL     1      82.731  47.782  44.060  0.00  0.00    +0.204 A 
BRANCH  16  23
ATOM     22  C   UNL     1      79.716  46.585  44.842  0.00  0.00    +0.079 C 
ATOM     23  O   UNL     1      80.477  46.952  43.695  0.00  0.00    -0.491 OA
ENDBRANCH  16  23
BRANCH  18  24
ATOM     24  O   UNL     1      81.525  51.625  42.833  0.00  0.00    -0.506 OA
ATOM     25  H   UNL     1      80.619  51.860  42.855  0.00  0.00    +0.000 HD
ENDBRANCH  18  24
BRANCH  21  26
ATOM     26  O   UNL     1      83.186  46.513  44.450  0.00  0.00    -0.488 OA
ATOM     27  C   UNL     1      83.779  45.570  43.558  0.00  0.00    +0.079 C 
ENDBRANCH  21  26
BRANCH  20  28
ATOM     28  O   UNL     1      84.937  48.579  44.570  0.00  0.00    -0.503 OA
ATOM     29  H   UNL     1      85.290  47.714  44.497  0.00  0.00    +0.000 HD
ENDBRANCH  20  28
ENDBRANCH  14  19
ENDBRANCH   1  14
BRANCH   5  30
ATOM     30  C   UNL     1      87.119  54.670  45.916  0.00  0.00    -0.027 C 
BRANCH  30  31
ATOM     31  C   UNL     1      86.275  55.398  44.886  0.00  0.00    -0.085 C 
ATOM     32  C   UNL     1      85.319  56.318  45.164  0.00  0.00    -0.080 C 
ATOM     33  C   UNL     1      84.500  56.908  44.042  0.00  0.00    -0.044 C 
ATOM     34  C   UNL     1      85.045  56.802  46.566  0.00  0.00    -0.044 C 
ENDBRANCH  30  31
ENDBRANCH   5  30
TORSDOF 9
ENDMDL
MODEL 3
REMARK VINA RESULT:    -8.461      2.375      4.886
REMARK INTER + INTRA:         -14.777
REMARK INTER:                 -12.874
REMARK INTRA:                  -1.903
REMARK UNBOUND:                -2.360
REMARK  Name = 
REMARK  14 active torsions:
REMARK  status: ('A' for Active; 'I' for Inactive)
REMARK    1  A    between atoms: C_1  and  O_2
REMARK    2  A    between atoms: O_2  and  C_3
REMARK    3  A    between atoms: C_5  and  O_6
REMARK    4  A    between atoms: C_7  and  C_13
REMARK    5  A    between atoms: C_8  and  O_12
REMARK    6  A    between atoms: C_9  and  O_10
REMARK    7  A    between atoms: O_10  and  C_11
REMARK    8  A    between atoms: C_13  and  C_15
REMARK    9  A    between atoms: C_18  and  C_32
REMARK   10  A    between atoms: C_19  and  C_27
REMARK   11  A    between atoms: C_20  and  C_21
REMARK   12  A    between atoms: C_27  and  C_28
REMARK   13  A    between atoms: C_29  and  C_30
REMARK   14  A    between atoms: C_29  and  C_31
REMARK                            x       y       z     vdW  Elec       q    Type
REMARK                         _______ _______ _______ _____ _____    ______ ____
ROOT
ATOM      1  C   UNL     1      86.081  52.145  43.577  0.00  0.00    +0.033 C 
ATOM      2  C   UNL     1      86.516  52.532  42.157  0.00  0.00    -0.024 C 
ATOM      3  C   UNL     1      85.624  53.626  41.652  0.00  0.00    -0.084 C 
ATOM      4  C   UNL     1      85.188  54.604  42.468  0.00  0.00    -0.073 C 
ATOM      5  C   UNL     1      85.647  54.697  43.927  0.00  0.00    -0.009 C 
ATOM      6  C   UNL     1      86.256  53.370  44.516  0.00  0.00    +0.001 C 
ATOM      7  C   UNL     1      84.163  55.573  41.942  0.00  0.00    -0.043 C 
ENDROOT
BRANCH   6   8
ATOM      8  C   UNL     1      85.713  53.087  45.912  0.00  0.00    -0.043 A 
ATOM      9  C   UNL     1      86.558  52.635  46.945  0.00  0.00    -0.058 A 
ATOM     10  C   UNL     1      86.056  52.441  48.234  0.00  0.00    -0.061 A 
ATOM     11  C   UNL     1      84.703  52.660  48.501  0.00  0.00    -0.062 A 
ATOM     12  C   UNL     1      83.847  53.072  47.476  0.00  0.00    -0.061 A 
ATOM     13  C   UNL     1      84.346  53.280  46.187  0.00  0.00    -0.058 A 
ENDBRANCH   6   8
BRANCH   1  14
ATOM     14  C   UNL     1      86.870  50.951  44.078  0.00  0.00    +0.174 C 
ATOM     15  O   UNL     1      87.929  51.133  44.741  0.00  0.00    -0.291 OA
BRANCH  14  19
ATOM     16  C   UNL     1      85.410  46.949  43.442  0.00  0.00    +0.169 A 
ATOM     17  C   UNL     1      86.733  47.296  43.112  0.00  0.00    +0.026 A 
ATOM     18  C   UNL     1      87.212  48.591  43.335  0.00  0.00    +0.135 A 
ATOM     19  C   UNL     1      86.364  49.574  43.879  0.00  0.00    +0.104 A 
ATOM     20  C   UNL     1      85.035  49.227  44.224  0.00  0.00    +0.176 A 
ATOM     21  C   UNL     1      84.570  47.917  44.028  0.00  0.00    +0.204 A 
BRANCH  16  23
ATOM     22  C   UNL     1      84.794  44.610  44.106  0.00  0.00    +0.079 C 
ATOM     23  O   UNL     1      84.899  45.671  43.161  0.00  0.00    -0.491 OA
ENDBRANCH  16  23
BRANCH  18  24
ATOM     24  O   UNL     1      88.538  48.899  43.020  0.00  0.00    -0.506 OA
ATOM     25  H   UNL     1      89.100  48.239  42.664  0.00  0.00    +0.000 HD
ENDBRANCH  18  24
BRANCH  21  26
ATOM     26  O   UNL     1      83.250  47.628  44.407  0.00  0.00    -0.488 OA
ATOM     27  C   UNL     1      82.145  47.628  43.506  0.00  0.00    +0.079 C 
ENDBRANCH  21  26
BRANCH  20  28
ATOM     28  O   UNL     1      84.147  50.161  44.769  0.00  0.00    -0.503 OA
ATOM     29  H   UNL     1      83.393  49.870  45.243  0.00  0.00    +0.000 HD
ENDBRANCH  20  28
ENDBRANCH  14  19
ENDBRANCH   1  14
BRANCH   5  30
ATOM     30  C   UNL     1      86.602  55.906  44.123  0.00  0.00    -0.027 C 
BRANCH  30  31
ATOM     31  C   UNL     1      85.874  57.155  44.585  0.00  0.00    -0.085 C 
ATOM     32  C   UNL     1      85.499  57.417  45.861  0.00  0.00    -0.080 C 
ATOM     33  C   UNL     1      84.710  58.667  46.166  0.00  0.00    -0.044 C 
ATOM     34  C   UNL     1      85.854  56.508  47.011  0.00  0.00    -0.044 C 
ENDBRANCH  30  31
ENDBRANCH   5  30
TORSDOF 9
ENDMDL
MODEL 4
REMARK VINA RESULT:    -8.308      2.057      4.818
REMARK INTER + INTRA:         -14.553
REMARK INTER:                 -12.564
REMARK INTRA:                  -1.989
REMARK UNBOUND:                -2.360
REMARK  Name = 
REMARK  14 active torsions:
REMARK  status: ('A' for Active; 'I' for Inactive)
REMARK    1  A    between atoms: C_1  and  O_2
REMARK    2  A    between atoms: O_2  and  C_3
REMARK    3  A    between atoms: C_5  and  O_6
REMARK    4  A    between atoms: C_7  and  C_13
REMARK    5  A    between atoms: C_8  and  O_12
REMARK    6  A    between atoms: C_9  and  O_10
REMARK    7  A    between atoms: O_10  and  C_11
REMARK    8  A    between atoms: C_13  and  C_15
REMARK    9  A    between atoms: C_18  and  C_32
REMARK   10  A    between atoms: C_19  and  C_27
REMARK   11  A    between atoms: C_20  and  C_21
REMARK   12  A    between atoms: C_27  and  C_28
REMARK   13  A    between atoms: C_29  and  C_30
REMARK   14  A    between atoms: C_29  and  C_31
REMARK                            x       y       z     vdW  Elec       q    Type
REMARK                         _______ _______ _______ _____ _____    ______ ____
ROOT
ATOM      1  C   UNL     1      85.194  52.323  43.098  0.00  0.00    +0.033 C 
ATOM      2  C   UNL     1      85.047  52.399  41.573  0.00  0.00    -0.024 C 
ATOM      3  C   UNL     1      83.716  53.003  41.239  0.00  0.00    -0.084 C 
ATOM      4  C   UNL     1      83.199  54.004  41.974  0.00  0.00    -0.073 C 
ATOM      5  C   UNL     1      83.977  54.634  43.133  0.00  0.00    -0.009 C 
ATOM      6  C   UNL     1      85.165  53.760  43.687  0.00  0.00    +0.001 C 
ATOM      7  C   UNL     1      81.789  54.450  41.689  0.00  0.00    -0.043 C 
ENDROOT
BRANCH   6   8
ATOM      8  C   UNL     1      85.170  53.741  45.211  0.00  0.00    -0.043 A 
ATOM      9  C   UNL     1      84.270  52.931  45.933  0.00  0.00    -0.058 A 
ATOM     10  C   UNL     1      84.331  52.878  47.327  0.00  0.00    -0.061 A 
ATOM     11  C   UNL     1      85.263  53.653  48.020  0.00  0.00    -0.062 A 
ATOM     12  C   UNL     1      86.135  54.488  47.318  0.00  0.00    -0.061 A 
ATOM     13  C   UNL     1      86.088  54.537  45.922  0.00  0.00    -0.058 A 
ENDBRANCH   6   8
BRANCH   1  14
ATOM     14  C   UNL     1      86.468  51.597  43.483  0.00  0.00    +0.174 C 
ATOM     15  O   UNL     1      87.413  52.235  44.025  0.00  0.00    -0.291 OA
BRANCH  14  19
ATOM     16  C   UNL     1      86.809  47.324  43.055  0.00  0.00    +0.169 A 
ATOM     17  C   UNL     1      85.886  47.889  43.953  0.00  0.00    +0.026 A 
ATOM     18  C   UNL     1      85.762  49.276  44.079  0.00  0.00    +0.135 A 
ATOM     19  C   UNL     1      86.581  50.130  43.316  0.00  0.00    +0.104 A 
ATOM     20  C   UNL     1      87.505  49.568  42.402  0.00  0.00    +0.176 A 
ATOM     21  C   UNL     1      87.601  48.175  42.257  0.00  0.00    +0.204 A 
BRANCH  16  23
ATOM     22  C   UNL     1      86.028  44.963  43.374  0.00  0.00    +0.079 C 
ATOM     23  O   UNL     1      86.988  45.934  42.969  0.00  0.00    -0.491 OA
ENDBRANCH  16  23
BRANCH  18  24
ATOM     24  O   UNL     1      84.817  49.807  44.961  0.00  0.00    -0.506 OA
ATOM     25  H   UNL     1      85.083  50.419  45.618  0.00  0.00    +0.000 HD
ENDBRANCH  18  24
BRANCH  21  26
ATOM     26  O   UNL     1      88.521  47.677  41.321  0.00  0.00    -0.488 OA
ATOM     27  C   UNL     1      89.863  47.313  41.640  0.00  0.00    +0.079 C 
ENDBRANCH  21  26
BRANCH  20  28
ATOM     28  O   UNL     1      88.344  50.365  41.617  0.00  0.00    -0.503 OA
ATOM     29  H   UNL     1      88.969  50.933  42.024  0.00  0.00    +0.000 HD
ENDBRANCH  20  28
ENDBRANCH  14  19
ENDBRANCH   1  14
BRANCH   5  30
ATOM     30  C   UNL     1      84.441  56.069  42.765  0.00  0.00    -0.027 C 
BRANCH  30  31
ATOM     31  C   UNL     1      84.095  57.087  43.835  0.00  0.00    -0.085 C 
ATOM     32  C   UNL     1      84.993  57.785  44.573  0.00  0.00    -0.080 C 
ATOM     33  C   UNL     1      84.507  58.712  45.661  0.00  0.00    -0.044 C 
ATOM     34  C   UNL     1      86.480  57.690  44.340  0.00  0.00    -0.044 C 
ENDBRANCH  30  31
ENDBRANCH   5  30
TORSDOF 9
ENDMDL
MODEL 5
REMARK VINA RESULT:    -8.302      3.029      6.342
REMARK INTER + INTRA:         -14.544
REMARK INTER:                 -12.139
REMARK INTRA:                  -2.405
REMARK UNBOUND:                -2.360
REMARK  Name = 
REMARK  14 active torsions:
REMARK  status: ('A' for Active; 'I' for Inactive)
REMARK    1  A    between atoms: C_1  and  O_2
REMARK    2  A    between atoms: O_2  and  C_3
REMARK    3  A    between atoms: C_5  and  O_6
REMARK    4  A    between atoms: C_7  and  C_13
REMARK    5  A    between atoms: C_8  and  O_12
REMARK    6  A    between atoms: C_9  and  O_10
REMARK    7  A    between atoms: O_10  and  C_11
REMARK    8  A    between atoms: C_13  and  C_15
REMARK    9  A    between atoms: C_18  and  C_32
REMARK   10  A    between atoms: C_19  and  C_27
REMARK   11  A    between atoms: C_20  and  C_21
REMARK   12  A    between atoms: C_27  and  C_28
REMARK   13  A    between atoms: C_29  and  C_30
REMARK   14  A    between atoms: C_29  and  C_31
REMARK                            x       y       z     vdW  Elec       q    Type
REMARK                         _______ _______ _______ _____ _____    ______ ____
ROOT
ATOM      1  C   UNL     1      84.819  51.586  44.869  0.00  0.00    +0.033 C 
ATOM      2  C   UNL     1      83.766  52.446  45.579  0.00  0.00    -0.024 C 
ATOM      3  C   UNL     1      84.318  52.910  46.894  0.00  0.00    -0.084 C 
ATOM      4  C   UNL     1      85.611  53.259  47.024  0.00  0.00    -0.073 C 
ATOM      5  C   UNL     1      86.561  53.282  45.823  0.00  0.00    -0.009 C 
ATOM      6  C   UNL     1      86.074  52.454  44.576  0.00  0.00    +0.001 C 
ATOM      7  C   UNL     1      86.139  53.553  48.403  0.00  0.00    -0.043 C 
ENDROOT
BRANCH   6   8
ATOM      8  C   UNL     1      87.208  51.619  43.992  0.00  0.00    -0.043 A 
ATOM      9  C   UNL     1      87.599  50.403  44.589  0.00  0.00    -0.058 A 
ATOM     10  C   UNL     1      88.597  49.620  44.005  0.00  0.00    -0.061 A 
ATOM     11  C   UNL     1      89.240  50.052  42.843  0.00  0.00    -0.062 A 
ATOM     12  C   UNL     1      88.887  51.273  42.263  0.00  0.00    -0.061 A 
ATOM     13  C   UNL     1      87.881  52.056  42.836  0.00  0.00    -0.058 A 
ENDBRANCH   6   8
BRANCH   1  14
ATOM     14  C   UNL     1      84.257  50.984  43.595  0.00  0.00    +0.174 C 
ATOM     15  O   UNL     1      84.761  51.295  42.480  0.00  0.00    -0.291 OA
BRANCH  14  19
ATOM     16  C   UNL     1      81.166  47.986  43.719  0.00  0.00    +0.169 A 
ATOM     17  C   UNL     1      82.500  47.663  44.029  0.00  0.00    +0.026 A 
ATOM     18  C   UNL     1      83.500  48.640  44.008  0.00  0.00    +0.135 A 
ATOM     19  C   UNL     1      83.185  49.965  43.651  0.00  0.00    +0.104 A 
ATOM     20  C   UNL     1      81.842  50.300  43.348  0.00  0.00    +0.176 A 
ATOM     21  C   UNL     1      80.838  49.321  43.405  0.00  0.00    +0.204 A 
BRANCH  16  23
ATOM     22  C   UNL     1      79.566  46.398  44.815  0.00  0.00    +0.079 C 
ATOM     23  O   UNL     1      80.167  47.000  43.673  0.00  0.00    -0.491 OA
ENDBRANCH  16  23
BRANCH  18  24
ATOM     24  O   UNL     1      84.811  48.293  44.346  0.00  0.00    -0.506 OA
ATOM     25  H   UNL     1      85.523  48.577  43.808  0.00  0.00    +0.000 HD
ENDBRANCH  18  24
BRANCH  21  26
ATOM     26  O   UNL     1      79.523  49.716  43.113  0.00  0.00    -0.488 OA
ATOM     27  C   UNL     1      78.595  50.183  44.090  0.00  0.00    +0.079 C 
ENDBRANCH  21  26
BRANCH  20  28
ATOM     28  O   UNL     1      81.469  51.599  42.989  0.00  0.00    -0.503 OA
ATOM     29  H   UNL     1      82.116  52.209  42.698  0.00  0.00    +0.000 HD
ENDBRANCH  20  28
ENDBRANCH  14  19
ENDBRANCH   1  14
BRANCH   5  30
ATOM     30  C   UNL     1      86.922  54.743  45.439  0.00  0.00    -0.027 C 
BRANCH  30  31
ATOM     31  C   UNL     1      86.066  55.276  44.304  0.00  0.00    -0.085 C 
ATOM     32  C   UNL     1      84.952  56.034  44.452  0.00  0.00    -0.080 C 
ATOM     33  C   UNL     1      84.152  56.431  43.235  0.00  0.00    -0.044 C 
ATOM     34  C   UNL     1      84.478  56.521  45.798  0.00  0.00    -0.044 C 
ENDBRANCH  30  31
ENDBRANCH   5  30
TORSDOF 9
ENDMDL
MODEL 6
REMARK VINA RESULT:    -8.288      2.667      6.169
REMARK INTER + INTRA:         -14.523
REMARK INTER:                 -12.477
REMARK INTRA:                  -2.047
REMARK UNBOUND:                -2.360
REMARK  Name = 
REMARK  14 active torsions:
REMARK  status: ('A' for Active; 'I' for Inactive)
REMARK    1  A    between atoms: C_1  and  O_2
REMARK    2  A    between atoms: O_2  and  C_3
REMARK    3  A    between atoms: C_5  and  O_6
REMARK    4  A    between atoms: C_7  and  C_13
REMARK    5  A    between atoms: C_8  and  O_12
REMARK    6  A    between atoms: C_9  and  O_10
REMARK    7  A    between atoms: O_10  and  C_11
REMARK    8  A    between atoms: C_13  and  C_15
REMARK    9  A    between atoms: C_18  and  C_32
REMARK   10  A    between atoms: C_19  and  C_27
REMARK   11  A    between atoms: C_20  and  C_21
REMARK   12  A    between atoms: C_27  and  C_28
REMARK   13  A    between atoms: C_29  and  C_30
REMARK   14  A    between atoms: C_29  and  C_31
REMARK                            x       y       z     vdW  Elec       q    Type
REMARK                         _______ _______ _______ _____ _____    ______ ____
ROOT
ATOM      1  C   UNL     1      85.518  52.088  43.962  0.00  0.00    +0.033 C 
ATOM      2  C   UNL     1      84.442  52.511  44.971  0.00  0.00    -0.024 C 
ATOM      3  C   UNL     1      84.936  53.696  45.746  0.00  0.00    -0.084 C 
ATOM      4  C   UNL     1      85.664  54.662  45.155  0.00  0.00    -0.073 C 
ATOM      5  C   UNL     1      85.952  54.645  43.651  0.00  0.00    -0.009 C 
ATOM      6  C   UNL     1      85.757  53.246  42.955  0.00  0.00    +0.001 C 
ATOM      7  C   UNL     1      86.270  55.735  46.021  0.00  0.00    -0.043 C 
ENDROOT
BRANCH   6   8
ATOM      8  C   UNL     1      86.912  52.935  42.010  0.00  0.00    -0.043 A 
ATOM      9  C   UNL     1      86.697  52.767  40.627  0.00  0.00    -0.058 A 
ATOM     10  C   UNL     1      87.774  52.545  39.767  0.00  0.00    -0.061 A 
ATOM     11  C   UNL     1      89.072  52.454  40.276  0.00  0.00    -0.062 A 
ATOM     12  C   UNL     1      89.294  52.581  41.649  0.00  0.00    -0.061 A 
ATOM     13  C   UNL     1      88.221  52.815  42.513  0.00  0.00    -0.058 A 
ENDBRANCH   6   8
BRANCH   1  14
ATOM     14  C   UNL     1      85.117  50.812  43.248  0.00  0.00    +0.174 C 
ATOM     15  O   UNL     1      85.993  50.126  42.652  0.00  0.00    -0.291 OA
BRANCH  14  19
ATOM     16  C   UNL     1      81.051  49.407  43.479  0.00  0.00    +0.169 A 
ATOM     17  C   UNL     1      81.386  50.524  42.693  0.00  0.00    +0.026 A 
ATOM     18  C   UNL     1      82.709  50.970  42.603  0.00  0.00    +0.135 A 
ATOM     19  C   UNL     1      83.725  50.311  43.321  0.00  0.00    +0.104 A 
ATOM     20  C   UNL     1      83.396  49.178  44.105  0.00  0.00    +0.176 A 
ATOM     21  C   UNL     1      82.072  48.717  44.163  0.00  0.00    +0.204 A 
BRANCH  16  23
ATOM     22  C   UNL     1      78.721  49.703  44.356  0.00  0.00    +0.079 C 
ATOM     23  O   UNL     1      79.718  48.992  43.628  0.00  0.00    -0.491 OA
ENDBRANCH  16  23
BRANCH  18  24
ATOM     24  O   UNL     1      83.014  52.067  41.794  0.00  0.00    -0.506 OA
ATOM     25  H   UNL     1      82.636  52.904  41.979  0.00  0.00    +0.000 HD
ENDBRANCH  18  24
BRANCH  21  26
ATOM     26  O   UNL     1      81.810  47.579  44.942  0.00  0.00    -0.488 OA
ATOM     27  C   UNL     1      81.677  46.263  44.409  0.00  0.00    +0.079 C 
ENDBRANCH  21  26
BRANCH  20  28
ATOM     28  O   UNL     1      84.363  48.483  44.838  0.00  0.00    -0.503 OA
ATOM     29  H   UNL     1      85.235  48.400  44.505  0.00  0.00    +0.000 HD
ENDBRANCH  20  28
ENDBRANCH  14  19
ENDBRANCH   1  14
BRANCH   5  30
ATOM     30  C   UNL     1      85.154  55.764  42.928  0.00  0.00    -0.027 C 
BRANCH  30  31
ATOM     31  C   UNL     1      83.806  55.284  42.421  0.00  0.00    -0.085 C 
ATOM     32  C   UNL     1      83.440  55.211  41.118  0.00  0.00    -0.080 C 
ATOM     33  C   UNL     1      82.036  54.788  40.759  0.00  0.00    -0.044 C 
ATOM     34  C   UNL     1      84.393  55.521  39.991  0.00  0.00    -0.044 C 
ENDBRANCH  30  31
ENDBRANCH   5  30
TORSDOF 9
ENDMDL
MODEL 7
REMARK VINA RESULT:    -8.247      2.628      6.829
REMARK INTER + INTRA:         -14.464
REMARK INTER:                 -11.986
REMARK INTRA:                  -2.478
REMARK UNBOUND:                -2.360
REMARK  Name = 
REMARK  14 active torsions:
REMARK  status: ('A' for Active; 'I' for Inactive)
REMARK    1  A    between atoms: C_1  and  O_2
REMARK    2  A    between atoms: O_2  and  C_3
REMARK    3  A    between atoms: C_5  and  O_6
REMARK    4  A    between atoms: C_7  and  C_13
REMARK    5  A    between atoms: C_8  and  O_12
REMARK    6  A    between atoms: C_9  and  O_10
REMARK    7  A    between atoms: O_10  and  C_11
REMARK    8  A    between atoms: C_13  and  C_15
REMARK    9  A    between atoms: C_18  and  C_32
REMARK   10  A    between atoms: C_19  and  C_27
REMARK   11  A    between atoms: C_20  and  C_21
REMARK   12  A    between atoms: C_27  and  C_28
REMARK   13  A    between atoms: C_29  and  C_30
REMARK   14  A    between atoms: C_29  and  C_31
REMARK                            x       y       z     vdW  Elec       q    Type
REMARK                         _______ _______ _______ _____ _____    ______ ____
ROOT
ATOM      1  C   UNL     1      86.321  52.472  42.440  0.00  0.00    +0.033 C 
ATOM      2  C   UNL     1      86.293  52.696  40.923  0.00  0.00    -0.024 C 
ATOM      3  C   UNL     1      87.648  52.391  40.357  0.00  0.00    -0.084 C 
ATOM      4  C   UNL     1      88.390  51.374  40.832  0.00  0.00    -0.073 C 
ATOM      5  C   UNL     1      87.857  50.426  41.911  0.00  0.00    -0.009 C 
ATOM      6  C   UNL     1      86.631  50.977  42.731  0.00  0.00    +0.001 C 
ATOM      7  C   UNL     1      89.805  51.227  40.339  0.00  0.00    -0.043 C 
ENDROOT
BRANCH   6   8
ATOM      8  C   UNL     1      86.806  50.722  44.223  0.00  0.00    -0.043 A 
ATOM      9  C   UNL     1      86.198  49.614  44.849  0.00  0.00    -0.058 A 
ATOM     10  C   UNL     1      86.420  49.360  46.204  0.00  0.00    -0.061 A 
ATOM     11  C   UNL     1      87.219  50.222  46.959  0.00  0.00    -0.062 A 
ATOM     12  C   UNL     1      87.796  51.344  46.359  0.00  0.00    -0.061 A 
ATOM     13  C   UNL     1      87.587  51.597  45.000  0.00  0.00    -0.058 A 
ENDBRANCH   6   8
BRANCH   1  14
ATOM     14  C   UNL     1      85.011  52.895  43.074  0.00  0.00    +0.174 C 
ATOM     15  O   UNL     1      83.979  52.186  42.912  0.00  0.00    -0.291 OA
BRANCH  14  19
ATOM     16  C   UNL     1      84.881  56.360  45.631  0.00  0.00    +0.169 A 
ATOM     17  C   UNL     1      85.084  56.492  44.245  0.00  0.00    +0.026 A 
ATOM     18  C   UNL     1      85.108  55.369  43.413  0.00  0.00    +0.135 A 
ATOM     19  C   UNL     1      84.948  54.081  43.959  0.00  0.00    +0.104 A 
ATOM     20  C   UNL     1      84.732  53.942  45.352  0.00  0.00    +0.176 A 
ATOM     21  C   UNL     1      84.676  55.076  46.177  0.00  0.00    +0.204 A 
BRANCH  16  23
ATOM     22  C   UNL     1      84.253  58.709  46.243  0.00  0.00    +0.079 C 
ATOM     23  O   UNL     1      84.921  57.475  46.484  0.00  0.00    -0.491 OA
ENDBRANCH  16  23
BRANCH  18  24
ATOM     24  O   UNL     1      85.286  55.534  42.036  0.00  0.00    -0.506 OA
ATOM     25  H   UNL     1      84.688  55.135  41.436  0.00  0.00    +0.000 HD
ENDBRANCH  18  24
BRANCH  21  26
ATOM     26  O   UNL     1      84.440  54.878  47.546  0.00  0.00    -0.488 OA
ATOM     27  C   UNL     1      83.205  55.176  48.194  0.00  0.00    +0.079 C 
ENDBRANCH  21  26
BRANCH  20  28
ATOM     28  O   UNL     1      84.565  52.690  45.951  0.00  0.00    -0.503 OA
ATOM     29  H   UNL     1      83.904  52.565  46.603  0.00  0.00    +0.000 HD
ENDBRANCH  20  28
ENDBRANCH  14  19
ENDBRANCH   1  14
BRANCH   5  30
ATOM     30  C   UNL     1      87.566  49.024  41.312  0.00  0.00    -0.027 C 
BRANCH  30  31
ATOM     31  C   UNL     1      88.612  47.995  41.700  0.00  0.00    -0.085 C 
ATOM     32  C   UNL     1      88.372  46.859  42.399  0.00  0.00    -0.080 C 
ATOM     33  C   UNL     1      89.522  45.960  42.784  0.00  0.00    -0.044 C 
ATOM     34  C   UNL     1      86.981  46.435  42.802  0.00  0.00    -0.044 C 
ENDBRANCH  30  31
ENDBRANCH   5  30
TORSDOF 9
ENDMDL
MODEL 8
REMARK VINA RESULT:    -7.991      2.286      5.204
REMARK INTER + INTRA:         -14.087
REMARK INTER:                 -11.957
REMARK INTRA:                  -2.130
REMARK UNBOUND:                -2.360
REMARK  Name = 
REMARK  14 active torsions:
REMARK  status: ('A' for Active; 'I' for Inactive)
REMARK    1  A    between atoms: C_1  and  O_2
REMARK    2  A    between atoms: O_2  and  C_3
REMARK    3  A    between atoms: C_5  and  O_6
REMARK    4  A    between atoms: C_7  and  C_13
REMARK    5  A    between atoms: C_8  and  O_12
REMARK    6  A    between atoms: C_9  and  O_10
REMARK    7  A    between atoms: O_10  and  C_11
REMARK    8  A    between atoms: C_13  and  C_15
REMARK    9  A    between atoms: C_18  and  C_32
REMARK   10  A    between atoms: C_19  and  C_27
REMARK   11  A    between atoms: C_20  and  C_21
REMARK   12  A    between atoms: C_27  and  C_28
REMARK   13  A    between atoms: C_29  and  C_30
REMARK   14  A    between atoms: C_29  and  C_31
REMARK                            x       y       z     vdW  Elec       q    Type
REMARK                         _______ _______ _______ _____ _____    ______ ____
ROOT
ATOM      1  C   UNL     1      86.300  52.913  44.245  0.00  0.00    +0.033 C 
ATOM      2  C   UNL     1      84.997  53.379  44.909  0.00  0.00    -0.024 C 
ATOM      3  C   UNL     1      84.571  54.677  44.292  0.00  0.00    -0.084 C 
ATOM      4  C   UNL     1      84.728  54.910  42.976  0.00  0.00    -0.073 C 
ATOM      5  C   UNL     1      85.270  53.834  42.029  0.00  0.00    -0.009 C 
ATOM      6  C   UNL     1      86.041  52.657  42.735  0.00  0.00    +0.001 C 
ATOM      7  C   UNL     1      84.436  56.291  42.452  0.00  0.00    -0.043 C 
ENDROOT
BRANCH   6   8
ATOM      8  C   UNL     1      87.331  52.322  41.996  0.00  0.00    -0.043 A 
ATOM      9  C   UNL     1      88.483  53.123  42.140  0.00  0.00    -0.058 A 
ATOM     10  C   UNL     1      89.674  52.766  41.505  0.00  0.00    -0.061 A 
ATOM     11  C   UNL     1      89.725  51.631  40.692  0.00  0.00    -0.062 A 
ATOM     12  C   UNL     1      88.581  50.851  40.511  0.00  0.00    -0.061 A 
ATOM     13  C   UNL     1      87.388  51.196  41.154  0.00  0.00    -0.058 A 
ENDBRANCH   6   8
BRANCH   1  14
ATOM     14  C   UNL     1      86.840  51.672  44.928  0.00  0.00    +0.174 C 
ATOM     15  O   UNL     1      87.586  51.788  45.941  0.00  0.00    -0.291 OA
BRANCH  14  19
ATOM     16  C   UNL     1      85.621  47.736  43.672  0.00  0.00    +0.169 A 
ATOM     17  C   UNL     1      84.681  48.663  44.157  0.00  0.00    +0.026 A 
ATOM     18  C   UNL     1      85.074  49.947  44.548  0.00  0.00    +0.135 A 
ATOM     19  C   UNL     1      86.429  50.322  44.478  0.00  0.00    +0.104 A 
ATOM     20  C   UNL     1      87.379  49.397  43.979  0.00  0.00    +0.176 A 
ATOM     21  C   UNL     1      86.972  48.122  43.558  0.00  0.00    +0.204 A 
BRANCH  16  23
ATOM     22  C   UNL     1      85.239  45.325  44.247  0.00  0.00    +0.079 C 
ATOM     23  O   UNL     1      85.247  46.423  43.340  0.00  0.00    -0.491 OA
ENDBRANCH  16  23
BRANCH  18  24
ATOM     24  O   UNL     1      84.113  50.854  45.003  0.00  0.00    -0.506 OA
ATOM     25  H   UNL     1      84.361  51.733  45.210  0.00  0.00    +0.000 HD
ENDBRANCH  18  24
BRANCH  21  26
ATOM     26  O   UNL     1      87.955  47.255  43.055  0.00  0.00    -0.488 OA
ATOM     27  C   UNL     1      88.328  47.186  41.680  0.00  0.00    +0.079 C 
ENDBRANCH  21  26
BRANCH  20  28
ATOM     28  O   UNL     1      88.738  49.714  43.885  0.00  0.00    -0.503 OA
ATOM     29  H   UNL     1      89.134  49.838  43.046  0.00  0.00    +0.000 HD
ENDBRANCH  20  28
ENDBRANCH  14  19
ENDBRANCH   1  14
BRANCH   5  30
ATOM     30  C   UNL     1      84.144  53.309  41.098  0.00  0.00    -0.027 C 
BRANCH  30  31
ATOM     31  C   UNL     1      83.270  52.267  41.770  0.00  0.00    -0.085 C 
ATOM     32  C   UNL     1      81.963  52.431  42.092  0.00  0.00    -0.080 C 
ATOM     33  C   UNL     1      81.232  51.336  42.831  0.00  0.00    -0.044 C 
ATOM     34  C   UNL     1      81.188  53.671  41.724  0.00  0.00    -0.044 C 
ENDBRANCH  30  31
ENDBRANCH   5  30
TORSDOF 9
ENDMDL
MODEL 9
REMARK VINA RESULT:    -7.943      2.465      7.030
REMARK INTER + INTRA:         -14.017
REMARK INTER:                 -11.657
REMARK INTRA:                  -2.360
REMARK UNBOUND:                -2.360
REMARK  Name = 
REMARK  14 active torsions:
REMARK  status: ('A' for Active; 'I' for Inactive)
REMARK    1  A    between atoms: C_1  and  O_2
REMARK    2  A    between atoms: O_2  and  C_3
REMARK    3  A    between atoms: C_5  and  O_6
REMARK    4  A    between atoms: C_7  and  C_13
REMARK    5  A    between atoms: C_8  and  O_12
REMARK    6  A    between atoms: C_9  and  O_10
REMARK    7  A    between atoms: O_10  and  C_11
REMARK    8  A    between atoms: C_13  and  C_15
REMARK    9  A    between atoms: C_18  and  C_32
REMARK   10  A    between atoms: C_19  and  C_27
REMARK   11  A    between atoms: C_20  and  C_21
REMARK   12  A    between atoms: C_27  and  C_28
REMARK   13  A    between atoms: C_29  and  C_30
REMARK   14  A    between atoms: C_29  and  C_31
REMARK                            x       y       z     vdW  Elec       q    Type
REMARK                         _______ _______ _______ _____ _____    ______ ____
ROOT
ATOM      1  C   UNL     1      87.047  51.288  42.737  0.00  0.00    +0.033 C 
ATOM      2  C   UNL     1      87.244  50.986  41.245  0.00  0.00    -0.024 C 
ATOM      3  C   UNL     1      88.643  50.494  41.026  0.00  0.00    -0.084 C 
ATOM      4  C   UNL     1      89.249  49.690  41.918  0.00  0.00    -0.073 C 
ATOM      5  C   UNL     1      88.514  49.168  43.157  0.00  0.00    -0.009 C 
ATOM      6  C   UNL     1      87.221  49.976  43.551  0.00  0.00    +0.001 C 
ATOM      7  C   UNL     1      90.707  49.370  41.722  0.00  0.00    -0.043 C 
ENDROOT
BRANCH   6   8
ATOM      8  C   UNL     1      87.171  50.238  45.051  0.00  0.00    -0.043 A 
ATOM      9  C   UNL     1      87.833  51.345  45.620  0.00  0.00    -0.058 A 
ATOM     10  C   UNL     1      87.725  51.606  46.988  0.00  0.00    -0.061 A 
ATOM     11  C   UNL     1      86.987  50.751  47.810  0.00  0.00    -0.062 A 
ATOM     12  C   UNL     1      86.358  49.629  47.264  0.00  0.00    -0.061 A 
ATOM     13  C   UNL     1      86.452  49.370  45.894  0.00  0.00    -0.058 A 
ENDBRANCH   6   8
BRANCH   1  14
ATOM     14  C   UNL     1      85.689  51.914  42.987  0.00  0.00    +0.174 C 
ATOM     15  O   UNL     1      84.674  51.472  42.380  0.00  0.00    -0.291 OA
BRANCH  14  19
ATOM     16  C   UNL     1      85.149  55.001  45.942  0.00  0.00    +0.169 A 
ATOM     17  C   UNL     1      84.471  53.774  46.048  0.00  0.00    +0.026 A 
ATOM     18  C   UNL     1      84.660  52.764  45.099  0.00  0.00    +0.135 A 
ATOM     19  C   UNL     1      85.523  52.975  44.007  0.00  0.00    +0.104 A 
ATOM     20  C   UNL     1      86.218  54.205  43.901  0.00  0.00    +0.176 A 
ATOM     21  C   UNL     1      86.048  55.201  44.875  0.00  0.00    +0.204 A 
BRANCH  16  23
ATOM     22  C   UNL     1      83.703  56.240  47.575  0.00  0.00    +0.079 C 
ATOM     23  O   UNL     1      84.916  56.045  46.852  0.00  0.00    -0.491 OA
ENDBRANCH  16  23
BRANCH  18  24
ATOM     24  O   UNL     1      83.991  51.546  45.244  0.00  0.00    -0.506 OA
ATOM     25  H   UNL     1      84.377  50.758  44.916  0.00  0.00    +0.000 HD
ENDBRANCH  18  24
BRANCH  21  26
ATOM     26  O   UNL     1      86.778  56.391  44.727  0.00  0.00    -0.488 OA
ATOM     27  C   UNL     1      86.215  57.619  44.270  0.00  0.00    +0.079 C 
ENDBRANCH  21  26
BRANCH  20  28
ATOM     28  O   UNL     1      87.089  54.470  42.839  0.00  0.00    -0.503 OA
ATOM     29  H   UNL     1      87.879  54.951  42.990  0.00  0.00    +0.000 HD
ENDBRANCH  20  28
ENDBRANCH  14  19
ENDBRANCH   1  14
BRANCH   5  30
ATOM     30  C   UNL     1      88.225  47.648  43.022  0.00  0.00    -0.027 C 
BRANCH  30  31
ATOM     31  C   UNL     1      86.740  47.340  42.967  0.00  0.00    -0.085 C 
ATOM     32  C   UNL     1      86.200  46.099  42.893  0.00  0.00    -0.080 C 
ATOM     33  C   UNL     1      84.704  45.942  42.766  0.00  0.00    -0.044 C 
ATOM     34  C   UNL     1      87.038  44.847  42.949  0.00  0.00    -0.044 C 
ENDBRANCH  30  31
ENDBRANCH   5  30
TORSDOF 9
ENDMDL
