=
 OpenBabel08112514243D

 48 53  0  0  1  0  0  0  0  0999 V2000
   85.0080   51.8070   43.7780 C   0  0  0  0  0  0  0  0  0  0  0  0
   84.6200   53.1320   43.4530 C   0  0  0  0  0  0  0  0  0  0  0  0
   83.3210   53.3970   42.9740 C   0  0  0  0  0  0  0  0  0  0  0  0
   82.4090   52.3380   42.7870 C   0  0  0  0  0  0  0  0  0  0  0  0
   82.7790   51.0180   43.1330 C   0  0  0  0  0  0  0  0  0  0  0  0
   84.0820   50.7610   43.6040 C   0  0  0  0  0  0  0  0  0  0  0  0
   84.4680   49.4430   43.9010 O   0  0  0  0  0  0  0  0  0  0  0  0
   83.5420   48.3580   44.0130 C   0  0  1  0  0  3  0  0  0  0  0  0
   82.4440   48.4830   42.9520 C   0  0  0  0  0  2  0  0  0  0  0  0
   81.8590   49.8580   43.0390 C   0  0  0  0  0  0  0  0  0  0  0  0
   80.6090   49.9960   43.1110 O   0  0  0  0  0  0  0  0  0  0  0  0
   84.2700   47.0410   43.8800 C   0  0  0  0  0  0  0  0  0  0  0  0
   83.5510   45.8340   43.8860 C   0  0  0  0  0  3  0  0  0  0  0  0
   84.2190   44.6140   43.7450 C   0  0  0  0  0  3  0  0  0  0  0  0
   85.6070   44.5910   43.5860 C   0  0  0  0  0  3  0  0  0  0  0  0
   86.3290   45.7870   43.5580 C   0  0  0  0  0  3  0  0  0  0  0  0
   85.6640   47.0090   43.6980 C   0  0  0  0  0  3  0  0  0  0  0  0
   85.5090   54.2030   43.5880 O   0  0  0  0  0  0  0  0  0  0  0  0
   85.4920   54.7320   44.3620 H   0  0  0  0  0  0  0  0  0  0  0  0
   81.1600   52.6250   42.2250 O   0  0  0  0  0  0  0  0  0  0  0  0
   80.8130   53.4940   42.2710 H   0  0  0  0  0  0  0  0  0  0  0  0
   86.3910   51.5050   44.3330 C   0  0  0  0  0  2  0  0  0  0  0  0
   87.1950   50.5740   46.5690 C   0  0  0  0  0  0  0  0  0  0  0  0
   87.1960   50.5980   47.9710 C   0  0  0  0  0  3  0  0  0  0  0  0
   86.4400   51.5470   48.6600 C   0  0  0  0  0  3  0  0  0  0  0  0
   85.6790   52.4900   47.9580 C   0  0  0  0  0  0  0  0  0  0  0  0
   85.6790   52.4710   46.5550 C   0  0  0  0  0  3  0  0  0  0  0  0
   86.4090   51.4980   45.8470 C   0  0  0  0  0  0  0  0  0  0  0  0
   87.9830   49.6410   45.8970 O   0  0  0  0  0  0  0  0  0  0  0  0
   88.9080   49.6160   46.0430 H   0  0  0  0  0  0  0  0  0  0  0  0
   84.9150   53.5510   48.7070 C   0  0  0  0  0  2  0  0  0  0  0  0
   84.9290   54.8490   47.9390 C   0  0  0  0  0  0  0  0  0  0  0  0
   86.1110   55.2720   47.3030 C   0  0  0  0  0  3  0  0  0  0  0  0
   86.1310   56.4550   46.5590 C   0  0  0  0  0  3  0  0  0  0  0  0
   84.9710   57.2220   46.4330 C   0  0  0  0  0  3  0  0  0  0  0  0
   83.7880   56.8060   47.0490 C   0  0  0  0  0  3  0  0  0  0  0  0
   83.7570   55.6210   47.8000 C   0  0  0  0  0  0  0  0  0  0  0  0
   82.5680   55.2110   48.4030 O   0  0  0  0  0  0  0  0  0  0  0  0
   82.0640   54.5190   48.0230 H   0  0  0  0  0  0  0  0  0  0  0  0
   82.9320   54.8180   42.6020 C   0  0  0  0  0  2  0  0  0  0  0  0
   83.2000   55.0940   41.1360 C   0  0  0  0  0  0  0  0  0  0  0  0
   84.5340   55.3190   40.7430 C   0  0  0  0  0  3  0  0  0  0  0  0
   84.8510   55.6110   39.4150 C   0  0  0  0  0  3  0  0  0  0  0  0
   83.8420   55.6850   38.4570 C   0  0  0  0  0  3  0  0  0  0  0  0
   82.5160   55.4610   38.8200 C   0  0  0  0  0  3  0  0  0  0  0  0
   82.1780   55.1570   40.1450 C   0  0  0  0  0  0  0  0  0  0  0  0
   80.8280   54.9190   40.4150 O   0  0  0  0  0  0  0  0  0  0  0  0
   80.4010   55.3790   41.1100 H   0  0  0  0  0  0  0  0  0  0  0  0
  1 22  1  0  0  0  0
  2 18  1  0  0  0  0
  2  1  2  0  0  0  0
  3  2  1  0  0  0  0
  4  3  2  0  0  0  0
  4  5  1  0  0  0  0
  5  6  2  0  0  0  0
  6  1  1  0  0  0  0
  6  7  1  0  0  0  0
  7  8  1  0  0  0  0
  8 12  1  6  0  0  0
  9 10  1  0  0  0  0
  9  8  1  0  0  0  0
 10 11  2  0  0  0  0
 10  5  1  0  0  0  0
 12 13  1  0  0  0  0
 14 13  2  0  0  0  0
 15 14  1  0  0  0  0
 16 15  2  0  0  0  0
 16 17  1  0  0  0  0
 17 12  2  0  0  0  0
 18 19  1  0  0  0  0
 20 21  1  0  0  0  0
 20  4  1  0  0  0  0
 22 28  1  0  0  0  0
 23 24  1  0  0  0  0
 24 25  2  0  0  0  0
 26 25  1  0  0  0  0
 26 31  1  0  0  0  0
 27 26  2  0  0  0  0
 28 27  1  0  0  0  0
 28 23  2  0  0  0  0
 29 30  1  0  0  0  0
 29 23  1  0  0  0  0
 32 31  1  0  0  0  0
 33 32  2  0  0  0  0
 34 33  1  0  0  0  0
 35 34  2  0  0  0  0
 35 36  1  0  0  0  0
 36 37  2  0  0  0  0
 37 32  1  0  0  0  0
 37 38  1  0  0  0  0
 39 38  1  0  0  0  0
 40  3  1  0  0  0  0
 41 40  1  0  0  0  0
 42 41  1  0  0  0  0
 43 42  2  0  0  0  0
 44 45  2  0  0  0  0
 44 43  1  0  0  0  0
 45 46  1  0  0  0  0
 46 47  1  0  0  0  0
 46 41  2  0  0  0  0
 47 48  1  0  0  0  0
M  END
>  <MODEL>
1

>  <REMARK>
 VINA RESULT:   -10.910      0.000      0.000
 INTER + INTRA:         -19.469
 INTER:                 -17.181
 INTRA:                  -2.289
 UNBOUND:                -2.501
  Name = 
  12 active torsions:
  status: ('A' for Active; 'I' for Inactive)
    1  A    between atoms: O_1  and  C_2
    2  A    between atoms: C_5  and  C_36
    3  A    between atoms: C_7  and  C_8
    4  A    between atoms: C_8  and  C_9
    5  A    between atoms: C_10  and  O_11
    6  A    between atoms: C_12  and  C_13
    7  A    between atoms: C_13  and  C_14
    8  A    between atoms: C_19  and  O_20
    9  A    between atoms: C_21  and  O_35
   10  A    between atoms: C_25  and  C_29
   11  A    between atoms: C_36  and  C_37
   12  A    between atoms: C_42  and  O_43
                            x       y       z     vdW  Elec       q    Type
                         _______ _______ _______ _____ _____    ______ ____

>  <TORSDO>
F 12

$$$$
=
 OpenBabel08112514243D

 48 53  0  0  1  0  0  0  0  0999 V2000
   86.6810   51.7260   42.6840 C   0  0  0  0  0  0  0  0  0  0  0  0
   87.6070   50.8950   42.0070 C   0  0  0  0  0  0  0  0  0  0  0  0
   88.4900   50.0710   42.7350 C   0  0  0  0  0  0  0  0  0  0  0  0
   88.4740   50.0930   44.1450 C   0  0  0  0  0  0  0  0  0  0  0  0
   87.5350   50.9010   44.8270 C   0  0  0  0  0  0  0  0  0  0  0  0
   86.6610   51.7270   44.0920 C   0  0  0  0  0  0  0  0  0  0  0  0
   85.7620   52.5670   44.7690 O   0  0  0  0  0  0  0  0  0  0  0  0
   85.4780   52.4530   46.1670 C   0  0  1  0  0  3  0  0  0  0  0  0
   86.7560   52.1190   46.9440 C   0  0  0  0  0  2  0  0  0  0  0  0
   87.3990   50.9290   46.3050 C   0  0  0  0  0  0  0  0  0  0  0  0
   87.7360   49.9470   47.0200 O   0  0  0  0  0  0  0  0  0  0  0  0
   84.8600   53.7340   46.6750 C   0  0  0  0  0  0  0  0  0  0  0  0
   84.1170   53.7340   47.8680 C   0  0  0  0  0  3  0  0  0  0  0  0
   83.5590   54.9210   48.3510 C   0  0  0  0  0  3  0  0  0  0  0  0
   83.7460   56.1170   47.6530 C   0  0  0  0  0  3  0  0  0  0  0  0
   84.5000   56.1310   46.4770 C   0  0  0  0  0  3  0  0  0  0  0  0
   85.0610   54.9470   45.9910 C   0  0  0  0  0  3  0  0  0  0  0  0
   87.6810   50.8730   40.6100 O   0  0  0  0  0  0  0  0  0  0  0  0
   88.2260   51.4880   40.1600 H   0  0  0  0  0  0  0  0  0  0  0  0
   89.4240   49.3320   44.8350 O   0  0  0  0  0  0  0  0  0  0  0  0
   89.3380   48.4000   44.8760 H   0  0  0  0  0  0  0  0  0  0  0  0
   85.6930   52.5940   41.9180 C   0  0  0  0  0  2  0  0  0  0  0  0
   83.1940   52.7360   41.4210 C   0  0  0  0  0  0  0  0  0  0  0  0
   81.8770   52.3180   41.6600 C   0  0  0  0  0  3  0  0  0  0  0  0
   81.6130   51.3250   42.6040 C   0  0  0  0  0  3  0  0  0  0  0  0
   82.6610   50.7320   43.3190 C   0  0  0  0  0  0  0  0  0  0  0  0
   83.9810   51.1470   43.0800 C   0  0  0  0  0  3  0  0  0  0  0  0
   84.2580   52.1710   42.1550 C   0  0  0  0  0  0  0  0  0  0  0  0
   83.4420   53.7050   40.4500 O   0  0  0  0  0  0  0  0  0  0  0  0
   82.7640   54.2980   40.1950 H   0  0  0  0  0  0  0  0  0  0  0  0
   82.3750   49.6180   44.2910 C   0  0  0  0  0  2  0  0  0  0  0  0
   83.3690   48.4980   44.1140 C   0  0  0  0  0  0  0  0  0  0  0  0
   84.7010   48.6730   44.5310 C   0  0  0  0  0  3  0  0  0  0  0  0
   85.6260   47.6330   44.4060 C   0  0  0  0  0  3  0  0  0  0  0  0
   85.2300   46.4050   43.8730 C   0  0  0  0  0  3  0  0  0  0  0  0
   83.9080   46.2140   43.4660 C   0  0  0  0  0  3  0  0  0  0  0  0
   82.9710   47.2510   43.5860 C   0  0  0  0  0  0  0  0  0  0  0  0
   81.6500   47.0470   43.1860 O   0  0  0  0  0  0  0  0  0  0  0  0
   81.0340   47.7510   43.2250 H   0  0  0  0  0  0  0  0  0  0  0  0
   89.4980   49.2090   41.9940 C   0  0  0  0  0  2  0  0  0  0  0  0
   89.2790   47.7370   42.2830 C   0  0  0  0  0  0  0  0  0  0  0  0
   88.1460   47.1170   41.7210 C   0  0  0  0  0  3  0  0  0  0  0  0
   87.8640   45.7740   41.9720 C   0  0  0  0  0  3  0  0  0  0  0  0
   88.7080   45.0240   42.7880 C   0  0  0  0  0  3  0  0  0  0  0  0
   89.8390   45.6130   43.3520 C   0  0  0  0  0  3  0  0  0  0  0  0
   90.1440   46.9570   43.1040 C   0  0  0  0  0  0  0  0  0  0  0  0
   91.3120   47.4580   43.6870 O   0  0  0  0  0  0  0  0  0  0  0  0
   92.1420   47.0910   43.4580 H   0  0  0  0  0  0  0  0  0  0  0  0
  1  6  1  0  0  0  0
  2  1  2  0  0  0  0
  2  3  1  0  0  0  0
  3  4  2  0  0  0  0
  4  5  1  0  0  0  0
  4 20  1  0  0  0  0
  5 10  1  0  0  0  0
  6  7  1  0  0  0  0
  6  5  2  0  0  0  0
  7  8  1  0  0  0  0
  8 12  1  1  0  0  0
  8  9  1  0  0  0  0
 10  9  1  0  0  0  0
 10 11  2  0  0  0  0
 12 13  1  0  0  0  0
 13 14  2  0  0  0  0
 15 14  1  0  0  0  0
 16 15  2  0  0  0  0
 17 16  1  0  0  0  0
 17 12  2  0  0  0  0
 18  2  1  0  0  0  0
 19 18  1  0  0  0  0
 20 21  1  0  0  0  0
 22 28  1  0  0  0  0
 22  1  1  0  0  0  0
 23 24  2  0  0  0  0
 23 28  1  0  0  0  0
 24 25  1  0  0  0  0
 25 26  2  0  0  0  0
 26 31  1  0  0  0  0
 27 26  1  0  0  0  0
 28 27  2  0  0  0  0
 29 23  1  0  0  0  0
 30 29  1  0  0  0  0
 32 31  1  0  0  0  0
 32 33  1  0  0  0  0
 34 33  2  0  0  0  0
 35 34  1  0  0  0  0
 36 37  1  0  0  0  0
 36 35  2  0  0  0  0
 37 32  2  0  0  0  0
 38 39  1  0  0  0  0
 38 37  1  0  0  0  0
 40 41  1  0  0  0  0
 40  3  1  0  0  0  0
 41 46  1  0  0  0  0
 42 43  1  0  0  0  0
 42 41  2  0  0  0  0
 43 44  2  0  0  0  0
 44 45  1  0  0  0  0
 46 45  2  0  0  0  0
 46 47  1  0  0  0  0
 48 47  1  0  0  0  0
M  END
>  <MODEL>
2

>  <REMARK>
 VINA RESULT:   -10.830      2.225      8.396
 INTER + INTRA:         -19.345
 INTER:                 -17.351
 INTRA:                  -1.994
 UNBOUND:                -2.501
  Name = 
  12 active torsions:
  status: ('A' for Active; 'I' for Inactive)
    1  A    between atoms: O_1  and  C_2
    2  A    between atoms: C_5  and  C_36
    3  A    between atoms: C_7  and  C_8
    4  A    between atoms: C_8  and  C_9
    5  A    between atoms: C_10  and  O_11
    6  A    between atoms: C_12  and  C_13
    7  A    between atoms: C_13  and  C_14
    8  A    between atoms: C_19  and  O_20
    9  A    between atoms: C_21  and  O_35
   10  A    between atoms: C_25  and  C_29
   11  A    between atoms: C_36  and  C_37
   12  A    between atoms: C_42  and  O_43
                            x       y       z     vdW  Elec       q    Type
                         _______ _______ _______ _____ _____    ______ ____

>  <TORSDO>
F 12

$$$$
=
 OpenBabel08112514243D

 48 53  0  0  1  0  0  0  0  0999 V2000
   86.3660   52.5670   43.4980 C   0  0  0  0  0  0  0  0  0  0  0  0
   87.0680   51.3490   43.3220 C   0  0  0  0  0  0  0  0  0  0  0  0
   87.5320   50.6250   44.4400 C   0  0  0  0  0  0  0  0  0  0  0  0
   87.3240   51.1280   45.7410 C   0  0  0  0  0  0  0  0  0  0  0  0
   86.6010   52.3300   45.9250 C   0  0  0  0  0  0  0  0  0  0  0  0
   86.1480   53.0500   44.8020 C   0  0  0  0  0  0  0  0  0  0  0  0
   85.4740   54.2690   44.9820 O   0  0  0  0  0  0  0  0  0  0  0  0
   84.9720   54.7130   46.2470 C   0  0  1  0  0  3  0  0  0  0  0  0
   85.9550   54.3500   47.3660 C   0  0  0  0  0  2  0  0  0  0  0  0
   86.2730   52.8910   47.2590 C   0  0  0  0  0  0  0  0  0  0  0  0
   86.1760   52.1600   48.2810 O   0  0  0  0  0  0  0  0  0  0  0  0
   84.7260   56.2020   46.2120 C   0  0  0  0  0  0  0  0  0  0  0  0
   85.4310   57.0130   45.3060 C   0  0  0  0  0  3  0  0  0  0  0  0
   85.1930   58.3900   45.2590 C   0  0  0  0  0  3  0  0  0  0  0  0
   84.2440   58.9650   46.1070 C   0  0  0  0  0  3  0  0  0  0  0  0
   83.5220   58.1650   46.9960 C   0  0  0  0  0  3  0  0  0  0  0  0
   83.7560   56.7880   47.0460 C   0  0  0  0  0  3  0  0  0  0  0  0
   87.3290   50.8360   42.0470 O   0  0  0  0  0  0  0  0  0  0  0  0
   86.6520   50.8220   41.4000 H   0  0  0  0  0  0  0  0  0  0  0  0
   87.8760   50.4330   46.8220 O   0  0  0  0  0  0  0  0  0  0  0  0
   88.6050   49.8590   46.6870 H   0  0  0  0  0  0  0  0  0  0  0  0
   85.8240   53.3430   42.3070 C   0  0  0  0  0  2  0  0  0  0  0  0
   83.5230   54.4470   42.2670 C   0  0  0  0  0  0  0  0  0  0  0  0
   82.1270   54.3540   42.1810 C   0  0  0  0  0  3  0  0  0  0  0  0
   81.5110   53.1110   42.0310 C   0  0  0  0  0  3  0  0  0  0  0  0
   82.2820   51.9440   41.9560 C   0  0  0  0  0  0  0  0  0  0  0  0
   83.6800   52.0340   42.0390 C   0  0  0  0  0  3  0  0  0  0  0  0
   84.3120   53.2780   42.2250 C   0  0  0  0  0  0  0  0  0  0  0  0
   84.1220   55.7000   42.3830 O   0  0  0  0  0  0  0  0  0  0  0  0
   84.1360   56.1380   43.2100 H   0  0  0  0  0  0  0  0  0  0  0  0
   81.6150   50.6130   41.7310 C   0  0  0  0  0  2  0  0  0  0  0  0
   80.9670   50.1270   43.0040 C   0  0  0  0  0  0  0  0  0  0  0  0
   79.6080   50.4030   43.2450 C   0  0  0  0  0  3  0  0  0  0  0  0
   78.9840   49.9310   44.4030 C   0  0  0  0  0  3  0  0  0  0  0  0
   79.7050   49.1710   45.3260 C   0  0  0  0  0  3  0  0  0  0  0  0
   81.0510   48.8800   45.0920 C   0  0  0  0  0  3  0  0  0  0  0  0
   81.6880   49.3500   43.9340 C   0  0  0  0  0  0  0  0  0  0  0  0
   83.0300   49.0450   43.7050 O   0  0  0  0  0  0  0  0  0  0  0  0
   83.5690   48.7450   44.4100 H   0  0  0  0  0  0  0  0  0  0  0  0
   88.3100   49.3370   44.2330 C   0  0  0  0  0  2  0  0  0  0  0  0
   87.3860   48.1890   43.8770 C   0  0  0  0  0  0  0  0  0  0  0  0
   87.6850   47.4380   42.7230 C   0  0  0  0  0  3  0  0  0  0  0  0
   86.8600   46.3880   42.3170 C   0  0  0  0  0  3  0  0  0  0  0  0
   85.7230   46.0680   43.0550 C   0  0  0  0  0  3  0  0  0  0  0  0
   85.4090   46.7930   44.2040 C   0  0  0  0  0  3  0  0  0  0  0  0
   86.2290   47.8440   44.6330 C   0  0  0  0  0  0  0  0  0  0  0  0
   85.8550   48.4970   45.8110 O   0  0  0  0  0  0  0  0  0  0  0  0
   84.9510   48.5530   46.0480 H   0  0  0  0  0  0  0  0  0  0  0  0
  1  6  1  0  0  0  0
  2  1  2  0  0  0  0
  2  3  1  0  0  0  0
  3  4  2  0  0  0  0
  4  5  1  0  0  0  0
  4 20  1  0  0  0  0
  5 10  1  0  0  0  0
  6  7  1  0  0  0  0
  6  5  2  0  0  0  0
  7  8  1  0  0  0  0
  8 12  1  6  0  0  0
  8  9  1  0  0  0  0
 10  9  1  0  0  0  0
 10 11  2  0  0  0  0
 12 17  1  0  0  0  0
 13 12  2  0  0  0  0
 14 13  1  0  0  0  0
 14 15  2  0  0  0  0
 15 16  1  0  0  0  0
 16 17  2  0  0  0  0
 18  2  1  0  0  0  0
 19 18  1  0  0  0  0
 21 20  1  0  0  0  0
 22  1  1  0  0  0  0
 23 29  1  0  0  0  0
 24 23  2  0  0  0  0
 25 24  1  0  0  0  0
 26 25  2  0  0  0  0
 26 27  1  0  0  0  0
 27 28  2  0  0  0  0
 28 23  1  0  0  0  0
 28 22  1  0  0  0  0
 29 30  1  0  0  0  0
 31 26  1  0  0  0  0
 31 32  1  0  0  0  0
 32 33  2  0  0  0  0
 32 37  1  0  0  0  0
 33 34  1  0  0  0  0
 34 35  2  0  0  0  0
 36 35  1  0  0  0  0
 37 36  2  0  0  0  0
 38 37  1  0  0  0  0
 38 39  1  0  0  0  0
 40  3  1  0  0  0  0
 41 40  1  0  0  0  0
 41 46  1  0  0  0  0
 42 41  2  0  0  0  0
 43 42  1  0  0  0  0
 43 44  2  0  0  0  0
 44 45  1  0  0  0  0
 45 46  2  0  0  0  0
 46 47  1  0  0  0  0
 47 48  1  0  0  0  0
M  END
>  <MODEL>
3

>  <REMARK>
 VINA RESULT:   -10.666      2.044      8.399
 INTER + INTRA:         -19.090
 INTER:                 -16.428
 INTRA:                  -2.662
 UNBOUND:                -2.501
  Name = 
  12 active torsions:
  status: ('A' for Active; 'I' for Inactive)
    1  A    between atoms: O_1  and  C_2
    2  A    between atoms: C_5  and  C_36
    3  A    between atoms: C_7  and  C_8
    4  A    between atoms: C_8  and  C_9
    5  A    between atoms: C_10  and  O_11
    6  A    between atoms: C_12  and  C_13
    7  A    between atoms: C_13  and  C_14
    8  A    between atoms: C_19  and  O_20
    9  A    between atoms: C_21  and  O_35
   10  A    between atoms: C_25  and  C_29
   11  A    between atoms: C_36  and  C_37
   12  A    between atoms: C_42  and  O_43
                            x       y       z     vdW  Elec       q    Type
                         _______ _______ _______ _____ _____    ______ ____

>  <TORSDO>
F 12

$$$$
=
 OpenBabel08112514243D

 48 53  0  0  1  0  0  0  0  0999 V2000
   84.6500   51.9260   44.6760 C   0  0  0  0  0  0  0  0  0  0  0  0
   85.2760   53.1810   44.4760 C   0  0  0  0  0  0  0  0  0  0  0  0
   84.6820   54.1500   43.6410 C   0  0  0  0  0  0  0  0  0  0  0  0
   83.4720   53.8610   42.9760 C   0  0  0  0  0  0  0  0  0  0  0  0
   82.8280   52.6200   43.1910 C   0  0  0  0  0  0  0  0  0  0  0  0
   83.4330   51.6550   44.0210 C   0  0  0  0  0  0  0  0  0  0  0  0
   82.8190   50.4040   44.1960 O   0  0  0  0  0  0  0  0  0  0  0  0
   81.4730   50.1240   43.8000 C   0  0  1  0  0  3  0  0  0  0  0  0
   81.1560   50.8160   42.4690 C   0  0  0  0  0  2  0  0  0  0  0  0
   81.5180   52.2630   42.5920 C   0  0  0  0  0  0  0  0  0  0  0  0
   80.6790   53.1420   42.2620 O   0  0  0  0  0  0  0  0  0  0  0  0
   81.2650   48.6330   43.6910 C   0  0  0  0  0  0  0  0  0  0  0  0
   82.3310   47.7960   43.3180 C   0  0  0  0  0  3  0  0  0  0  0  0
   82.1470   46.4130   43.2330 C   0  0  0  0  0  3  0  0  0  0  0  0
   80.9020   45.8540   43.5310 C   0  0  0  0  0  3  0  0  0  0  0  0
   79.8410   46.6740   43.9230 C   0  0  0  0  0  3  0  0  0  0  0  0
   80.0210   48.0580   44.0090 C   0  0  0  0  0  3  0  0  0  0  0  0
   86.4960   53.4920   45.0860 O   0  0  0  0  0  0  0  0  0  0  0  0
   86.5590   53.5170   46.0210 H   0  0  0  0  0  0  0  0  0  0  0  0
   82.9570   54.8080   42.0850 O   0  0  0  0  0  0  0  0  0  0  0  0
   82.0540   54.7760   41.8370 H   0  0  0  0  0  0  0  0  0  0  0  0
   85.2540   50.8820   45.6030 C   0  0  0  0  0  2  0  0  0  0  0  0
   87.5940   50.0990   44.9490 C   0  0  0  0  0  0  0  0  0  0  0  0
   88.4360   49.2110   44.2660 C   0  0  0  0  0  3  0  0  0  0  0  0
   87.8990   48.1580   43.5250 C   0  0  0  0  0  3  0  0  0  0  0  0
   86.5120   47.9730   43.4620 C   0  0  0  0  0  0  0  0  0  0  0  0
   85.6660   48.8590   44.1480 C   0  0  0  0  0  3  0  0  0  0  0  0
   86.1930   49.9450   44.8700 C   0  0  0  0  0  0  0  0  0  0  0  0
   88.1500   51.1250   45.7120 O   0  0  0  0  0  0  0  0  0  0  0  0
   88.9920   51.4710   45.4900 H   0  0  0  0  0  0  0  0  0  0  0  0
   85.9410   46.7980   42.7130 C   0  0  0  0  0  2  0  0  0  0  0  0
   86.6540   45.5280   43.1060 C   0  0  0  0  0  0  0  0  0  0  0  0
   87.8030   45.1260   42.4020 C   0  0  0  0  0  3  0  0  0  0  0  0
   88.4950   43.9700   42.7750 C   0  0  0  0  0  3  0  0  0  0  0  0
   88.0530   43.2100   43.8600 C   0  0  0  0  0  3  0  0  0  0  0  0
   86.9200   43.6050   44.5750 C   0  0  0  0  0  3  0  0  0  0  0  0
   86.2170   44.7630   44.2080 C   0  0  0  0  0  0  0  0  0  0  0  0
   85.0930   45.1540   44.9350 O   0  0  0  0  0  0  0  0  0  0  0  0
   85.1940   45.6250   45.7380 H   0  0  0  0  0  0  0  0  0  0  0  0
   85.3820   55.4790   43.4130 C   0  0  0  0  0  2  0  0  0  0  0  0
   85.0290   56.4780   44.4970 C   0  0  0  0  0  0  0  0  0  0  0  0
   84.5280   55.9770   45.7150 C   0  0  0  0  0  3  0  0  0  0  0  0
   84.1530   56.8410   46.7450 C   0  0  0  0  0  3  0  0  0  0  0  0
   84.2700   58.2190   46.5780 C   0  0  0  0  0  3  0  0  0  0  0  0
   84.7680   58.7390   45.3850 C   0  0  0  0  0  3  0  0  0  0  0  0
   85.1600   57.8880   44.3420 C   0  0  0  0  0  0  0  0  0  0  0  0
   85.6740   58.4930   43.1930 O   0  0  0  0  0  0  0  0  0  0  0  0
   85.1040   58.9560   42.6120 H   0  0  0  0  0  0  0  0  0  0  0  0
  1 22  1  0  0  0  0
  2  1  1  0  0  0  0
  2 18  1  0  0  0  0
  3  2  2  0  0  0  0
  4  5  2  0  0  0  0
  4  3  1  0  0  0  0
  5  6  1  0  0  0  0
  6  7  1  0  0  0  0
  6  1  2  0  0  0  0
  8 12  1  6  0  0  0
  8  7  1  0  0  0  0
  9 10  1  0  0  0  0
  9  8  1  0  0  0  0
 10  5  1  0  0  0  0
 11 10  2  0  0  0  0
 12 17  1  0  0  0  0
 13 12  2  0  0  0  0
 14 13  1  0  0  0  0
 14 15  2  0  0  0  0
 15 16  1  0  0  0  0
 16 17  2  0  0  0  0
 18 19  1  0  0  0  0
 20  4  1  0  0  0  0
 21 20  1  0  0  0  0
 23 29  1  0  0  0  0
 24 23  2  0  0  0  0
 25 24  1  0  0  0  0
 26 25  2  0  0  0  0
 26 27  1  0  0  0  0
 27 28  2  0  0  0  0
 28 23  1  0  0  0  0
 28 22  1  0  0  0  0
 30 29  1  0  0  0  0
 31 32  1  0  0  0  0
 31 26  1  0  0  0  0
 32 37  1  0  0  0  0
 33 34  1  0  0  0  0
 33 32  2  0  0  0  0
 34 35  2  0  0  0  0
 35 36  1  0  0  0  0
 37 36  2  0  0  0  0
 37 38  1  0  0  0  0
 38 39  1  0  0  0  0
 40  3  1  0  0  0  0
 40 41  1  0  0  0  0
 41 42  1  0  0  0  0
 42 43  2  0  0  0  0
 44 43  1  0  0  0  0
 45 44  2  0  0  0  0
 46 41  2  0  0  0  0
 46 45  1  0  0  0  0
 47 46  1  0  0  0  0
 48 47  1  0  0  0  0
M  END
>  <MODEL>
4

>  <REMARK>
 VINA RESULT:   -10.453      2.342      6.449
 INTER + INTRA:         -18.759
 INTER:                 -16.279
 INTRA:                  -2.480
 UNBOUND:                -2.501
  Name = 
  12 active torsions:
  status: ('A' for Active; 'I' for Inactive)
    1  A    between atoms: O_1  and  C_2
    2  A    between atoms: C_5  and  C_36
    3  A    between atoms: C_7  and  C_8
    4  A    between atoms: C_8  and  C_9
    5  A    between atoms: C_10  and  O_11
    6  A    between atoms: C_12  and  C_13
    7  A    between atoms: C_13  and  C_14
    8  A    between atoms: C_19  and  O_20
    9  A    between atoms: C_21  and  O_35
   10  A    between atoms: C_25  and  C_29
   11  A    between atoms: C_36  and  C_37
   12  A    between atoms: C_42  and  O_43
                            x       y       z     vdW  Elec       q    Type
                         _______ _______ _______ _____ _____    ______ ____

>  <TORSDO>
F 12

$$$$
=
 OpenBabel08112514243D

 48 53  0  0  1  0  0  0  0  0999 V2000
   84.7790   50.2830   44.3330 C   0  0  0  0  0  0  0  0  0  0  0  0
   86.1580   50.6060   44.2920 C   0  0  0  0  0  0  0  0  0  0  0  0
   87.1050   49.6400   43.8940 C   0  0  0  0  0  0  0  0  0  0  0  0
   86.6850   48.3350   43.5640 C   0  0  0  0  0  0  0  0  0  0  0  0
   85.3080   48.0130   43.5770 C   0  0  0  0  0  0  0  0  0  0  0  0
   84.3690   48.9820   43.9830 C   0  0  0  0  0  0  0  0  0  0  0  0
   83.0060   48.6480   44.0460 O   0  0  0  0  0  0  0  0  0  0  0  0
   82.4590   47.4600   43.4670 C   0  0  1  0  0  3  0  0  0  0  0  0
   83.4190   46.2820   43.6640 C   0  0  0  0  0  2  0  0  0  0  0  0
   84.7730   46.6890   43.1730 C   0  0  0  0  0  0  0  0  0  0  0  0
   85.3900   45.9430   42.3670 O   0  0  0  0  0  0  0  0  0  0  0  0
   81.1110   47.1600   44.0780 C   0  0  0  0  0  0  0  0  0  0  0  0
   80.0070   47.9820   43.7900 C   0  0  0  0  0  3  0  0  0  0  0  0
   78.7540   47.6990   44.3400 C   0  0  0  0  0  3  0  0  0  0  0  0
   78.5900   46.5880   45.1720 C   0  0  0  0  0  3  0  0  0  0  0  0
   79.6750   45.7530   45.4470 C   0  0  0  0  0  3  0  0  0  0  0  0
   80.9310   46.0320   44.8990 C   0  0  0  0  0  3  0  0  0  0  0  0
   86.6190   51.8770   44.6500 O   0  0  0  0  0  0  0  0  0  0  0  0
   87.5250   52.0070   44.8550 H   0  0  0  0  0  0  0  0  0  0  0  0
   87.6580   47.3770   43.2610 O   0  0  0  0  0  0  0  0  0  0  0  0
   88.0400   46.8650   43.9470 H   0  0  0  0  0  0  0  0  0  0  0  0
   83.7370   51.3210   44.7220 C   0  0  0  0  0  2  0  0  0  0  0  0
   82.1990   51.9350   42.7800 C   0  0  0  0  0  0  0  0  0  0  0  0
   81.8630   52.7750   41.7090 C   0  0  0  0  0  3  0  0  0  0  0  0
   82.6440   53.8930   41.4170 C   0  0  0  0  0  3  0  0  0  0  0  0
   83.7700   54.1920   42.1950 C   0  0  0  0  0  0  0  0  0  0  0  0
   84.1080   53.3540   43.2690 C   0  0  0  0  0  3  0  0  0  0  0  0
   83.3490   52.2040   43.5540 C   0  0  0  0  0  0  0  0  0  0  0  0
   81.3880   50.8410   43.0770 O   0  0  0  0  0  0  0  0  0  0  0  0
   80.4640   50.8890   42.9290 H   0  0  0  0  0  0  0  0  0  0  0  0
   84.5730   55.4340   41.9140 C   0  0  0  0  0  2  0  0  0  0  0  0
   85.0180   56.0760   43.2040 C   0  0  0  0  0  0  0  0  0  0  0  0
   84.1360   56.9180   43.9050 C   0  0  0  0  0  3  0  0  0  0  0  0
   84.5210   57.4930   45.1200 C   0  0  0  0  0  3  0  0  0  0  0  0
   85.7830   57.2260   45.6520 C   0  0  0  0  0  3  0  0  0  0  0  0
   86.6640   56.3810   44.9720 C   0  0  0  0  0  3  0  0  0  0  0  0
   86.2890   55.7990   43.7510 C   0  0  0  0  0  0  0  0  0  0  0  0
   87.1710   54.9500   43.0850 O   0  0  0  0  0  0  0  0  0  0  0  0
   86.8450   54.2010   42.6260 H   0  0  0  0  0  0  0  0  0  0  0  0
   88.5830   49.9940   43.8850 C   0  0  0  0  0  2  0  0  0  0  0  0
   88.9910   50.6120   42.5620 C   0  0  0  0  0  0  0  0  0  0  0  0
   88.8620   52.0080   42.4210 C   0  0  0  0  0  3  0  0  0  0  0  0
   89.1890   52.6400   41.2200 C   0  0  0  0  0  3  0  0  0  0  0  0
   89.6490   51.8910   40.1390 C   0  0  0  0  0  3  0  0  0  0  0  0
   89.7900   50.5090   40.2560 C   0  0  0  0  0  3  0  0  0  0  0  0
   89.4770   49.8570   41.4560 C   0  0  0  0  0  0  0  0  0  0  0  0
   89.6750   48.4740   41.4940 O   0  0  0  0  0  0  0  0  0  0  0  0
   89.2090   47.9510   42.1150 H   0  0  0  0  0  0  0  0  0  0  0  0
  1 22  1  0  0  0  0
  2  1  1  0  0  0  0
  2 18  1  0  0  0  0
  3  2  2  0  0  0  0
  4  5  2  0  0  0  0
  4  3  1  0  0  0  0
  5  6  1  0  0  0  0
  6  7  1  0  0  0  0
  6  1  2  0  0  0  0
  8  9  1  0  0  0  0
  8  7  1  0  0  0  0
  8 12  1  1  0  0  0
 10  5  1  0  0  0  0
 10  9  1  0  0  0  0
 11 10  2  0  0  0  0
 12 17  1  0  0  0  0
 13 12  2  0  0  0  0
 13 14  1  0  0  0  0
 14 15  2  0  0  0  0
 15 16  1  0  0  0  0
 17 16  2  0  0  0  0
 18 19  1  0  0  0  0
 20  4  1  0  0  0  0
 20 21  1  0  0  0  0
 23 29  1  0  0  0  0
 23 28  1  0  0  0  0
 24 23  2  0  0  0  0
 25 24  1  0  0  0  0
 25 26  2  0  0  0  0
 26 27  1  0  0  0  0
 27 28  2  0  0  0  0
 28 22  1  0  0  0  0
 30 29  1  0  0  0  0
 31 26  1  0  0  0  0
 31 32  1  0  0  0  0
 32 37  2  0  0  0  0
 32 33  1  0  0  0  0
 33 34  2  0  0  0  0
 34 35  1  0  0  0  0
 36 35  2  0  0  0  0
 37 36  1  0  0  0  0
 38 37  1  0  0  0  0
 39 38  1  0  0  0  0
 40  3  1  0  0  0  0
 41 40  1  0  0  0  0
 42 41  1  0  0  0  0
 43 42  2  0  0  0  0
 44 45  2  0  0  0  0
 44 43  1  0  0  0  0
 45 46  1  0  0  0  0
 46 47  1  0  0  0  0
 46 41  2  0  0  0  0
 47 48  1  0  0  0  0
M  END
>  <MODEL>
5

>  <REMARK>
 VINA RESULT:   -10.438      2.726      5.804
 INTER + INTRA:         -18.736
 INTER:                 -15.832
 INTRA:                  -2.904
 UNBOUND:                -2.501
  Name = 
  12 active torsions:
  status: ('A' for Active; 'I' for Inactive)
    1  A    between atoms: O_1  and  C_2
    2  A    between atoms: C_5  and  C_36
    3  A    between atoms: C_7  and  C_8
    4  A    between atoms: C_8  and  C_9
    5  A    between atoms: C_10  and  O_11
    6  A    between atoms: C_12  and  C_13
    7  A    between atoms: C_13  and  C_14
    8  A    between atoms: C_19  and  O_20
    9  A    between atoms: C_21  and  O_35
   10  A    between atoms: C_25  and  C_29
   11  A    between atoms: C_36  and  C_37
   12  A    between atoms: C_42  and  O_43
                            x       y       z     vdW  Elec       q    Type
                         _______ _______ _______ _____ _____    ______ ____

>  <TORSDO>
F 12

$$$$
=
 OpenBabel08112514243D

 48 53  0  0  1  0  0  0  0  0999 V2000
   83.6320   51.2310   43.8220 C   0  0  0  0  0  0  0  0  0  0  0  0
   83.7350   49.8240   43.6860 C   0  0  0  0  0  0  0  0  0  0  0  0
   84.6650   49.0990   44.4600 C   0  0  0  0  0  0  0  0  0  0  0  0
   85.5200   49.7780   45.3530 C   0  0  0  0  0  0  0  0  0  0  0  0
   85.4050   51.1790   45.5120 C   0  0  0  0  0  0  0  0  0  0  0  0
   84.4780   51.8960   44.7300 C   0  0  0  0  0  0  0  0  0  0  0  0
   84.3980   53.2930   44.8510 O   0  0  0  0  0  0  0  0  0  0  0  0
   85.0120   54.0280   45.9150 C   0  0  1  0  0  3  0  0  0  0  0  0
   86.3820   53.4300   46.2530 C   0  0  0  0  0  2  0  0  0  0  0  0
   86.2120   51.9610   46.4810 C   0  0  0  0  0  0  0  0  0  0  0  0
   86.6850   51.4380   47.5250 O   0  0  0  0  0  0  0  0  0  0  0  0
   85.1410   55.4830   45.5310 C   0  0  0  0  0  0  0  0  0  0  0  0
   85.1520   55.8570   44.1760 C   0  0  0  0  0  3  0  0  0  0  0  0
   85.2540   57.2040   43.8170 C   0  0  0  0  0  3  0  0  0  0  0  0
   85.3360   58.1870   44.8060 C   0  0  0  0  0  3  0  0  0  0  0  0
   85.3050   57.8280   46.1560 C   0  0  0  0  0  3  0  0  0  0  0  0
   85.2020   56.4820   46.5190 C   0  0  0  0  0  3  0  0  0  0  0  0
   82.9320   49.1190   42.7840 O   0  0  0  0  0  0  0  0  0  0  0  0
   82.1590   48.6830   43.0860 H   0  0  0  0  0  0  0  0  0  0  0  0
   86.4920   49.0400   46.0370 O   0  0  0  0  0  0  0  0  0  0  0  0
   86.3900   48.1140   46.1410 H   0  0  0  0  0  0  0  0  0  0  0  0
   82.6090   52.0270   43.0260 C   0  0  0  0  0  2  0  0  0  0  0  0
   82.7330   54.3080   41.8880 C   0  0  0  0  0  0  0  0  0  0  0  0
   83.3670   55.2020   41.0140 C   0  0  0  0  0  3  0  0  0  0  0  0
   84.5370   54.8300   40.3500 C   0  0  0  0  0  3  0  0  0  0  0  0
   85.0940   53.5610   40.5570 C   0  0  0  0  0  0  0  0  0  0  0  0
   84.4630   52.6650   41.4340 C   0  0  0  0  0  3  0  0  0  0  0  0
   83.2640   53.0150   42.0830 C   0  0  0  0  0  0  0  0  0  0  0  0
   81.5840   54.7100   42.5680 O   0  0  0  0  0  0  0  0  0  0  0  0
   81.3560   54.3060   43.3810 H   0  0  0  0  0  0  0  0  0  0  0  0
   86.3900   53.1890   39.8870 C   0  0  0  0  0  2  0  0  0  0  0  0
   87.3180   52.5220   40.8710 C   0  0  0  0  0  0  0  0  0  0  0  0
   87.0740   52.6410   42.2510 C   0  0  0  0  0  3  0  0  0  0  0  0
   87.9040   52.0000   43.1750 C   0  0  0  0  0  3  0  0  0  0  0  0
   88.9780   51.2260   42.7320 C   0  0  0  0  0  3  0  0  0  0  0  0
   89.2230   51.0890   41.3640 C   0  0  0  0  0  3  0  0  0  0  0  0
   88.3970   51.7290   40.4270 C   0  0  0  0  0  0  0  0  0  0  0  0
   88.6450   51.5780   39.0630 O   0  0  0  0  0  0  0  0  0  0  0  0
   88.0560   51.0780   38.5320 H   0  0  0  0  0  0  0  0  0  0  0  0
   84.7830   47.5960   44.2800 C   0  0  0  0  0  2  0  0  0  0  0  0
   86.0250   47.2330   43.4900 C   0  0  0  0  0  0  0  0  0  0  0  0
   86.6230   48.2400   42.7060 C   0  0  0  0  0  3  0  0  0  0  0  0
   87.7490   47.9690   41.9280 C   0  0  0  0  0  3  0  0  0  0  0  0
   88.2990   46.6890   41.9170 C   0  0  0  0  0  3  0  0  0  0  0  0
   87.7290   45.6770   42.6880 C   0  0  0  0  0  3  0  0  0  0  0  0
   86.6040   45.9310   43.4840 C   0  0  0  0  0  0  0  0  0  0  0  0
   86.1160   44.8670   44.2460 O   0  0  0  0  0  0  0  0  0  0  0  0
   85.3150   44.4470   44.0050 H   0  0  0  0  0  0  0  0  0  0  0  0
  1  6  1  0  0  0  0
  2  1  2  0  0  0  0
  2  3  1  0  0  0  0
  3  4  2  0  0  0  0
  4  5  1  0  0  0  0
  4 20  1  0  0  0  0
  5 10  1  0  0  0  0
  6  7  1  0  0  0  0
  6  5  2  0  0  0  0
  7  8  1  0  0  0  0
  8 12  1  6  0  0  0
  8  9  1  0  0  0  0
  9 10  1  0  0  0  0
 10 11  2  0  0  0  0
 12 17  1  0  0  0  0
 13 12  2  0  0  0  0
 14 13  1  0  0  0  0
 14 15  2  0  0  0  0
 15 16  1  0  0  0  0
 16 17  2  0  0  0  0
 18 19  1  0  0  0  0
 18  2  1  0  0  0  0
 20 21  1  0  0  0  0
 22  1  1  0  0  0  0
 23 28  1  0  0  0  0
 23 29  1  0  0  0  0
 24 23  2  0  0  0  0
 25 26  2  0  0  0  0
 25 24  1  0  0  0  0
 26 27  1  0  0  0  0
 27 28  2  0  0  0  0
 28 22  1  0  0  0  0
 29 30  1  0  0  0  0
 31 26  1  0  0  0  0
 31 32  1  0  0  0  0
 32 33  1  0  0  0  0
 33 34  2  0  0  0  0
 35 34  1  0  0  0  0
 36 35  2  0  0  0  0
 37 32  2  0  0  0  0
 37 36  1  0  0  0  0
 38 37  1  0  0  0  0
 39 38  1  0  0  0  0
 40  3  1  0  0  0  0
 41 40  1  0  0  0  0
 42 41  2  0  0  0  0
 43 42  1  0  0  0  0
 44 43  2  0  0  0  0
 44 45  1  0  0  0  0
 45 46  2  0  0  0  0
 46 41  1  0  0  0  0
 46 47  1  0  0  0  0
 48 47  1  0  0  0  0
M  END
>  <MODEL>
6

>  <REMARK>
 VINA RESULT:   -10.418      2.319      8.265
 INTER + INTRA:         -18.705
 INTER:                 -15.618
 INTRA:                  -3.087
 UNBOUND:                -2.501
  Name = 
  12 active torsions:
  status: ('A' for Active; 'I' for Inactive)
    1  A    between atoms: O_1  and  C_2
    2  A    between atoms: C_5  and  C_36
    3  A    between atoms: C_7  and  C_8
    4  A    between atoms: C_8  and  C_9
    5  A    between atoms: C_10  and  O_11
    6  A    between atoms: C_12  and  C_13
    7  A    between atoms: C_13  and  C_14
    8  A    between atoms: C_19  and  O_20
    9  A    between atoms: C_21  and  O_35
   10  A    between atoms: C_25  and  C_29
   11  A    between atoms: C_36  and  C_37
   12  A    between atoms: C_42  and  O_43
                            x       y       z     vdW  Elec       q    Type
                         _______ _______ _______ _____ _____    ______ ____

>  <TORSDO>
F 12

$$$$
=
 OpenBabel08112514243D

 48 53  0  0  1  0  0  0  0  0999 V2000
   85.2250   52.0320   44.2820 C   0  0  0  0  0  0  0  0  0  0  0  0
   84.4260   53.1890   44.4490 C   0  0  0  0  0  0  0  0  0  0  0  0
   84.4110   54.1950   43.4600 C   0  0  0  0  0  0  0  0  0  0  0  0
   85.2190   54.0650   42.3110 C   0  0  0  0  0  0  0  0  0  0  0  0
   86.0000   52.9000   42.1250 C   0  0  0  0  0  0  0  0  0  0  0  0
   86.0140   51.9040   43.1220 C   0  0  0  0  0  0  0  0  0  0  0  0
   86.8270   50.7710   42.9620 O   0  0  0  0  0  0  0  0  0  0  0  0
   87.4520   50.4180   41.7240 C   0  0  1  0  0  3  0  0  0  0  0  0
   87.9520   51.6750   41.0030 C   0  0  0  0  0  2  0  0  0  0  0  0
   86.8190   52.6490   40.9140 C   0  0  0  0  0  0  0  0  0  0  0  0
   86.5350   53.1690   39.8020 O   0  0  0  0  0  0  0  0  0  0  0  0
   88.5890   49.4560   41.9740 C   0  0  0  0  0  0  0  0  0  0  0  0
   89.8090   49.9240   42.4920 C   0  0  0  0  0  3  0  0  0  0  0  0
   90.8580   49.0340   42.7410 C   0  0  0  0  0  3  0  0  0  0  0  0
   90.6930   47.6700   42.4860 C   0  0  0  0  0  3  0  0  0  0  0  0
   89.4770   47.1910   41.9910 C   0  0  0  0  0  3  0  0  0  0  0  0
   88.4260   48.0780   41.7410 C   0  0  0  0  0  3  0  0  0  0  0  0
   83.6410   53.3740   45.5920 O   0  0  0  0  0  0  0  0  0  0  0  0
   82.7090   53.4420   45.5150 H   0  0  0  0  0  0  0  0  0  0  0  0
   85.2500   55.1220   41.3940 O   0  0  0  0  0  0  0  0  0  0  0  0
   84.7180   55.0890   40.6240 H   0  0  0  0  0  0  0  0  0  0  0  0
   85.2260   50.9180   45.3180 C   0  0  0  0  0  2  0  0  0  0  0  0
   86.0500   48.5830   44.6970 C   0  0  0  0  0  0  0  0  0  0  0  0
   85.8320   47.3280   44.1120 C   0  0  0  0  0  3  0  0  0  0  0  0
   84.5970   47.0210   43.5410 C   0  0  0  0  0  3  0  0  0  0  0  0
   83.5590   47.9620   43.5530 C   0  0  0  0  0  0  0  0  0  0  0  0
   83.7740   49.2190   44.1400 C   0  0  0  0  0  3  0  0  0  0  0  0
   85.0260   49.5540   44.6880 C   0  0  0  0  0  0  0  0  0  0  0  0
   87.2800   48.8600   45.2920 O   0  0  0  0  0  0  0  0  0  0  0  0
   87.3620   48.8520   46.2250 H   0  0  0  0  0  0  0  0  0  0  0  0
   82.2090   47.6030   42.9910 C   0  0  0  0  0  2  0  0  0  0  0  0
   81.1120   48.1810   43.8500 C   0  0  0  0  0  0  0  0  0  0  0  0
   80.4670   49.3670   43.4530 C   0  0  0  0  0  3  0  0  0  0  0  0
   79.4250   49.8970   44.2190 C   0  0  0  0  0  3  0  0  0  0  0  0
   79.0090   49.2450   45.3810 C   0  0  0  0  0  3  0  0  0  0  0  0
   79.6330   48.0600   45.7790 C   0  0  0  0  0  3  0  0  0  0  0  0
   80.6810   47.5190   45.0190 C   0  0  0  0  0  0  0  0  0  0  0  0
   81.2900   46.3310   45.4190 O   0  0  0  0  0  0  0  0  0  0  0  0
   82.2030   46.3190   45.6290 H   0  0  0  0  0  0  0  0  0  0  0  0
   83.5720   55.4440   43.6690 C   0  0  0  0  0  2  0  0  0  0  0  0
   84.2660   56.4220   44.5960 C   0  0  0  0  0  0  0  0  0  0  0  0
   84.1880   56.1830   45.9820 C   0  0  0  0  0  3  0  0  0  0  0  0
   84.7750   57.0600   46.8950 C   0  0  0  0  0  3  0  0  0  0  0  0
   85.4500   58.1910   46.4420 C   0  0  0  0  0  3  0  0  0  0  0  0
   85.5450   58.4470   45.0750 C   0  0  0  0  0  3  0  0  0  0  0  0
   84.9710   57.5740   44.1420 C   0  0  0  0  0  0  0  0  0  0  0  0
   85.1400   57.8930   42.7920 O   0  0  0  0  0  0  0  0  0  0  0  0
   85.0670   58.7810   42.5080 H   0  0  0  0  0  0  0  0  0  0  0  0
  1  2  1  0  0  0  0
  1 22  1  0  0  0  0
  2 18  1  0  0  0  0
  3 40  1  0  0  0  0
  3  2  2  0  0  0  0
  4  3  1  0  0  0  0
  5  4  2  0  0  0  0
  5  6  1  0  0  0  0
  6  1  2  0  0  0  0
  7  6  1  0  0  0  0
  8 12  1  1  0  0  0
  8  7  1  0  0  0  0
  9  8  1  0  0  0  0
 10  9  1  0  0  0  0
 10  5  1  0  0  0  0
 11 10  2  0  0  0  0
 12 13  1  0  0  0  0
 13 14  2  0  0  0  0
 15 14  1  0  0  0  0
 16 15  2  0  0  0  0
 17 12  2  0  0  0  0
 17 16  1  0  0  0  0
 19 18  1  0  0  0  0
 20  4  1  0  0  0  0
 21 20  1  0  0  0  0
 23 29  1  0  0  0  0
 24 23  2  0  0  0  0
 25 26  2  0  0  0  0
 25 24  1  0  0  0  0
 26 27  1  0  0  0  0
 27 28  2  0  0  0  0
 28 23  1  0  0  0  0
 28 22  1  0  0  0  0
 29 30  1  0  0  0  0
 31 26  1  0  0  0  0
 31 32  1  0  0  0  0
 32 37  1  0  0  0  0
 33 32  2  0  0  0  0
 33 34  1  0  0  0  0
 34 35  2  0  0  0  0
 35 36  1  0  0  0  0
 37 38  1  0  0  0  0
 37 36  2  0  0  0  0
 38 39  1  0  0  0  0
 40 41  1  0  0  0  0
 41 42  1  0  0  0  0
 42 43  2  0  0  0  0
 44 43  1  0  0  0  0
 45 44  2  0  0  0  0
 46 41  2  0  0  0  0
 46 45  1  0  0  0  0
 47 46  1  0  0  0  0
 48 47  1  0  0  0  0
M  END
>  <MODEL>
7

>  <REMARK>
 VINA RESULT:   -10.273      2.686      6.105
 INTER + INTRA:         -18.479
 INTER:                 -16.684
 INTRA:                  -1.796
 UNBOUND:                -2.501
  Name = 
  12 active torsions:
  status: ('A' for Active; 'I' for Inactive)
    1  A    between atoms: O_1  and  C_2
    2  A    between atoms: C_5  and  C_36
    3  A    between atoms: C_7  and  C_8
    4  A    between atoms: C_8  and  C_9
    5  A    between atoms: C_10  and  O_11
    6  A    between atoms: C_12  and  C_13
    7  A    between atoms: C_13  and  C_14
    8  A    between atoms: C_19  and  O_20
    9  A    between atoms: C_21  and  O_35
   10  A    between atoms: C_25  and  C_29
   11  A    between atoms: C_36  and  C_37
   12  A    between atoms: C_42  and  O_43
                            x       y       z     vdW  Elec       q    Type
                         _______ _______ _______ _____ _____    ______ ____

>  <TORSDO>
F 12

$$$$
=
 OpenBabel08112514243D

 48 53  0  0  1  0  0  0  0  0999 V2000
   85.6440   51.4400   43.3180 C   0  0  0  0  0  0  0  0  0  0  0  0
   85.1720   52.7710   43.2000 C   0  0  0  0  0  0  0  0  0  0  0  0
   85.6750   53.6190   42.1920 C   0  0  0  0  0  0  0  0  0  0  0  0
   86.6750   53.1540   41.3140 C   0  0  0  0  0  0  0  0  0  0  0  0
   87.1320   51.8190   41.4090 C   0  0  0  0  0  0  0  0  0  0  0  0
   86.6290   50.9800   42.4240 C   0  0  0  0  0  0  0  0  0  0  0  0
   87.1190   49.6700   42.5510 O   0  0  0  0  0  0  0  0  0  0  0  0
   87.9110   49.0240   41.5500 C   0  0  1  0  0  3  0  0  0  0  0  0
   88.8940   50.0200   40.9250 C   0  0  0  0  0  2  0  0  0  0  0  0
   88.1260   51.2250   40.4800 C   0  0  0  0  0  0  0  0  0  0  0  0
   88.2780   51.6580   39.3070 O   0  0  0  0  0  0  0  0  0  0  0  0
   88.6460   47.8500   42.1500 C   0  0  0  0  0  0  0  0  0  0  0  0
   88.0470   46.5780   42.1720 C   0  0  0  0  0  3  0  0  0  0  0  0
   88.7310   45.4850   42.7110 C   0  0  0  0  0  3  0  0  0  0  0  0
   90.0210   45.6500   43.2210 C   0  0  0  0  0  3  0  0  0  0  0  0
   90.6340   46.9050   43.1850 C   0  0  0  0  0  3  0  0  0  0  0  0
   89.9540   48.0010   42.6460 C   0  0  0  0  0  3  0  0  0  0  0  0
   84.2090   53.2820   44.0760 O   0  0  0  0  0  0  0  0  0  0  0  0
   83.3130   53.3430   43.8050 H   0  0  0  0  0  0  0  0  0  0  0  0
   87.2170   54.0490   40.3850 O   0  0  0  0  0  0  0  0  0  0  0  0
   88.0490   54.4480   40.5490 H   0  0  0  0  0  0  0  0  0  0  0  0
   85.0860   50.4960   44.3730 C   0  0  0  0  0  2  0  0  0  0  0  0
   86.7740   49.7540   46.1380 C   0  0  0  0  0  0  0  0  0  0  0  0
   87.4030   49.9380   47.3770 C   0  0  0  0  0  3  0  0  0  0  0  0
   87.0720   51.0280   48.1820 C   0  0  0  0  0  3  0  0  0  0  0  0
   86.1110   51.9550   47.7570 C   0  0  0  0  0  0  0  0  0  0  0  0
   85.4810   51.7750   46.5150 C   0  0  0  0  0  3  0  0  0  0  0  0
   85.7810   50.6610   45.7090 C   0  0  0  0  0  0  0  0  0  0  0  0
   87.1420   48.6770   45.3330 O   0  0  0  0  0  0  0  0  0  0  0  0
   87.1450   47.8090   45.6840 H   0  0  0  0  0  0  0  0  0  0  0  0
   85.8040   53.1630   48.6010 C   0  0  0  0  0  2  0  0  0  0  0  0
   85.6140   54.3790   47.7290 C   0  0  0  0  0  0  0  0  0  0  0  0
   86.5270   54.6450   46.6920 C   0  0  0  0  0  3  0  0  0  0  0  0
   86.3460   55.7480   45.8530 C   0  0  0  0  0  3  0  0  0  0  0  0
   85.2480   56.5910   46.0330 C   0  0  0  0  0  3  0  0  0  0  0  0
   84.3270   56.3310   47.0510 C   0  0  0  0  0  3  0  0  0  0  0  0
   84.5000   55.2270   47.9010 C   0  0  0  0  0  0  0  0  0  0  0  0
   83.5700   54.9720   48.9080 O   0  0  0  0  0  0  0  0  0  0  0  0
   83.7810   54.3790   49.6020 H   0  0  0  0  0  0  0  0  0  0  0  0
   85.1800   55.0530   42.0990 C   0  0  0  0  0  2  0  0  0  0  0  0
   83.9750   55.1590   41.1860 C   0  0  0  0  0  0  0  0  0  0  0  0
   82.7170   54.8080   41.7140 C   0  0  0  0  0  3  0  0  0  0  0  0
   81.5690   54.8520   40.9210 C   0  0  0  0  0  3  0  0  0  0  0  0
   81.6560   55.2450   39.5880 C   0  0  0  0  0  3  0  0  0  0  0  0
   82.8880   55.6020   39.0430 C   0  0  0  0  0  3  0  0  0  0  0  0
   84.0510   55.5750   39.8250 C   0  0  0  0  0  0  0  0  0  0  0  0
   85.2380   55.9760   39.2060 O   0  0  0  0  0  0  0  0  0  0  0  0
   85.2070   56.4880   38.4230 H   0  0  0  0  0  0  0  0  0  0  0  0
  1 22  1  0  0  0  0
  2  1  1  0  0  0  0
  2 18  1  0  0  0  0
  3  2  2  0  0  0  0
  4  5  2  0  0  0  0
  4  3  1  0  0  0  0
  5  6  1  0  0  0  0
  6  7  1  0  0  0  0
  6  1  2  0  0  0  0
  8 12  1  1  0  0  0
  8  7  1  0  0  0  0
  9  8  1  0  0  0  0
 10  9  1  0  0  0  0
 10  5  1  0  0  0  0
 11 10  2  0  0  0  0
 12 13  2  0  0  0  0
 12 17  1  0  0  0  0
 13 14  1  0  0  0  0
 14 15  2  0  0  0  0
 16 15  1  0  0  0  0
 17 16  2  0  0  0  0
 19 18  1  0  0  0  0
 20 21  1  0  0  0  0
 20  4  1  0  0  0  0
 22 28  1  0  0  0  0
 23 24  1  0  0  0  0
 24 25  2  0  0  0  0
 26 25  1  0  0  0  0
 26 31  1  0  0  0  0
 27 26  2  0  0  0  0
 28 23  2  0  0  0  0
 28 27  1  0  0  0  0
 29 30  1  0  0  0  0
 29 23  1  0  0  0  0
 32 37  1  0  0  0  0
 32 31  1  0  0  0  0
 33 32  2  0  0  0  0
 34 35  2  0  0  0  0
 34 33  1  0  0  0  0
 35 36  1  0  0  0  0
 36 37  2  0  0  0  0
 37 38  1  0  0  0  0
 38 39  1  0  0  0  0
 40  3  1  0  0  0  0
 41 42  1  0  0  0  0
 41 40  1  0  0  0  0
 43 42  2  0  0  0  0
 44 43  1  0  0  0  0
 45 44  2  0  0  0  0
 45 46  1  0  0  0  0
 46 41  2  0  0  0  0
 47 46  1  0  0  0  0
 48 47  1  0  0  0  0
M  END
>  <MODEL>
8

>  <REMARK>
 VINA RESULT:   -10.208      2.430      3.453
 INTER + INTRA:         -18.378
 INTER:                 -15.415
 INTRA:                  -2.963
 UNBOUND:                -2.501
  Name = 
  12 active torsions:
  status: ('A' for Active; 'I' for Inactive)
    1  A    between atoms: O_1  and  C_2
    2  A    between atoms: C_5  and  C_36
    3  A    between atoms: C_7  and  C_8
    4  A    between atoms: C_8  and  C_9
    5  A    between atoms: C_10  and  O_11
    6  A    between atoms: C_12  and  C_13
    7  A    between atoms: C_13  and  C_14
    8  A    between atoms: C_19  and  O_20
    9  A    between atoms: C_21  and  O_35
   10  A    between atoms: C_25  and  C_29
   11  A    between atoms: C_36  and  C_37
   12  A    between atoms: C_42  and  O_43
                            x       y       z     vdW  Elec       q    Type
                         _______ _______ _______ _____ _____    ______ ____

>  <TORSDO>
F 12

$$$$
=
 OpenBabel08112514243D

 48 53  0  0  1  0  0  0  0  0999 V2000
   86.2040   52.4960   43.7200 C   0  0  0  0  0  0  0  0  0  0  0  0
   86.4140   53.7590   44.3260 C   0  0  0  0  0  0  0  0  0  0  0  0
   86.6670   53.8520   45.7110 C   0  0  0  0  0  0  0  0  0  0  0  0
   86.6830   52.6860   46.5040 C   0  0  0  0  0  0  0  0  0  0  0  0
   86.5000   51.4200   45.9010 C   0  0  0  0  0  0  0  0  0  0  0  0
   86.2410   51.3370   44.5190 C   0  0  0  0  0  0  0  0  0  0  0  0
   86.0090   50.0840   43.9280 O   0  0  0  0  0  0  0  0  0  0  0  0
   86.2810   48.8410   44.5830 C   0  0  1  0  0  3  0  0  0  0  0  0
   85.9110   48.9310   46.0670 C   0  0  0  0  0  2  0  0  0  0  0  0
   86.5750   50.1400   46.6480 C   0  0  0  0  0  0  0  0  0  0  0  0
   87.2480   50.0280   47.7070 O   0  0  0  0  0  0  0  0  0  0  0  0
   85.5240   47.7240   43.9070 C   0  0  0  0  0  0  0  0  0  0  0  0
   86.2040   46.5740   43.4690 C   0  0  0  0  0  3  0  0  0  0  0  0
   85.5040   45.5300   42.8590 C   0  0  0  0  0  3  0  0  0  0  0  0
   84.1200   45.6200   42.6900 C   0  0  0  0  0  3  0  0  0  0  0  0
   83.4310   46.7490   43.1400 C   0  0  0  0  0  3  0  0  0  0  0  0
   84.1280   47.7960   43.7520 C   0  0  0  0  0  3  0  0  0  0  0  0
   86.3680   54.9410   43.5810 O   0  0  0  0  0  0  0  0  0  0  0  0
   85.6040   55.4840   43.6100 H   0  0  0  0  0  0  0  0  0  0  0  0
   86.8460   52.8220   47.8870 O   0  0  0  0  0  0  0  0  0  0  0  0
   87.1380   52.0930   48.3980 H   0  0  0  0  0  0  0  0  0  0  0  0
   85.9690   52.3700   42.2220 C   0  0  0  0  0  2  0  0  0  0  0  0
   87.4550   52.6570   40.1670 C   0  0  0  0  0  0  0  0  0  0  0  0
   88.6600   52.4220   39.4920 C   0  0  0  0  0  3  0  0  0  0  0  0
   89.6780   51.6860   40.1000 C   0  0  0  0  0  3  0  0  0  0  0  0
   89.5080   51.1810   41.3960 C   0  0  0  0  0  0  0  0  0  0  0  0
   88.3030   51.4180   42.0760 C   0  0  0  0  0  3  0  0  0  0  0  0
   87.2560   52.1280   41.4610 C   0  0  0  0  0  0  0  0  0  0  0  0
   86.4630   53.4230   39.5570 O   0  0  0  0  0  0  0  0  0  0  0  0
   85.6520   53.0260   39.3070 H   0  0  0  0  0  0  0  0  0  0  0  0
   90.6330   50.4430   42.0700 C   0  0  0  0  0  2  0  0  0  0  0  0
   90.2760   48.9880   42.2470 C   0  0  0  0  0  0  0  0  0  0  0  0
   89.3430   48.3880   41.3820 C   0  0  0  0  0  3  0  0  0  0  0  0
   89.0270   47.0330   41.5100 C   0  0  0  0  0  3  0  0  0  0  0  0
   89.6440   46.2610   42.4960 C   0  0  0  0  0  3  0  0  0  0  0  0
   90.5810   46.8420   43.3540 C   0  0  0  0  0  3  0  0  0  0  0  0
   90.9050   48.2020   43.2350 C   0  0  0  0  0  0  0  0  0  0  0  0
   91.8490   48.7690   44.0900 O   0  0  0  0  0  0  0  0  0  0  0  0
   92.4210   49.4420   43.7770 H   0  0  0  0  0  0  0  0  0  0  0  0
   86.8590   55.2170   46.3500 C   0  0  0  0  0  2  0  0  0  0  0  0
   85.5280   55.8530   46.6960 C   0  0  0  0  0  0  0  0  0  0  0  0
   84.7590   55.2580   47.7150 C   0  0  0  0  0  3  0  0  0  0  0  0
   83.5090   55.7710   48.0640 C   0  0  0  0  0  3  0  0  0  0  0  0
   83.0030   56.8880   47.4010 C   0  0  0  0  0  3  0  0  0  0  0  0
   83.7470   57.4980   46.3930 C   0  0  0  0  0  3  0  0  0  0  0  0
   85.0080   57.0040   46.0350 C   0  0  0  0  0  0  0  0  0  0  0  0
   85.6970   57.6940   45.0340 O   0  0  0  0  0  0  0  0  0  0  0  0
   86.2120   58.4440   45.2530 H   0  0  0  0  0  0  0  0  0  0  0  0
  1  2  2  0  0  0  0
  1  6  1  0  0  0  0
  2  3  1  0  0  0  0
  3 40  1  0  0  0  0
  3  4  2  0  0  0  0
  4 20  1  0  0  0  0
  5  4  1  0  0  0  0
  5 10  1  0  0  0  0
  6  5  2  0  0  0  0
  7  6  1  0  0  0  0
  7  8  1  0  0  0  0
  8 12  1  6  0  0  0
  8  9  1  0  0  0  0
  9 10  1  0  0  0  0
 10 11  2  0  0  0  0
 13 12  2  0  0  0  0
 14 13  1  0  0  0  0
 15 14  2  0  0  0  0
 15 16  1  0  0  0  0
 16 17  2  0  0  0  0
 17 12  1  0  0  0  0
 18 19  1  0  0  0  0
 18  2  1  0  0  0  0
 20 21  1  0  0  0  0
 22  1  1  0  0  0  0
 23 28  1  0  0  0  0
 24 25  1  0  0  0  0
 24 23  2  0  0  0  0
 25 26  2  0  0  0  0
 26 31  1  0  0  0  0
 26 27  1  0  0  0  0
 28 27  2  0  0  0  0
 28 22  1  0  0  0  0
 29 23  1  0  0  0  0
 30 29  1  0  0  0  0
 31 32  1  0  0  0  0
 32 37  1  0  0  0  0
 33 34  1  0  0  0  0
 33 32  2  0  0  0  0
 34 35  2  0  0  0  0
 35 36  1  0  0  0  0
 37 36  2  0  0  0  0
 37 38  1  0  0  0  0
 39 38  1  0  0  0  0
 40 41  1  0  0  0  0
 41 42  1  0  0  0  0
 42 43  2  0  0  0  0
 44 43  1  0  0  0  0
 45 44  2  0  0  0  0
 46 45  1  0  0  0  0
 46 41  2  0  0  0  0
 47 48  1  0  0  0  0
 47 46  1  0  0  0  0
M  END
>  <MODEL>
9

>  <REMARK>
 VINA RESULT:   -10.147      2.900      7.010
 INTER + INTRA:         -18.284
 INTER:                 -15.783
 INTRA:                  -2.501
 UNBOUND:                -2.501
  Name = 
  12 active torsions:
  status: ('A' for Active; 'I' for Inactive)
    1  A    between atoms: O_1  and  C_2
    2  A    between atoms: C_5  and  C_36
    3  A    between atoms: C_7  and  C_8
    4  A    between atoms: C_8  and  C_9
    5  A    between atoms: C_10  and  O_11
    6  A    between atoms: C_12  and  C_13
    7  A    between atoms: C_13  and  C_14
    8  A    between atoms: C_19  and  O_20
    9  A    between atoms: C_21  and  O_35
   10  A    between atoms: C_25  and  C_29
   11  A    between atoms: C_36  and  C_37
   12  A    between atoms: C_42  and  O_43
                            x       y       z     vdW  Elec       q    Type
                         _______ _______ _______ _____ _____    ______ ____

>  <TORSDO>
F 12

$$$$
