MODEL 1
REMARK VINA RESULT:   -10.910      0.000      0.000
REMARK INTER + INTRA:         -19.469
REMARK INTER:                 -17.181
REMARK INTRA:                  -2.289
REMARK UNBOUND:                -2.501
REMARK  Name = 
REMARK  12 active torsions:
REMARK  status: ('A' for Active; 'I' for Inactive)
REMARK    1  A    between atoms: O_1  and  C_2
REMARK    2  A    between atoms: C_5  and  C_36
REMARK    3  A    between atoms: C_7  and  C_8
REMARK    4  A    between atoms: C_8  and  C_9
REMARK    5  A    between atoms: C_10  and  O_11
REMARK    6  A    between atoms: C_12  and  C_13
REMARK    7  A    between atoms: C_13  and  C_14
REMARK    8  A    between atoms: C_19  and  O_20
REMARK    9  A    between atoms: C_21  and  O_35
REMARK   10  A    between atoms: C_25  and  C_29
REMARK   11  A    between atoms: C_36  and  C_37
REMARK   12  A    between atoms: C_42  and  O_43
REMARK                            x       y       z     vdW  Elec       q    Type
REMARK                         _______ _______ _______ _____ _____    ______ ____
ROOT
ATOM      1  C   UNL     1      85.008  51.807  43.778  0.00  0.00    +0.041 A 
ATOM      2  C   UNL     1      84.620  53.132  43.453  0.00  0.00    +0.131 A 
ATOM      3  C   UNL     1      83.321  53.397  42.974  0.00  0.00    +0.041 A 
ATOM      4  C   UNL     1      82.409  52.338  42.787  0.00  0.00    +0.138 A 
ATOM      5  C   UNL     1      82.779  51.018  43.133  0.00  0.00    +0.101 A 
ATOM      6  C   UNL     1      84.082  50.761  43.604  0.00  0.00    +0.142 A 
ATOM      7  O   UNL     1      84.468  49.443  43.901  0.00  0.00    -0.483 OA
ATOM      8  C   UNL     1      83.542  48.358  44.013  0.00  0.00    +0.132 C 
ATOM      9  C   UNL     1      82.444  48.483  42.952  0.00  0.00    +0.052 C 
ATOM     10  C   UNL     1      81.859  49.858  43.039  0.00  0.00    +0.174 C 
ATOM     11  O   UNL     1      80.609  49.996  43.111  0.00  0.00    -0.292 OA
ENDROOT
BRANCH   8  12
ATOM     12  C   UNL     1      84.270  47.041  43.880  0.00  0.00    -0.007 A 
ATOM     13  C   UNL     1      83.551  45.834  43.886  0.00  0.00    -0.055 A 
ATOM     14  C   UNL     1      84.219  44.614  43.745  0.00  0.00    -0.061 A 
ATOM     15  C   UNL     1      85.607  44.591  43.586  0.00  0.00    -0.062 A 
ATOM     16  C   UNL     1      86.329  45.787  43.558  0.00  0.00    -0.061 A 
ATOM     17  C   UNL     1      85.664  47.009  43.698  0.00  0.00    -0.055 A 
ENDBRANCH   8  12
BRANCH   2  18
ATOM     18  O   UNL     1      85.509  54.203  43.588  0.00  0.00    -0.506 OA
ATOM     19  H   UNL     1      85.492  54.732  44.362  0.00  0.00    +0.000 HD
ENDBRANCH   2  18
BRANCH   4  20
ATOM     20  O   UNL     1      81.160  52.625  42.225  0.00  0.00    -0.506 OA
ATOM     21  H   UNL     1      80.813  53.494  42.271  0.00  0.00    +0.000 HD
ENDBRANCH   4  20
BRANCH   1  22
ATOM     22  C   UNL     1      86.391  51.505  44.333  0.00  0.00    +0.008 C 
BRANCH  22  28
ATOM     23  C   UNL     1      87.195  50.574  46.569  0.00  0.00    +0.120 A 
ATOM     24  C   UNL     1      87.196  50.598  47.971  0.00  0.00    -0.020 A 
ATOM     25  C   UNL     1      86.440  51.547  48.660  0.00  0.00    -0.055 A 
ATOM     26  C   UNL     1      85.679  52.490  47.958  0.00  0.00    -0.042 A 
ATOM     27  C   UNL     1      85.679  52.471  46.555  0.00  0.00    -0.051 A 
ATOM     28  C   UNL     1      86.409  51.498  45.847  0.00  0.00    -0.001 A 
BRANCH  23  29
ATOM     29  O   UNL     1      87.983  49.641  45.897  0.00  0.00    -0.506 OA
ATOM     30  H   UNL     1      88.908  49.616  46.043  0.00  0.00    +0.000 HD
ENDBRANCH  23  29
BRANCH  26  31
ATOM     31  C   UNL     1      84.915  53.551  48.707  0.00  0.00    +0.001 C 
BRANCH  31  32
ATOM     32  C   UNL     1      84.929  54.849  47.939  0.00  0.00    -0.002 A 
ATOM     33  C   UNL     1      86.111  55.272  47.303  0.00  0.00    -0.055 A 
ATOM     34  C   UNL     1      86.131  56.455  46.559  0.00  0.00    -0.061 A 
ATOM     35  C   UNL     1      84.971  57.222  46.433  0.00  0.00    -0.058 A 
ATOM     36  C   UNL     1      83.788  56.806  47.049  0.00  0.00    -0.020 A 
ATOM     37  C   UNL     1      83.757  55.621  47.800  0.00  0.00    +0.120 A 
BRANCH  37  38
ATOM     38  O   UNL     1      82.568  55.211  48.403  0.00  0.00    -0.506 OA
ATOM     39  H   UNL     1      82.064  54.519  48.023  0.00  0.00    +0.000 HD
ENDBRANCH  37  38
ENDBRANCH  31  32
ENDBRANCH  26  31
ENDBRANCH  22  28
ENDBRANCH   1  22
BRANCH   3  40
ATOM     40  C   UNL     1      82.932  54.818  42.602  0.00  0.00    +0.008 C 
BRANCH  40  41
ATOM     41  C   UNL     1      83.200  55.094  41.136  0.00  0.00    -0.001 A 
ATOM     42  C   UNL     1      84.534  55.319  40.743  0.00  0.00    -0.055 A 
ATOM     43  C   UNL     1      84.851  55.611  39.415  0.00  0.00    -0.061 A 
ATOM     44  C   UNL     1      83.842  55.685  38.457  0.00  0.00    -0.058 A 
ATOM     45  C   UNL     1      82.516  55.461  38.820  0.00  0.00    -0.020 A 
ATOM     46  C   UNL     1      82.178  55.157  40.145  0.00  0.00    +0.120 A 
BRANCH  46  47
ATOM     47  O   UNL     1      80.828  54.919  40.415  0.00  0.00    -0.506 OA
ATOM     48  H   UNL     1      80.401  55.379  41.110  0.00  0.00    +0.000 HD
ENDBRANCH  46  47
ENDBRANCH  40  41
ENDBRANCH   3  40
TORSDOF 12
ENDMDL
MODEL 2
REMARK VINA RESULT:   -10.830      2.225      8.396
REMARK INTER + INTRA:         -19.345
REMARK INTER:                 -17.351
REMARK INTRA:                  -1.994
REMARK UNBOUND:                -2.501
REMARK  Name = 
REMARK  12 active torsions:
REMARK  status: ('A' for Active; 'I' for Inactive)
REMARK    1  A    between atoms: O_1  and  C_2
REMARK    2  A    between atoms: C_5  and  C_36
REMARK    3  A    between atoms: C_7  and  C_8
REMARK    4  A    between atoms: C_8  and  C_9
REMARK    5  A    between atoms: C_10  and  O_11
REMARK    6  A    between atoms: C_12  and  C_13
REMARK    7  A    between atoms: C_13  and  C_14
REMARK    8  A    between atoms: C_19  and  O_20
REMARK    9  A    between atoms: C_21  and  O_35
REMARK   10  A    between atoms: C_25  and  C_29
REMARK   11  A    between atoms: C_36  and  C_37
REMARK   12  A    between atoms: C_42  and  O_43
REMARK                            x       y       z     vdW  Elec       q    Type
REMARK                         _______ _______ _______ _____ _____    ______ ____
ROOT
ATOM      1  C   UNL     1      86.681  51.726  42.684  0.00  0.00    +0.041 A 
ATOM      2  C   UNL     1      87.607  50.895  42.007  0.00  0.00    +0.131 A 
ATOM      3  C   UNL     1      88.490  50.071  42.735  0.00  0.00    +0.041 A 
ATOM      4  C   UNL     1      88.474  50.093  44.145  0.00  0.00    +0.138 A 
ATOM      5  C   UNL     1      87.535  50.901  44.827  0.00  0.00    +0.101 A 
ATOM      6  C   UNL     1      86.661  51.727  44.092  0.00  0.00    +0.142 A 
ATOM      7  O   UNL     1      85.762  52.567  44.769  0.00  0.00    -0.483 OA
ATOM      8  C   UNL     1      85.478  52.453  46.167  0.00  0.00    +0.132 C 
ATOM      9  C   UNL     1      86.756  52.119  46.944  0.00  0.00    +0.052 C 
ATOM     10  C   UNL     1      87.399  50.929  46.305  0.00  0.00    +0.174 C 
ATOM     11  O   UNL     1      87.736  49.947  47.020  0.00  0.00    -0.292 OA
ENDROOT
BRANCH   8  12
ATOM     12  C   UNL     1      84.860  53.734  46.675  0.00  0.00    -0.007 A 
ATOM     13  C   UNL     1      84.117  53.734  47.868  0.00  0.00    -0.055 A 
ATOM     14  C   UNL     1      83.559  54.921  48.351  0.00  0.00    -0.061 A 
ATOM     15  C   UNL     1      83.746  56.117  47.653  0.00  0.00    -0.062 A 
ATOM     16  C   UNL     1      84.500  56.131  46.477  0.00  0.00    -0.061 A 
ATOM     17  C   UNL     1      85.061  54.947  45.991  0.00  0.00    -0.055 A 
ENDBRANCH   8  12
BRANCH   2  18
ATOM     18  O   UNL     1      87.681  50.873  40.610  0.00  0.00    -0.506 OA
ATOM     19  H   UNL     1      88.226  51.488  40.160  0.00  0.00    +0.000 HD
ENDBRANCH   2  18
BRANCH   4  20
ATOM     20  O   UNL     1      89.424  49.332  44.835  0.00  0.00    -0.506 OA
ATOM     21  H   UNL     1      89.338  48.400  44.876  0.00  0.00    +0.000 HD
ENDBRANCH   4  20
BRANCH   1  22
ATOM     22  C   UNL     1      85.693  52.594  41.918  0.00  0.00    +0.008 C 
BRANCH  22  28
ATOM     23  C   UNL     1      83.194  52.736  41.421  0.00  0.00    +0.120 A 
ATOM     24  C   UNL     1      81.877  52.318  41.660  0.00  0.00    -0.020 A 
ATOM     25  C   UNL     1      81.613  51.325  42.604  0.00  0.00    -0.055 A 
ATOM     26  C   UNL     1      82.661  50.732  43.319  0.00  0.00    -0.042 A 
ATOM     27  C   UNL     1      83.981  51.147  43.080  0.00  0.00    -0.051 A 
ATOM     28  C   UNL     1      84.258  52.171  42.155  0.00  0.00    -0.001 A 
BRANCH  23  29
ATOM     29  O   UNL     1      83.442  53.705  40.450  0.00  0.00    -0.506 OA
ATOM     30  H   UNL     1      82.764  54.298  40.195  0.00  0.00    +0.000 HD
ENDBRANCH  23  29
BRANCH  26  31
ATOM     31  C   UNL     1      82.375  49.618  44.291  0.00  0.00    +0.001 C 
BRANCH  31  32
ATOM     32  C   UNL     1      83.369  48.498  44.114  0.00  0.00    -0.002 A 
ATOM     33  C   UNL     1      84.701  48.673  44.531  0.00  0.00    -0.055 A 
ATOM     34  C   UNL     1      85.626  47.633  44.406  0.00  0.00    -0.061 A 
ATOM     35  C   UNL     1      85.230  46.405  43.873  0.00  0.00    -0.058 A 
ATOM     36  C   UNL     1      83.908  46.214  43.466  0.00  0.00    -0.020 A 
ATOM     37  C   UNL     1      82.971  47.251  43.586  0.00  0.00    +0.120 A 
BRANCH  37  38
ATOM     38  O   UNL     1      81.650  47.047  43.186  0.00  0.00    -0.506 OA
ATOM     39  H   UNL     1      81.034  47.751  43.225  0.00  0.00    +0.000 HD
ENDBRANCH  37  38
ENDBRANCH  31  32
ENDBRANCH  26  31
ENDBRANCH  22  28
ENDBRANCH   1  22
BRANCH   3  40
ATOM     40  C   UNL     1      89.498  49.209  41.994  0.00  0.00    +0.008 C 
BRANCH  40  41
ATOM     41  C   UNL     1      89.279  47.737  42.283  0.00  0.00    -0.001 A 
ATOM     42  C   UNL     1      88.146  47.117  41.721  0.00  0.00    -0.055 A 
ATOM     43  C   UNL     1      87.864  45.774  41.972  0.00  0.00    -0.061 A 
ATOM     44  C   UNL     1      88.708  45.024  42.788  0.00  0.00    -0.058 A 
ATOM     45  C   UNL     1      89.839  45.613  43.352  0.00  0.00    -0.020 A 
ATOM     46  C   UNL     1      90.144  46.957  43.104  0.00  0.00    +0.120 A 
BRANCH  46  47
ATOM     47  O   UNL     1      91.312  47.458  43.687  0.00  0.00    -0.506 OA
ATOM     48  H   UNL     1      92.142  47.091  43.458  0.00  0.00    +0.000 HD
ENDBRANCH  46  47
ENDBRANCH  40  41
ENDBRANCH   3  40
TORSDOF 12
ENDMDL
MODEL 3
REMARK VINA RESULT:   -10.666      2.044      8.399
REMARK INTER + INTRA:         -19.090
REMARK INTER:                 -16.428
REMARK INTRA:                  -2.662
REMARK UNBOUND:                -2.501
REMARK  Name = 
REMARK  12 active torsions:
REMARK  status: ('A' for Active; 'I' for Inactive)
REMARK    1  A    between atoms: O_1  and  C_2
REMARK    2  A    between atoms: C_5  and  C_36
REMARK    3  A    between atoms: C_7  and  C_8
REMARK    4  A    between atoms: C_8  and  C_9
REMARK    5  A    between atoms: C_10  and  O_11
REMARK    6  A    between atoms: C_12  and  C_13
REMARK    7  A    between atoms: C_13  and  C_14
REMARK    8  A    between atoms: C_19  and  O_20
REMARK    9  A    between atoms: C_21  and  O_35
REMARK   10  A    between atoms: C_25  and  C_29
REMARK   11  A    between atoms: C_36  and  C_37
REMARK   12  A    between atoms: C_42  and  O_43
REMARK                            x       y       z     vdW  Elec       q    Type
REMARK                         _______ _______ _______ _____ _____    ______ ____
ROOT
ATOM      1  C   UNL     1      86.366  52.567  43.498  0.00  0.00    +0.041 A 
ATOM      2  C   UNL     1      87.068  51.349  43.322  0.00  0.00    +0.131 A 
ATOM      3  C   UNL     1      87.532  50.625  44.440  0.00  0.00    +0.041 A 
ATOM      4  C   UNL     1      87.324  51.128  45.741  0.00  0.00    +0.138 A 
ATOM      5  C   UNL     1      86.601  52.330  45.925  0.00  0.00    +0.101 A 
ATOM      6  C   UNL     1      86.148  53.050  44.802  0.00  0.00    +0.142 A 
ATOM      7  O   UNL     1      85.474  54.269  44.982  0.00  0.00    -0.483 OA
ATOM      8  C   UNL     1      84.972  54.713  46.247  0.00  0.00    +0.132 C 
ATOM      9  C   UNL     1      85.955  54.350  47.366  0.00  0.00    +0.052 C 
ATOM     10  C   UNL     1      86.273  52.891  47.259  0.00  0.00    +0.174 C 
ATOM     11  O   UNL     1      86.176  52.160  48.281  0.00  0.00    -0.292 OA
ENDROOT
BRANCH   8  12
ATOM     12  C   UNL     1      84.726  56.202  46.212  0.00  0.00    -0.007 A 
ATOM     13  C   UNL     1      85.431  57.013  45.306  0.00  0.00    -0.055 A 
ATOM     14  C   UNL     1      85.193  58.390  45.259  0.00  0.00    -0.061 A 
ATOM     15  C   UNL     1      84.244  58.965  46.107  0.00  0.00    -0.062 A 
ATOM     16  C   UNL     1      83.522  58.165  46.996  0.00  0.00    -0.061 A 
ATOM     17  C   UNL     1      83.756  56.788  47.046  0.00  0.00    -0.055 A 
ENDBRANCH   8  12
BRANCH   2  18
ATOM     18  O   UNL     1      87.329  50.836  42.047  0.00  0.00    -0.506 OA
ATOM     19  H   UNL     1      86.652  50.822  41.400  0.00  0.00    +0.000 HD
ENDBRANCH   2  18
BRANCH   4  20
ATOM     20  O   UNL     1      87.876  50.433  46.822  0.00  0.00    -0.506 OA
ATOM     21  H   UNL     1      88.605  49.859  46.687  0.00  0.00    +0.000 HD
ENDBRANCH   4  20
BRANCH   1  22
ATOM     22  C   UNL     1      85.824  53.343  42.307  0.00  0.00    +0.008 C 
BRANCH  22  28
ATOM     23  C   UNL     1      83.523  54.447  42.267  0.00  0.00    +0.120 A 
ATOM     24  C   UNL     1      82.127  54.354  42.181  0.00  0.00    -0.020 A 
ATOM     25  C   UNL     1      81.511  53.111  42.031  0.00  0.00    -0.055 A 
ATOM     26  C   UNL     1      82.282  51.944  41.956  0.00  0.00    -0.042 A 
ATOM     27  C   UNL     1      83.680  52.034  42.039  0.00  0.00    -0.051 A 
ATOM     28  C   UNL     1      84.312  53.278  42.225  0.00  0.00    -0.001 A 
BRANCH  23  29
ATOM     29  O   UNL     1      84.122  55.700  42.383  0.00  0.00    -0.506 OA
ATOM     30  H   UNL     1      84.136  56.138  43.210  0.00  0.00    +0.000 HD
ENDBRANCH  23  29
BRANCH  26  31
ATOM     31  C   UNL     1      81.615  50.613  41.731  0.00  0.00    +0.001 C 
BRANCH  31  32
ATOM     32  C   UNL     1      80.967  50.127  43.004  0.00  0.00    -0.002 A 
ATOM     33  C   UNL     1      79.608  50.403  43.245  0.00  0.00    -0.055 A 
ATOM     34  C   UNL     1      78.984  49.931  44.403  0.00  0.00    -0.061 A 
ATOM     35  C   UNL     1      79.705  49.171  45.326  0.00  0.00    -0.058 A 
ATOM     36  C   UNL     1      81.051  48.880  45.092  0.00  0.00    -0.020 A 
ATOM     37  C   UNL     1      81.688  49.350  43.934  0.00  0.00    +0.120 A 
BRANCH  37  38
ATOM     38  O   UNL     1      83.030  49.045  43.705  0.00  0.00    -0.506 OA
ATOM     39  H   UNL     1      83.569  48.745  44.410  0.00  0.00    +0.000 HD
ENDBRANCH  37  38
ENDBRANCH  31  32
ENDBRANCH  26  31
ENDBRANCH  22  28
ENDBRANCH   1  22
BRANCH   3  40
ATOM     40  C   UNL     1      88.310  49.337  44.233  0.00  0.00    +0.008 C 
BRANCH  40  41
ATOM     41  C   UNL     1      87.386  48.189  43.877  0.00  0.00    -0.001 A 
ATOM     42  C   UNL     1      87.685  47.438  42.723  0.00  0.00    -0.055 A 
ATOM     43  C   UNL     1      86.860  46.388  42.317  0.00  0.00    -0.061 A 
ATOM     44  C   UNL     1      85.723  46.068  43.055  0.00  0.00    -0.058 A 
ATOM     45  C   UNL     1      85.409  46.793  44.204  0.00  0.00    -0.020 A 
ATOM     46  C   UNL     1      86.229  47.844  44.633  0.00  0.00    +0.120 A 
BRANCH  46  47
ATOM     47  O   UNL     1      85.855  48.497  45.811  0.00  0.00    -0.506 OA
ATOM     48  H   UNL     1      84.951  48.553  46.048  0.00  0.00    +0.000 HD
ENDBRANCH  46  47
ENDBRANCH  40  41
ENDBRANCH   3  40
TORSDOF 12
ENDMDL
MODEL 4
REMARK VINA RESULT:   -10.453      2.342      6.449
REMARK INTER + INTRA:         -18.759
REMARK INTER:                 -16.279
REMARK INTRA:                  -2.480
REMARK UNBOUND:                -2.501
REMARK  Name = 
REMARK  12 active torsions:
REMARK  status: ('A' for Active; 'I' for Inactive)
REMARK    1  A    between atoms: O_1  and  C_2
REMARK    2  A    between atoms: C_5  and  C_36
REMARK    3  A    between atoms: C_7  and  C_8
REMARK    4  A    between atoms: C_8  and  C_9
REMARK    5  A    between atoms: C_10  and  O_11
REMARK    6  A    between atoms: C_12  and  C_13
REMARK    7  A    between atoms: C_13  and  C_14
REMARK    8  A    between atoms: C_19  and  O_20
REMARK    9  A    between atoms: C_21  and  O_35
REMARK   10  A    between atoms: C_25  and  C_29
REMARK   11  A    between atoms: C_36  and  C_37
REMARK   12  A    between atoms: C_42  and  O_43
REMARK                            x       y       z     vdW  Elec       q    Type
REMARK                         _______ _______ _______ _____ _____    ______ ____
ROOT
ATOM      1  C   UNL     1      84.650  51.926  44.676  0.00  0.00    +0.041 A 
ATOM      2  C   UNL     1      85.276  53.181  44.476  0.00  0.00    +0.131 A 
ATOM      3  C   UNL     1      84.682  54.150  43.641  0.00  0.00    +0.041 A 
ATOM      4  C   UNL     1      83.472  53.861  42.976  0.00  0.00    +0.138 A 
ATOM      5  C   UNL     1      82.828  52.620  43.191  0.00  0.00    +0.101 A 
ATOM      6  C   UNL     1      83.433  51.655  44.021  0.00  0.00    +0.142 A 
ATOM      7  O   UNL     1      82.819  50.404  44.196  0.00  0.00    -0.483 OA
ATOM      8  C   UNL     1      81.473  50.124  43.800  0.00  0.00    +0.132 C 
ATOM      9  C   UNL     1      81.156  50.816  42.469  0.00  0.00    +0.052 C 
ATOM     10  C   UNL     1      81.518  52.263  42.592  0.00  0.00    +0.174 C 
ATOM     11  O   UNL     1      80.679  53.142  42.262  0.00  0.00    -0.292 OA
ENDROOT
BRANCH   8  12
ATOM     12  C   UNL     1      81.265  48.633  43.691  0.00  0.00    -0.007 A 
ATOM     13  C   UNL     1      82.331  47.796  43.318  0.00  0.00    -0.055 A 
ATOM     14  C   UNL     1      82.147  46.413  43.233  0.00  0.00    -0.061 A 
ATOM     15  C   UNL     1      80.902  45.854  43.531  0.00  0.00    -0.062 A 
ATOM     16  C   UNL     1      79.841  46.674  43.923  0.00  0.00    -0.061 A 
ATOM     17  C   UNL     1      80.021  48.058  44.009  0.00  0.00    -0.055 A 
ENDBRANCH   8  12
BRANCH   2  18
ATOM     18  O   UNL     1      86.496  53.492  45.086  0.00  0.00    -0.506 OA
ATOM     19  H   UNL     1      86.559  53.517  46.021  0.00  0.00    +0.000 HD
ENDBRANCH   2  18
BRANCH   4  20
ATOM     20  O   UNL     1      82.957  54.808  42.085  0.00  0.00    -0.506 OA
ATOM     21  H   UNL     1      82.054  54.776  41.837  0.00  0.00    +0.000 HD
ENDBRANCH   4  20
BRANCH   1  22
ATOM     22  C   UNL     1      85.254  50.882  45.603  0.00  0.00    +0.008 C 
BRANCH  22  28
ATOM     23  C   UNL     1      87.594  50.099  44.949  0.00  0.00    +0.120 A 
ATOM     24  C   UNL     1      88.436  49.211  44.266  0.00  0.00    -0.020 A 
ATOM     25  C   UNL     1      87.899  48.158  43.525  0.00  0.00    -0.055 A 
ATOM     26  C   UNL     1      86.512  47.973  43.462  0.00  0.00    -0.042 A 
ATOM     27  C   UNL     1      85.666  48.859  44.148  0.00  0.00    -0.051 A 
ATOM     28  C   UNL     1      86.193  49.945  44.870  0.00  0.00    -0.001 A 
BRANCH  23  29
ATOM     29  O   UNL     1      88.150  51.125  45.712  0.00  0.00    -0.506 OA
ATOM     30  H   UNL     1      88.992  51.471  45.490  0.00  0.00    +0.000 HD
ENDBRANCH  23  29
BRANCH  26  31
ATOM     31  C   UNL     1      85.941  46.798  42.713  0.00  0.00    +0.001 C 
BRANCH  31  32
ATOM     32  C   UNL     1      86.654  45.528  43.106  0.00  0.00    -0.002 A 
ATOM     33  C   UNL     1      87.803  45.126  42.402  0.00  0.00    -0.055 A 
ATOM     34  C   UNL     1      88.495  43.970  42.775  0.00  0.00    -0.061 A 
ATOM     35  C   UNL     1      88.053  43.210  43.860  0.00  0.00    -0.058 A 
ATOM     36  C   UNL     1      86.920  43.605  44.575  0.00  0.00    -0.020 A 
ATOM     37  C   UNL     1      86.217  44.763  44.208  0.00  0.00    +0.120 A 
BRANCH  37  38
ATOM     38  O   UNL     1      85.093  45.154  44.935  0.00  0.00    -0.506 OA
ATOM     39  H   UNL     1      85.194  45.625  45.738  0.00  0.00    +0.000 HD
ENDBRANCH  37  38
ENDBRANCH  31  32
ENDBRANCH  26  31
ENDBRANCH  22  28
ENDBRANCH   1  22
BRANCH   3  40
ATOM     40  C   UNL     1      85.382  55.479  43.413  0.00  0.00    +0.008 C 
BRANCH  40  41
ATOM     41  C   UNL     1      85.029  56.478  44.497  0.00  0.00    -0.001 A 
ATOM     42  C   UNL     1      84.528  55.977  45.715  0.00  0.00    -0.055 A 
ATOM     43  C   UNL     1      84.153  56.841  46.745  0.00  0.00    -0.061 A 
ATOM     44  C   UNL     1      84.270  58.219  46.578  0.00  0.00    -0.058 A 
ATOM     45  C   UNL     1      84.768  58.739  45.385  0.00  0.00    -0.020 A 
ATOM     46  C   UNL     1      85.160  57.888  44.342  0.00  0.00    +0.120 A 
BRANCH  46  47
ATOM     47  O   UNL     1      85.674  58.493  43.193  0.00  0.00    -0.506 OA
ATOM     48  H   UNL     1      85.104  58.956  42.612  0.00  0.00    +0.000 HD
ENDBRANCH  46  47
ENDBRANCH  40  41
ENDBRANCH   3  40
TORSDOF 12
ENDMDL
MODEL 5
REMARK VINA RESULT:   -10.438      2.726      5.804
REMARK INTER + INTRA:         -18.736
REMARK INTER:                 -15.832
REMARK INTRA:                  -2.904
REMARK UNBOUND:                -2.501
REMARK  Name = 
REMARK  12 active torsions:
REMARK  status: ('A' for Active; 'I' for Inactive)
REMARK    1  A    between atoms: O_1  and  C_2
REMARK    2  A    between atoms: C_5  and  C_36
REMARK    3  A    between atoms: C_7  and  C_8
REMARK    4  A    between atoms: C_8  and  C_9
REMARK    5  A    between atoms: C_10  and  O_11
REMARK    6  A    between atoms: C_12  and  C_13
REMARK    7  A    between atoms: C_13  and  C_14
REMARK    8  A    between atoms: C_19  and  O_20
REMARK    9  A    between atoms: C_21  and  O_35
REMARK   10  A    between atoms: C_25  and  C_29
REMARK   11  A    between atoms: C_36  and  C_37
REMARK   12  A    between atoms: C_42  and  O_43
REMARK                            x       y       z     vdW  Elec       q    Type
REMARK                         _______ _______ _______ _____ _____    ______ ____
ROOT
ATOM      1  C   UNL     1      84.779  50.283  44.333  0.00  0.00    +0.041 A 
ATOM      2  C   UNL     1      86.158  50.606  44.292  0.00  0.00    +0.131 A 
ATOM      3  C   UNL     1      87.105  49.640  43.894  0.00  0.00    +0.041 A 
ATOM      4  C   UNL     1      86.685  48.335  43.564  0.00  0.00    +0.138 A 
ATOM      5  C   UNL     1      85.308  48.013  43.577  0.00  0.00    +0.101 A 
ATOM      6  C   UNL     1      84.369  48.982  43.983  0.00  0.00    +0.142 A 
ATOM      7  O   UNL     1      83.006  48.648  44.046  0.00  0.00    -0.483 OA
ATOM      8  C   UNL     1      82.459  47.460  43.467  0.00  0.00    +0.132 C 
ATOM      9  C   UNL     1      83.419  46.282  43.664  0.00  0.00    +0.052 C 
ATOM     10  C   UNL     1      84.773  46.689  43.173  0.00  0.00    +0.174 C 
ATOM     11  O   UNL     1      85.390  45.943  42.367  0.00  0.00    -0.292 OA
ENDROOT
BRANCH   8  12
ATOM     12  C   UNL     1      81.111  47.160  44.078  0.00  0.00    -0.007 A 
ATOM     13  C   UNL     1      80.007  47.982  43.790  0.00  0.00    -0.055 A 
ATOM     14  C   UNL     1      78.754  47.699  44.340  0.00  0.00    -0.061 A 
ATOM     15  C   UNL     1      78.590  46.588  45.172  0.00  0.00    -0.062 A 
ATOM     16  C   UNL     1      79.675  45.753  45.447  0.00  0.00    -0.061 A 
ATOM     17  C   UNL     1      80.931  46.032  44.899  0.00  0.00    -0.055 A 
ENDBRANCH   8  12
BRANCH   2  18
ATOM     18  O   UNL     1      86.619  51.877  44.650  0.00  0.00    -0.506 OA
ATOM     19  H   UNL     1      87.525  52.007  44.855  0.00  0.00    +0.000 HD
ENDBRANCH   2  18
BRANCH   4  20
ATOM     20  O   UNL     1      87.658  47.377  43.261  0.00  0.00    -0.506 OA
ATOM     21  H   UNL     1      88.040  46.865  43.947  0.00  0.00    +0.000 HD
ENDBRANCH   4  20
BRANCH   1  22
ATOM     22  C   UNL     1      83.737  51.321  44.722  0.00  0.00    +0.008 C 
BRANCH  22  28
ATOM     23  C   UNL     1      82.199  51.935  42.780  0.00  0.00    +0.120 A 
ATOM     24  C   UNL     1      81.863  52.775  41.709  0.00  0.00    -0.020 A 
ATOM     25  C   UNL     1      82.644  53.893  41.417  0.00  0.00    -0.055 A 
ATOM     26  C   UNL     1      83.770  54.192  42.195  0.00  0.00    -0.042 A 
ATOM     27  C   UNL     1      84.108  53.354  43.269  0.00  0.00    -0.051 A 
ATOM     28  C   UNL     1      83.349  52.204  43.554  0.00  0.00    -0.001 A 
BRANCH  23  29
ATOM     29  O   UNL     1      81.388  50.841  43.077  0.00  0.00    -0.506 OA
ATOM     30  H   UNL     1      80.464  50.889  42.929  0.00  0.00    +0.000 HD
ENDBRANCH  23  29
BRANCH  26  31
ATOM     31  C   UNL     1      84.573  55.434  41.914  0.00  0.00    +0.001 C 
BRANCH  31  32
ATOM     32  C   UNL     1      85.018  56.076  43.204  0.00  0.00    -0.002 A 
ATOM     33  C   UNL     1      84.136  56.918  43.905  0.00  0.00    -0.055 A 
ATOM     34  C   UNL     1      84.521  57.493  45.120  0.00  0.00    -0.061 A 
ATOM     35  C   UNL     1      85.783  57.226  45.652  0.00  0.00    -0.058 A 
ATOM     36  C   UNL     1      86.664  56.381  44.972  0.00  0.00    -0.020 A 
ATOM     37  C   UNL     1      86.289  55.799  43.751  0.00  0.00    +0.120 A 
BRANCH  37  38
ATOM     38  O   UNL     1      87.171  54.950  43.085  0.00  0.00    -0.506 OA
ATOM     39  H   UNL     1      86.845  54.201  42.626  0.00  0.00    +0.000 HD
ENDBRANCH  37  38
ENDBRANCH  31  32
ENDBRANCH  26  31
ENDBRANCH  22  28
ENDBRANCH   1  22
BRANCH   3  40
ATOM     40  C   UNL     1      88.583  49.994  43.885  0.00  0.00    +0.008 C 
BRANCH  40  41
ATOM     41  C   UNL     1      88.991  50.612  42.562  0.00  0.00    -0.001 A 
ATOM     42  C   UNL     1      88.862  52.008  42.421  0.00  0.00    -0.055 A 
ATOM     43  C   UNL     1      89.189  52.640  41.220  0.00  0.00    -0.061 A 
ATOM     44  C   UNL     1      89.649  51.891  40.139  0.00  0.00    -0.058 A 
ATOM     45  C   UNL     1      89.790  50.509  40.256  0.00  0.00    -0.020 A 
ATOM     46  C   UNL     1      89.477  49.857  41.456  0.00  0.00    +0.120 A 
BRANCH  46  47
ATOM     47  O   UNL     1      89.675  48.474  41.494  0.00  0.00    -0.506 OA
ATOM     48  H   UNL     1      89.209  47.951  42.115  0.00  0.00    +0.000 HD
ENDBRANCH  46  47
ENDBRANCH  40  41
ENDBRANCH   3  40
TORSDOF 12
ENDMDL
MODEL 6
REMARK VINA RESULT:   -10.418      2.319      8.265
REMARK INTER + INTRA:         -18.705
REMARK INTER:                 -15.618
REMARK INTRA:                  -3.087
REMARK UNBOUND:                -2.501
REMARK  Name = 
REMARK  12 active torsions:
REMARK  status: ('A' for Active; 'I' for Inactive)
REMARK    1  A    between atoms: O_1  and  C_2
REMARK    2  A    between atoms: C_5  and  C_36
REMARK    3  A    between atoms: C_7  and  C_8
REMARK    4  A    between atoms: C_8  and  C_9
REMARK    5  A    between atoms: C_10  and  O_11
REMARK    6  A    between atoms: C_12  and  C_13
REMARK    7  A    between atoms: C_13  and  C_14
REMARK    8  A    between atoms: C_19  and  O_20
REMARK    9  A    between atoms: C_21  and  O_35
REMARK   10  A    between atoms: C_25  and  C_29
REMARK   11  A    between atoms: C_36  and  C_37
REMARK   12  A    between atoms: C_42  and  O_43
REMARK                            x       y       z     vdW  Elec       q    Type
REMARK                         _______ _______ _______ _____ _____    ______ ____
ROOT
ATOM      1  C   UNL     1      83.632  51.231  43.822  0.00  0.00    +0.041 A 
ATOM      2  C   UNL     1      83.735  49.824  43.686  0.00  0.00    +0.131 A 
ATOM      3  C   UNL     1      84.665  49.099  44.460  0.00  0.00    +0.041 A 
ATOM      4  C   UNL     1      85.520  49.778  45.353  0.00  0.00    +0.138 A 
ATOM      5  C   UNL     1      85.405  51.179  45.512  0.00  0.00    +0.101 A 
ATOM      6  C   UNL     1      84.478  51.896  44.730  0.00  0.00    +0.142 A 
ATOM      7  O   UNL     1      84.398  53.293  44.851  0.00  0.00    -0.483 OA
ATOM      8  C   UNL     1      85.012  54.028  45.915  0.00  0.00    +0.132 C 
ATOM      9  C   UNL     1      86.382  53.430  46.253  0.00  0.00    +0.052 C 
ATOM     10  C   UNL     1      86.212  51.961  46.481  0.00  0.00    +0.174 C 
ATOM     11  O   UNL     1      86.685  51.438  47.525  0.00  0.00    -0.292 OA
ENDROOT
BRANCH   8  12
ATOM     12  C   UNL     1      85.141  55.483  45.531  0.00  0.00    -0.007 A 
ATOM     13  C   UNL     1      85.152  55.857  44.176  0.00  0.00    -0.055 A 
ATOM     14  C   UNL     1      85.254  57.204  43.817  0.00  0.00    -0.061 A 
ATOM     15  C   UNL     1      85.336  58.187  44.806  0.00  0.00    -0.062 A 
ATOM     16  C   UNL     1      85.305  57.828  46.156  0.00  0.00    -0.061 A 
ATOM     17  C   UNL     1      85.202  56.482  46.519  0.00  0.00    -0.055 A 
ENDBRANCH   8  12
BRANCH   2  18
ATOM     18  O   UNL     1      82.932  49.119  42.784  0.00  0.00    -0.506 OA
ATOM     19  H   UNL     1      82.159  48.683  43.086  0.00  0.00    +0.000 HD
ENDBRANCH   2  18
BRANCH   4  20
ATOM     20  O   UNL     1      86.492  49.040  46.037  0.00  0.00    -0.506 OA
ATOM     21  H   UNL     1      86.390  48.114  46.141  0.00  0.00    +0.000 HD
ENDBRANCH   4  20
BRANCH   1  22
ATOM     22  C   UNL     1      82.609  52.027  43.026  0.00  0.00    +0.008 C 
BRANCH  22  28
ATOM     23  C   UNL     1      82.733  54.308  41.888  0.00  0.00    +0.120 A 
ATOM     24  C   UNL     1      83.367  55.202  41.014  0.00  0.00    -0.020 A 
ATOM     25  C   UNL     1      84.537  54.830  40.350  0.00  0.00    -0.055 A 
ATOM     26  C   UNL     1      85.094  53.561  40.557  0.00  0.00    -0.042 A 
ATOM     27  C   UNL     1      84.463  52.665  41.434  0.00  0.00    -0.051 A 
ATOM     28  C   UNL     1      83.264  53.015  42.083  0.00  0.00    -0.001 A 
BRANCH  23  29
ATOM     29  O   UNL     1      81.584  54.710  42.568  0.00  0.00    -0.506 OA
ATOM     30  H   UNL     1      81.356  54.306  43.381  0.00  0.00    +0.000 HD
ENDBRANCH  23  29
BRANCH  26  31
ATOM     31  C   UNL     1      86.390  53.189  39.887  0.00  0.00    +0.001 C 
BRANCH  31  32
ATOM     32  C   UNL     1      87.318  52.522  40.871  0.00  0.00    -0.002 A 
ATOM     33  C   UNL     1      87.074  52.641  42.251  0.00  0.00    -0.055 A 
ATOM     34  C   UNL     1      87.904  52.000  43.175  0.00  0.00    -0.061 A 
ATOM     35  C   UNL     1      88.978  51.226  42.732  0.00  0.00    -0.058 A 
ATOM     36  C   UNL     1      89.223  51.089  41.364  0.00  0.00    -0.020 A 
ATOM     37  C   UNL     1      88.397  51.729  40.427  0.00  0.00    +0.120 A 
BRANCH  37  38
ATOM     38  O   UNL     1      88.645  51.578  39.063  0.00  0.00    -0.506 OA
ATOM     39  H   UNL     1      88.056  51.078  38.532  0.00  0.00    +0.000 HD
ENDBRANCH  37  38
ENDBRANCH  31  32
ENDBRANCH  26  31
ENDBRANCH  22  28
ENDBRANCH   1  22
BRANCH   3  40
ATOM     40  C   UNL     1      84.783  47.596  44.280  0.00  0.00    +0.008 C 
BRANCH  40  41
ATOM     41  C   UNL     1      86.025  47.233  43.490  0.00  0.00    -0.001 A 
ATOM     42  C   UNL     1      86.623  48.240  42.706  0.00  0.00    -0.055 A 
ATOM     43  C   UNL     1      87.749  47.969  41.928  0.00  0.00    -0.061 A 
ATOM     44  C   UNL     1      88.299  46.689  41.917  0.00  0.00    -0.058 A 
ATOM     45  C   UNL     1      87.729  45.677  42.688  0.00  0.00    -0.020 A 
ATOM     46  C   UNL     1      86.604  45.931  43.484  0.00  0.00    +0.120 A 
BRANCH  46  47
ATOM     47  O   UNL     1      86.116  44.867  44.246  0.00  0.00    -0.506 OA
ATOM     48  H   UNL     1      85.315  44.447  44.005  0.00  0.00    +0.000 HD
ENDBRANCH  46  47
ENDBRANCH  40  41
ENDBRANCH   3  40
TORSDOF 12
ENDMDL
MODEL 7
REMARK VINA RESULT:   -10.273      2.686      6.105
REMARK INTER + INTRA:         -18.479
REMARK INTER:                 -16.684
REMARK INTRA:                  -1.796
REMARK UNBOUND:                -2.501
REMARK  Name = 
REMARK  12 active torsions:
REMARK  status: ('A' for Active; 'I' for Inactive)
REMARK    1  A    between atoms: O_1  and  C_2
REMARK    2  A    between atoms: C_5  and  C_36
REMARK    3  A    between atoms: C_7  and  C_8
REMARK    4  A    between atoms: C_8  and  C_9
REMARK    5  A    between atoms: C_10  and  O_11
REMARK    6  A    between atoms: C_12  and  C_13
REMARK    7  A    between atoms: C_13  and  C_14
REMARK    8  A    between atoms: C_19  and  O_20
REMARK    9  A    between atoms: C_21  and  O_35
REMARK   10  A    between atoms: C_25  and  C_29
REMARK   11  A    between atoms: C_36  and  C_37
REMARK   12  A    between atoms: C_42  and  O_43
REMARK                            x       y       z     vdW  Elec       q    Type
REMARK                         _______ _______ _______ _____ _____    ______ ____
ROOT
ATOM      1  C   UNL     1      85.225  52.032  44.282  0.00  0.00    +0.041 A 
ATOM      2  C   UNL     1      84.426  53.189  44.449  0.00  0.00    +0.131 A 
ATOM      3  C   UNL     1      84.411  54.195  43.460  0.00  0.00    +0.041 A 
ATOM      4  C   UNL     1      85.219  54.065  42.311  0.00  0.00    +0.138 A 
ATOM      5  C   UNL     1      86.000  52.900  42.125  0.00  0.00    +0.101 A 
ATOM      6  C   UNL     1      86.014  51.904  43.122  0.00  0.00    +0.142 A 
ATOM      7  O   UNL     1      86.827  50.771  42.962  0.00  0.00    -0.483 OA
ATOM      8  C   UNL     1      87.452  50.418  41.724  0.00  0.00    +0.132 C 
ATOM      9  C   UNL     1      87.952  51.675  41.003  0.00  0.00    +0.052 C 
ATOM     10  C   UNL     1      86.819  52.649  40.914  0.00  0.00    +0.174 C 
ATOM     11  O   UNL     1      86.535  53.169  39.802  0.00  0.00    -0.292 OA
ENDROOT
BRANCH   8  12
ATOM     12  C   UNL     1      88.589  49.456  41.974  0.00  0.00    -0.007 A 
ATOM     13  C   UNL     1      89.809  49.924  42.492  0.00  0.00    -0.055 A 
ATOM     14  C   UNL     1      90.858  49.034  42.741  0.00  0.00    -0.061 A 
ATOM     15  C   UNL     1      90.693  47.670  42.486  0.00  0.00    -0.062 A 
ATOM     16  C   UNL     1      89.477  47.191  41.991  0.00  0.00    -0.061 A 
ATOM     17  C   UNL     1      88.426  48.078  41.741  0.00  0.00    -0.055 A 
ENDBRANCH   8  12
BRANCH   2  18
ATOM     18  O   UNL     1      83.641  53.374  45.592  0.00  0.00    -0.506 OA
ATOM     19  H   UNL     1      82.709  53.442  45.515  0.00  0.00    +0.000 HD
ENDBRANCH   2  18
BRANCH   4  20
ATOM     20  O   UNL     1      85.250  55.122  41.394  0.00  0.00    -0.506 OA
ATOM     21  H   UNL     1      84.718  55.089  40.624  0.00  0.00    +0.000 HD
ENDBRANCH   4  20
BRANCH   1  22
ATOM     22  C   UNL     1      85.226  50.918  45.318  0.00  0.00    +0.008 C 
BRANCH  22  28
ATOM     23  C   UNL     1      86.050  48.583  44.697  0.00  0.00    +0.120 A 
ATOM     24  C   UNL     1      85.832  47.328  44.112  0.00  0.00    -0.020 A 
ATOM     25  C   UNL     1      84.597  47.021  43.541  0.00  0.00    -0.055 A 
ATOM     26  C   UNL     1      83.559  47.962  43.553  0.00  0.00    -0.042 A 
ATOM     27  C   UNL     1      83.774  49.219  44.140  0.00  0.00    -0.051 A 
ATOM     28  C   UNL     1      85.026  49.554  44.688  0.00  0.00    -0.001 A 
BRANCH  23  29
ATOM     29  O   UNL     1      87.280  48.860  45.292  0.00  0.00    -0.506 OA
ATOM     30  H   UNL     1      87.362  48.852  46.225  0.00  0.00    +0.000 HD
ENDBRANCH  23  29
BRANCH  26  31
ATOM     31  C   UNL     1      82.209  47.603  42.991  0.00  0.00    +0.001 C 
BRANCH  31  32
ATOM     32  C   UNL     1      81.112  48.181  43.850  0.00  0.00    -0.002 A 
ATOM     33  C   UNL     1      80.467  49.367  43.453  0.00  0.00    -0.055 A 
ATOM     34  C   UNL     1      79.425  49.897  44.219  0.00  0.00    -0.061 A 
ATOM     35  C   UNL     1      79.009  49.245  45.381  0.00  0.00    -0.058 A 
ATOM     36  C   UNL     1      79.633  48.060  45.779  0.00  0.00    -0.020 A 
ATOM     37  C   UNL     1      80.681  47.519  45.019  0.00  0.00    +0.120 A 
BRANCH  37  38
ATOM     38  O   UNL     1      81.290  46.331  45.419  0.00  0.00    -0.506 OA
ATOM     39  H   UNL     1      82.203  46.319  45.629  0.00  0.00    +0.000 HD
ENDBRANCH  37  38
ENDBRANCH  31  32
ENDBRANCH  26  31
ENDBRANCH  22  28
ENDBRANCH   1  22
BRANCH   3  40
ATOM     40  C   UNL     1      83.572  55.444  43.669  0.00  0.00    +0.008 C 
BRANCH  40  41
ATOM     41  C   UNL     1      84.266  56.422  44.596  0.00  0.00    -0.001 A 
ATOM     42  C   UNL     1      84.188  56.183  45.982  0.00  0.00    -0.055 A 
ATOM     43  C   UNL     1      84.775  57.060  46.895  0.00  0.00    -0.061 A 
ATOM     44  C   UNL     1      85.450  58.191  46.442  0.00  0.00    -0.058 A 
ATOM     45  C   UNL     1      85.545  58.447  45.075  0.00  0.00    -0.020 A 
ATOM     46  C   UNL     1      84.971  57.574  44.142  0.00  0.00    +0.120 A 
BRANCH  46  47
ATOM     47  O   UNL     1      85.140  57.893  42.792  0.00  0.00    -0.506 OA
ATOM     48  H   UNL     1      85.067  58.781  42.508  0.00  0.00    +0.000 HD
ENDBRANCH  46  47
ENDBRANCH  40  41
ENDBRANCH   3  40
TORSDOF 12
ENDMDL
MODEL 8
REMARK VINA RESULT:   -10.208      2.430      3.453
REMARK INTER + INTRA:         -18.378
REMARK INTER:                 -15.415
REMARK INTRA:                  -2.963
REMARK UNBOUND:                -2.501
REMARK  Name = 
REMARK  12 active torsions:
REMARK  status: ('A' for Active; 'I' for Inactive)
REMARK    1  A    between atoms: O_1  and  C_2
REMARK    2  A    between atoms: C_5  and  C_36
REMARK    3  A    between atoms: C_7  and  C_8
REMARK    4  A    between atoms: C_8  and  C_9
REMARK    5  A    between atoms: C_10  and  O_11
REMARK    6  A    between atoms: C_12  and  C_13
REMARK    7  A    between atoms: C_13  and  C_14
REMARK    8  A    between atoms: C_19  and  O_20
REMARK    9  A    between atoms: C_21  and  O_35
REMARK   10  A    between atoms: C_25  and  C_29
REMARK   11  A    between atoms: C_36  and  C_37
REMARK   12  A    between atoms: C_42  and  O_43
REMARK                            x       y       z     vdW  Elec       q    Type
REMARK                         _______ _______ _______ _____ _____    ______ ____
ROOT
ATOM      1  C   UNL     1      85.644  51.440  43.318  0.00  0.00    +0.041 A 
ATOM      2  C   UNL     1      85.172  52.771  43.200  0.00  0.00    +0.131 A 
ATOM      3  C   UNL     1      85.675  53.619  42.192  0.00  0.00    +0.041 A 
ATOM      4  C   UNL     1      86.675  53.154  41.314  0.00  0.00    +0.138 A 
ATOM      5  C   UNL     1      87.132  51.819  41.409  0.00  0.00    +0.101 A 
ATOM      6  C   UNL     1      86.629  50.980  42.424  0.00  0.00    +0.142 A 
ATOM      7  O   UNL     1      87.119  49.670  42.551  0.00  0.00    -0.483 OA
ATOM      8  C   UNL     1      87.911  49.024  41.550  0.00  0.00    +0.132 C 
ATOM      9  C   UNL     1      88.894  50.020  40.925  0.00  0.00    +0.052 C 
ATOM     10  C   UNL     1      88.126  51.225  40.480  0.00  0.00    +0.174 C 
ATOM     11  O   UNL     1      88.278  51.658  39.307  0.00  0.00    -0.292 OA
ENDROOT
BRANCH   8  12
ATOM     12  C   UNL     1      88.646  47.850  42.150  0.00  0.00    -0.007 A 
ATOM     13  C   UNL     1      88.047  46.578  42.172  0.00  0.00    -0.055 A 
ATOM     14  C   UNL     1      88.731  45.485  42.711  0.00  0.00    -0.061 A 
ATOM     15  C   UNL     1      90.021  45.650  43.221  0.00  0.00    -0.062 A 
ATOM     16  C   UNL     1      90.634  46.905  43.185  0.00  0.00    -0.061 A 
ATOM     17  C   UNL     1      89.954  48.001  42.646  0.00  0.00    -0.055 A 
ENDBRANCH   8  12
BRANCH   2  18
ATOM     18  O   UNL     1      84.209  53.282  44.076  0.00  0.00    -0.506 OA
ATOM     19  H   UNL     1      83.313  53.343  43.805  0.00  0.00    +0.000 HD
ENDBRANCH   2  18
BRANCH   4  20
ATOM     20  O   UNL     1      87.217  54.049  40.385  0.00  0.00    -0.506 OA
ATOM     21  H   UNL     1      88.049  54.448  40.549  0.00  0.00    +0.000 HD
ENDBRANCH   4  20
BRANCH   1  22
ATOM     22  C   UNL     1      85.086  50.496  44.373  0.00  0.00    +0.008 C 
BRANCH  22  28
ATOM     23  C   UNL     1      86.774  49.754  46.138  0.00  0.00    +0.120 A 
ATOM     24  C   UNL     1      87.403  49.938  47.377  0.00  0.00    -0.020 A 
ATOM     25  C   UNL     1      87.072  51.028  48.182  0.00  0.00    -0.055 A 
ATOM     26  C   UNL     1      86.111  51.955  47.757  0.00  0.00    -0.042 A 
ATOM     27  C   UNL     1      85.481  51.775  46.515  0.00  0.00    -0.051 A 
ATOM     28  C   UNL     1      85.781  50.661  45.709  0.00  0.00    -0.001 A 
BRANCH  23  29
ATOM     29  O   UNL     1      87.142  48.677  45.333  0.00  0.00    -0.506 OA
ATOM     30  H   UNL     1      87.145  47.809  45.684  0.00  0.00    +0.000 HD
ENDBRANCH  23  29
BRANCH  26  31
ATOM     31  C   UNL     1      85.804  53.163  48.601  0.00  0.00    +0.001 C 
BRANCH  31  32
ATOM     32  C   UNL     1      85.614  54.379  47.729  0.00  0.00    -0.002 A 
ATOM     33  C   UNL     1      86.527  54.645  46.692  0.00  0.00    -0.055 A 
ATOM     34  C   UNL     1      86.346  55.748  45.853  0.00  0.00    -0.061 A 
ATOM     35  C   UNL     1      85.248  56.591  46.033  0.00  0.00    -0.058 A 
ATOM     36  C   UNL     1      84.327  56.331  47.051  0.00  0.00    -0.020 A 
ATOM     37  C   UNL     1      84.500  55.227  47.901  0.00  0.00    +0.120 A 
BRANCH  37  38
ATOM     38  O   UNL     1      83.570  54.972  48.908  0.00  0.00    -0.506 OA
ATOM     39  H   UNL     1      83.781  54.379  49.602  0.00  0.00    +0.000 HD
ENDBRANCH  37  38
ENDBRANCH  31  32
ENDBRANCH  26  31
ENDBRANCH  22  28
ENDBRANCH   1  22
BRANCH   3  40
ATOM     40  C   UNL     1      85.180  55.053  42.099  0.00  0.00    +0.008 C 
BRANCH  40  41
ATOM     41  C   UNL     1      83.975  55.159  41.186  0.00  0.00    -0.001 A 
ATOM     42  C   UNL     1      82.717  54.808  41.714  0.00  0.00    -0.055 A 
ATOM     43  C   UNL     1      81.569  54.852  40.921  0.00  0.00    -0.061 A 
ATOM     44  C   UNL     1      81.656  55.245  39.588  0.00  0.00    -0.058 A 
ATOM     45  C   UNL     1      82.888  55.602  39.043  0.00  0.00    -0.020 A 
ATOM     46  C   UNL     1      84.051  55.575  39.825  0.00  0.00    +0.120 A 
BRANCH  46  47
ATOM     47  O   UNL     1      85.238  55.976  39.206  0.00  0.00    -0.506 OA
ATOM     48  H   UNL     1      85.207  56.488  38.423  0.00  0.00    +0.000 HD
ENDBRANCH  46  47
ENDBRANCH  40  41
ENDBRANCH   3  40
TORSDOF 12
ENDMDL
MODEL 9
REMARK VINA RESULT:   -10.147      2.900      7.010
REMARK INTER + INTRA:         -18.284
REMARK INTER:                 -15.783
REMARK INTRA:                  -2.501
REMARK UNBOUND:                -2.501
REMARK  Name = 
REMARK  12 active torsions:
REMARK  status: ('A' for Active; 'I' for Inactive)
REMARK    1  A    between atoms: O_1  and  C_2
REMARK    2  A    between atoms: C_5  and  C_36
REMARK    3  A    between atoms: C_7  and  C_8
REMARK    4  A    between atoms: C_8  and  C_9
REMARK    5  A    between atoms: C_10  and  O_11
REMARK    6  A    between atoms: C_12  and  C_13
REMARK    7  A    between atoms: C_13  and  C_14
REMARK    8  A    between atoms: C_19  and  O_20
REMARK    9  A    between atoms: C_21  and  O_35
REMARK   10  A    between atoms: C_25  and  C_29
REMARK   11  A    between atoms: C_36  and  C_37
REMARK   12  A    between atoms: C_42  and  O_43
REMARK                            x       y       z     vdW  Elec       q    Type
REMARK                         _______ _______ _______ _____ _____    ______ ____
ROOT
ATOM      1  C   UNL     1      86.204  52.496  43.720  0.00  0.00    +0.041 A 
ATOM      2  C   UNL     1      86.414  53.759  44.326  0.00  0.00    +0.131 A 
ATOM      3  C   UNL     1      86.667  53.852  45.711  0.00  0.00    +0.041 A 
ATOM      4  C   UNL     1      86.683  52.686  46.504  0.00  0.00    +0.138 A 
ATOM      5  C   UNL     1      86.500  51.420  45.901  0.00  0.00    +0.101 A 
ATOM      6  C   UNL     1      86.241  51.337  44.519  0.00  0.00    +0.142 A 
ATOM      7  O   UNL     1      86.009  50.084  43.928  0.00  0.00    -0.483 OA
ATOM      8  C   UNL     1      86.281  48.841  44.583  0.00  0.00    +0.132 C 
ATOM      9  C   UNL     1      85.911  48.931  46.067  0.00  0.00    +0.052 C 
ATOM     10  C   UNL     1      86.575  50.140  46.648  0.00  0.00    +0.174 C 
ATOM     11  O   UNL     1      87.248  50.028  47.707  0.00  0.00    -0.292 OA
ENDROOT
BRANCH   8  12
ATOM     12  C   UNL     1      85.524  47.724  43.907  0.00  0.00    -0.007 A 
ATOM     13  C   UNL     1      86.204  46.574  43.469  0.00  0.00    -0.055 A 
ATOM     14  C   UNL     1      85.504  45.530  42.859  0.00  0.00    -0.061 A 
ATOM     15  C   UNL     1      84.120  45.620  42.690  0.00  0.00    -0.062 A 
ATOM     16  C   UNL     1      83.431  46.749  43.140  0.00  0.00    -0.061 A 
ATOM     17  C   UNL     1      84.128  47.796  43.752  0.00  0.00    -0.055 A 
ENDBRANCH   8  12
BRANCH   2  18
ATOM     18  O   UNL     1      86.368  54.941  43.581  0.00  0.00    -0.506 OA
ATOM     19  H   UNL     1      85.604  55.484  43.610  0.00  0.00    +0.000 HD
ENDBRANCH   2  18
BRANCH   4  20
ATOM     20  O   UNL     1      86.846  52.822  47.887  0.00  0.00    -0.506 OA
ATOM     21  H   UNL     1      87.138  52.093  48.398  0.00  0.00    +0.000 HD
ENDBRANCH   4  20
BRANCH   1  22
ATOM     22  C   UNL     1      85.969  52.370  42.222  0.00  0.00    +0.008 C 
BRANCH  22  28
ATOM     23  C   UNL     1      87.455  52.657  40.167  0.00  0.00    +0.120 A 
ATOM     24  C   UNL     1      88.660  52.422  39.492  0.00  0.00    -0.020 A 
ATOM     25  C   UNL     1      89.678  51.686  40.100  0.00  0.00    -0.055 A 
ATOM     26  C   UNL     1      89.508  51.181  41.396  0.00  0.00    -0.042 A 
ATOM     27  C   UNL     1      88.303  51.418  42.076  0.00  0.00    -0.051 A 
ATOM     28  C   UNL     1      87.256  52.128  41.461  0.00  0.00    -0.001 A 
BRANCH  23  29
ATOM     29  O   UNL     1      86.463  53.423  39.557  0.00  0.00    -0.506 OA
ATOM     30  H   UNL     1      85.652  53.026  39.307  0.00  0.00    +0.000 HD
ENDBRANCH  23  29
BRANCH  26  31
ATOM     31  C   UNL     1      90.633  50.443  42.070  0.00  0.00    +0.001 C 
BRANCH  31  32
ATOM     32  C   UNL     1      90.276  48.988  42.247  0.00  0.00    -0.002 A 
ATOM     33  C   UNL     1      89.343  48.388  41.382  0.00  0.00    -0.055 A 
ATOM     34  C   UNL     1      89.027  47.033  41.510  0.00  0.00    -0.061 A 
ATOM     35  C   UNL     1      89.644  46.261  42.496  0.00  0.00    -0.058 A 
ATOM     36  C   UNL     1      90.581  46.842  43.354  0.00  0.00    -0.020 A 
ATOM     37  C   UNL     1      90.905  48.202  43.235  0.00  0.00    +0.120 A 
BRANCH  37  38
ATOM     38  O   UNL     1      91.849  48.769  44.090  0.00  0.00    -0.506 OA
ATOM     39  H   UNL     1      92.421  49.442  43.777  0.00  0.00    +0.000 HD
ENDBRANCH  37  38
ENDBRANCH  31  32
ENDBRANCH  26  31
ENDBRANCH  22  28
ENDBRANCH   1  22
BRANCH   3  40
ATOM     40  C   UNL     1      86.859  55.217  46.350  0.00  0.00    +0.008 C 
BRANCH  40  41
ATOM     41  C   UNL     1      85.528  55.853  46.696  0.00  0.00    -0.001 A 
ATOM     42  C   UNL     1      84.759  55.258  47.715  0.00  0.00    -0.055 A 
ATOM     43  C   UNL     1      83.509  55.771  48.064  0.00  0.00    -0.061 A 
ATOM     44  C   UNL     1      83.003  56.888  47.401  0.00  0.00    -0.058 A 
ATOM     45  C   UNL     1      83.747  57.498  46.393  0.00  0.00    -0.020 A 
ATOM     46  C   UNL     1      85.008  57.004  46.035  0.00  0.00    +0.120 A 
BRANCH  46  47
ATOM     47  O   UNL     1      85.697  57.694  45.034  0.00  0.00    -0.506 OA
ATOM     48  H   UNL     1      86.212  58.444  45.253  0.00  0.00    +0.000 HD
ENDBRANCH  46  47
ENDBRANCH  40  41
ENDBRANCH   3  40
TORSDOF 12
ENDMDL
