MODEL 1
REMARK VINA RESULT:   -10.991      0.000      0.000
REMARK INTER + INTRA:         -19.744
REMARK INTER:                 -17.314
REMARK INTRA:                  -2.430
REMARK UNBOUND:                -2.649
REMARK  Name = 
REMARK  12 active torsions:
REMARK  status: ('A' for Active; 'I' for Inactive)
REMARK    1  A    between atoms: O_1  and  C_2
REMARK    2  A    between atoms: C_5  and  C_36
REMARK    3  A    between atoms: C_7  and  C_8
REMARK    4  A    between atoms: C_8  and  C_9
REMARK    5  A    between atoms: C_10  and  O_11
REMARK    6  A    between atoms: C_12  and  C_13
REMARK    7  A    between atoms: C_13  and  C_14
REMARK    8  A    between atoms: C_19  and  O_20
REMARK    9  A    between atoms: C_21  and  O_35
REMARK   10  A    between atoms: C_25  and  C_29
REMARK   11  A    between atoms: C_36  and  C_37
REMARK   12  A    between atoms: C_42  and  O_43
REMARK                            x       y       z     vdW  Elec       q    Type
REMARK                         _______ _______ _______ _____ _____    ______ ____
ROOT
ATOM      1  C   UNL     1      85.272  51.122  44.264  0.00  0.00    +0.041 A 
ATOM      2  C   UNL     1      86.245  52.026  43.771  0.00  0.00    +0.131 A 
ATOM      3  C   UNL     1      85.987  52.790  42.613  0.00  0.00    +0.041 A 
ATOM      4  C   UNL     1      84.768  52.632  41.922  0.00  0.00    +0.138 A 
ATOM      5  C   UNL     1      83.782  51.750  42.423  0.00  0.00    +0.101 A 
ATOM      6  C   UNL     1      84.051  50.987  43.576  0.00  0.00    +0.142 A 
ATOM      7  O   UNL     1      83.093  50.073  44.046  0.00  0.00    -0.483 OA
ATOM      8  C   UNL     1      81.737  50.049  43.588  0.00  0.00    +0.132 C 
ATOM      9  C   UNL     1      81.679  50.325  42.082  0.00  0.00    +0.052 C 
ATOM     10  C   UNL     1      82.445  51.580  41.802  0.00  0.00    +0.174 C 
ATOM     11  O   UNL     1      81.911  52.493  41.118  0.00  0.00    -0.292 OA
ENDROOT
BRANCH   8  12
ATOM     12  C   UNL     1      81.104  48.718  43.915  0.00  0.00    -0.007 A 
ATOM     13  C   UNL     1      79.711  48.616  44.068  0.00  0.00    -0.055 A 
ATOM     14  C   UNL     1      79.120  47.382  44.353  0.00  0.00    -0.061 A 
ATOM     15  C   UNL     1      79.914  46.239  44.477  0.00  0.00    -0.062 A 
ATOM     16  C   UNL     1      81.297  46.325  44.306  0.00  0.00    -0.061 A 
ATOM     17  C   UNL     1      81.892  47.557  44.020  0.00  0.00    -0.055 A 
ENDBRANCH   8  12
BRANCH   2  18
ATOM     18  O   UNL     1      87.482  52.182  44.405  0.00  0.00    -0.506 OA
ATOM     19  H   UNL     1      87.631  51.793  45.244  0.00  0.00    +0.000 HD
ENDBRANCH   2  18
BRANCH   4  20
ATOM     20  O   UNL     1      84.582  53.337  40.728  0.00  0.00    -0.506 OA
ATOM     21  H   UNL     1      84.806  52.939  39.910  0.00  0.00    +0.000 HD
ENDBRANCH   4  20
BRANCH   1  22
ATOM     22  C   UNL     1      85.515  50.318  45.532  0.00  0.00    +0.008 C 
BRANCH  22  28
ATOM     23  C   UNL     1      86.332  50.811  47.899  0.00  0.00    +0.120 A 
ATOM     24  C   UNL     1      86.393  51.655  49.017  0.00  0.00    -0.020 A 
ATOM     25  C   UNL     1      85.749  52.892  49.003  0.00  0.00    -0.055 A 
ATOM     26  C   UNL     1      85.040  53.308  47.869  0.00  0.00    -0.042 A 
ATOM     27  C   UNL     1      84.979  52.466  46.747  0.00  0.00    -0.051 A 
ATOM     28  C   UNL     1      85.595  51.201  46.760  0.00  0.00    -0.001 A 
BRANCH  23  29
ATOM     29  O   UNL     1      87.010  49.594  47.919  0.00  0.00    -0.506 OA
ATOM     30  H   UNL     1      86.644  48.846  47.490  0.00  0.00    +0.000 HD
ENDBRANCH  23  29
BRANCH  26  31
ATOM     31  C   UNL     1      84.400  54.670  47.837  0.00  0.00    +0.001 C 
BRANCH  31  32
ATOM     32  C   UNL     1      84.993  55.504  46.729  0.00  0.00    -0.002 A 
ATOM     33  C   UNL     1      86.219  55.127  46.152  0.00  0.00    -0.055 A 
ATOM     34  C   UNL     1      86.765  55.869  45.101  0.00  0.00    -0.061 A 
ATOM     35  C   UNL     1      86.089  56.986  44.608  0.00  0.00    -0.058 A 
ATOM     36  C   UNL     1      84.864  57.363  45.164  0.00  0.00    -0.020 A 
ATOM     37  C   UNL     1      84.307  56.627  46.220  0.00  0.00    +0.120 A 
BRANCH  37  38
ATOM     38  O   UNL     1      83.079  57.006  46.762  0.00  0.00    -0.506 OA
ATOM     39  H   UNL     1      83.035  57.712  47.375  0.00  0.00    +0.000 HD
ENDBRANCH  37  38
ENDBRANCH  31  32
ENDBRANCH  26  31
ENDBRANCH  22  28
ENDBRANCH   1  22
BRANCH   3  40
ATOM     40  C   UNL     1      87.053  53.732  42.081  0.00  0.00    +0.008 C 
BRANCH  40  41
ATOM     41  C   UNL     1      88.031  53.003  41.181  0.00  0.00    -0.001 A 
ATOM     42  C   UNL     1      89.145  52.387  41.784  0.00  0.00    -0.055 A 
ATOM     43  C   UNL     1      90.103  51.726  41.014  0.00  0.00    -0.061 A 
ATOM     44  C   UNL     1      89.967  51.668  39.629  0.00  0.00    -0.058 A 
ATOM     45  C   UNL     1      88.871  52.265  39.009  0.00  0.00    -0.020 A 
ATOM     46  C   UNL     1      87.893  52.925  39.765  0.00  0.00    +0.120 A 
BRANCH  46  47
ATOM     47  O   UNL     1      86.814  53.470  39.065  0.00  0.00    -0.506 OA
ATOM     48  H   UNL     1      86.608  53.159  38.207  0.00  0.00    +0.000 HD
ENDBRANCH  46  47
ENDBRANCH  40  41
ENDBRANCH   3  40
TORSDOF 12
ENDMDL
MODEL 2
REMARK VINA RESULT:   -10.569      3.370      6.799
REMARK INTER + INTRA:         -19.087
REMARK INTER:                 -15.525
REMARK INTRA:                  -3.561
REMARK UNBOUND:                -2.649
REMARK  Name = 
REMARK  12 active torsions:
REMARK  status: ('A' for Active; 'I' for Inactive)
REMARK    1  A    between atoms: O_1  and  C_2
REMARK    2  A    between atoms: C_5  and  C_36
REMARK    3  A    between atoms: C_7  and  C_8
REMARK    4  A    between atoms: C_8  and  C_9
REMARK    5  A    between atoms: C_10  and  O_11
REMARK    6  A    between atoms: C_12  and  C_13
REMARK    7  A    between atoms: C_13  and  C_14
REMARK    8  A    between atoms: C_19  and  O_20
REMARK    9  A    between atoms: C_21  and  O_35
REMARK   10  A    between atoms: C_25  and  C_29
REMARK   11  A    between atoms: C_36  and  C_37
REMARK   12  A    between atoms: C_42  and  O_43
REMARK                            x       y       z     vdW  Elec       q    Type
REMARK                         _______ _______ _______ _____ _____    ______ ____
ROOT
ATOM      1  C   UNL     1      84.825  49.151  43.872  0.00  0.00    +0.041 A 
ATOM      2  C   UNL     1      85.318  48.183  42.962  0.00  0.00    +0.131 A 
ATOM      3  C   UNL     1      86.702  47.921  42.879  0.00  0.00    +0.041 A 
ATOM      4  C   UNL     1      87.605  48.647  43.682  0.00  0.00    +0.138 A 
ATOM      5  C   UNL     1      87.119  49.596  44.611  0.00  0.00    +0.101 A 
ATOM      6  C   UNL     1      85.736  49.856  44.682  0.00  0.00    +0.142 A 
ATOM      7  O   UNL     1      85.256  50.835  45.568  0.00  0.00    -0.483 OA
ATOM      8  C   UNL     1      86.049  51.412  46.610  0.00  0.00    +0.132 C 
ATOM      9  C   UNL     1      87.486  51.633  46.123  0.00  0.00    +0.052 C 
ATOM     10  C   UNL     1      87.992  50.349  45.546  0.00  0.00    +0.174 C 
ATOM     11  O   UNL     1      89.105  49.896  45.924  0.00  0.00    -0.292 OA
ENDROOT
BRANCH   8  12
ATOM     12  C   UNL     1      85.432  52.710  47.071  0.00  0.00    -0.007 A 
ATOM     13  C   UNL     1      84.620  53.455  46.199  0.00  0.00    -0.055 A 
ATOM     14  C   UNL     1      84.034  54.649  46.627  0.00  0.00    -0.061 A 
ATOM     15  C   UNL     1      84.244  55.103  47.932  0.00  0.00    -0.062 A 
ATOM     16  C   UNL     1      85.033  54.360  48.813  0.00  0.00    -0.061 A 
ATOM     17  C   UNL     1      85.621  53.165  48.389  0.00  0.00    -0.055 A 
ENDBRANCH   8  12
BRANCH   2  18
ATOM     18  O   UNL     1      84.458  47.470  42.120  0.00  0.00    -0.506 OA
ATOM     19  H   UNL     1      83.715  47.025  42.478  0.00  0.00    +0.000 HD
ENDBRANCH   2  18
BRANCH   4  20
ATOM     20  O   UNL     1      88.976  48.428  43.510  0.00  0.00    -0.506 OA
ATOM     21  H   UNL     1      89.422  47.802  44.046  0.00  0.00    +0.000 HD
ENDBRANCH   4  20
BRANCH   1  22
ATOM     22  C   UNL     1      83.334  49.421  44.005  0.00  0.00    +0.008 C 
BRANCH  22  28
ATOM     23  C   UNL     1      81.495  50.762  42.851  0.00  0.00    +0.120 A 
ATOM     24  C   UNL     1      81.095  51.791  41.987  0.00  0.00    -0.020 A 
ATOM     25  C   UNL     1      82.047  52.594  41.359  0.00  0.00    -0.055 A 
ATOM     26  C   UNL     1      83.413  52.386  41.591  0.00  0.00    -0.042 A 
ATOM     27  C   UNL     1      83.816  51.358  42.458  0.00  0.00    -0.051 A 
ATOM     28  C   UNL     1      82.868  50.519  43.072  0.00  0.00    -0.001 A 
BRANCH  23  29
ATOM     29  O   UNL     1      80.529  49.992  43.496  0.00  0.00    -0.506 OA
ATOM     30  H   UNL     1      80.076  49.319  43.027  0.00  0.00    +0.000 HD
ENDBRANCH  23  29
BRANCH  26  31
ATOM     31  C   UNL     1      84.433  53.296  40.960  0.00  0.00    +0.001 C 
BRANCH  31  32
ATOM     32  C   UNL     1      84.875  54.351  41.942  0.00  0.00    -0.002 A 
ATOM     33  C   UNL     1      84.049  55.462  42.193  0.00  0.00    -0.055 A 
ATOM     34  C   UNL     1      84.428  56.431  43.126  0.00  0.00    -0.061 A 
ATOM     35  C   UNL     1      85.628  56.297  43.825  0.00  0.00    -0.058 A 
ATOM     36  C   UNL     1      86.452  55.193  43.594  0.00  0.00    -0.020 A 
ATOM     37  C   UNL     1      86.082  54.214  42.659  0.00  0.00    +0.120 A 
BRANCH  37  38
ATOM     38  O   UNL     1      86.907  53.111  42.443  0.00  0.00    -0.506 OA
ATOM     39  H   UNL     1      87.754  53.226  42.060  0.00  0.00    +0.000 HD
ENDBRANCH  37  38
ENDBRANCH  31  32
ENDBRANCH  26  31
ENDBRANCH  22  28
ENDBRANCH   1  22
BRANCH   3  40
ATOM     40  C   UNL     1      87.216  46.902  41.876  0.00  0.00    +0.008 C 
BRANCH  40  41
ATOM     41  C   UNL     1      87.489  45.568  42.541  0.00  0.00    -0.001 A 
ATOM     42  C   UNL     1      86.382  44.800  42.953  0.00  0.00    -0.055 A 
ATOM     43  C   UNL     1      86.560  43.576  43.601  0.00  0.00    -0.061 A 
ATOM     44  C   UNL     1      87.844  43.098  43.850  0.00  0.00    -0.058 A 
ATOM     45  C   UNL     1      88.955  43.837  43.447  0.00  0.00    -0.020 A 
ATOM     46  C   UNL     1      88.798  45.062  42.787  0.00  0.00    +0.120 A 
BRANCH  46  47
ATOM     47  O   UNL     1      89.966  45.722  42.394  0.00  0.00    -0.506 OA
ATOM     48  H   UNL     1      89.944  46.326  41.679  0.00  0.00    +0.000 HD
ENDBRANCH  46  47
ENDBRANCH  40  41
ENDBRANCH   3  40
TORSDOF 12
ENDMDL
MODEL 3
REMARK VINA RESULT:   -10.544      2.926      7.277
REMARK INTER + INTRA:         -19.049
REMARK INTER:                 -17.208
REMARK INTRA:                  -1.841
REMARK UNBOUND:                -2.649
REMARK  Name = 
REMARK  12 active torsions:
REMARK  status: ('A' for Active; 'I' for Inactive)
REMARK    1  A    between atoms: O_1  and  C_2
REMARK    2  A    between atoms: C_5  and  C_36
REMARK    3  A    between atoms: C_7  and  C_8
REMARK    4  A    between atoms: C_8  and  C_9
REMARK    5  A    between atoms: C_10  and  O_11
REMARK    6  A    between atoms: C_12  and  C_13
REMARK    7  A    between atoms: C_13  and  C_14
REMARK    8  A    between atoms: C_19  and  O_20
REMARK    9  A    between atoms: C_21  and  O_35
REMARK   10  A    between atoms: C_25  and  C_29
REMARK   11  A    between atoms: C_36  and  C_37
REMARK   12  A    between atoms: C_42  and  O_43
REMARK                            x       y       z     vdW  Elec       q    Type
REMARK                         _______ _______ _______ _____ _____    ______ ____
ROOT
ATOM      1  C   UNL     1      86.912  51.789  42.288  0.00  0.00    +0.041 A 
ATOM      2  C   UNL     1      87.874  50.954  41.667  0.00  0.00    +0.131 A 
ATOM      3  C   UNL     1      88.730  50.150  42.447  0.00  0.00    +0.041 A 
ATOM      4  C   UNL     1      88.652  50.196  43.855  0.00  0.00    +0.138 A 
ATOM      5  C   UNL     1      87.677  51.007  44.481  0.00  0.00    +0.101 A 
ATOM      6  C   UNL     1      86.830  51.813  43.694  0.00  0.00    +0.142 A 
ATOM      7  O   UNL     1      85.896  52.657  44.316  0.00  0.00    -0.483 OA
ATOM      8  C   UNL     1      85.551  52.565  45.701  0.00  0.00    +0.132 C 
ATOM      9  C   UNL     1      86.796  52.255  46.540  0.00  0.00    +0.052 C 
ATOM     10  C   UNL     1      87.476  51.059  45.950  0.00  0.00    +0.174 C 
ATOM     11  O   UNL     1      87.788  50.093  46.696  0.00  0.00    -0.292 OA
ENDROOT
BRANCH   8  12
ATOM     12  C   UNL     1      84.901  53.848  46.159  0.00  0.00    -0.007 A 
ATOM     13  C   UNL     1      85.041  55.021  45.398  0.00  0.00    -0.055 A 
ATOM     14  C   UNL     1      84.427  56.207  45.809  0.00  0.00    -0.061 A 
ATOM     15  C   UNL     1      83.661  56.230  46.977  0.00  0.00    -0.062 A 
ATOM     16  C   UNL     1      83.499  55.065  47.731  0.00  0.00    -0.061 A 
ATOM     17  C   UNL     1      84.110  53.876  47.323  0.00  0.00    -0.055 A 
ENDBRANCH   8  12
BRANCH   2  18
ATOM     18  O   UNL     1      88.009  50.909  40.276  0.00  0.00    -0.506 OA
ATOM     19  H   UNL     1      88.771  50.521  39.891  0.00  0.00    +0.000 HD
ENDBRANCH   2  18
BRANCH   4  20
ATOM     20  O   UNL     1      89.576  49.456  44.599  0.00  0.00    -0.506 OA
ATOM     21  H   UNL     1      89.446  49.332  45.519  0.00  0.00    +0.000 HD
ENDBRANCH   4  20
BRANCH   1  22
ATOM     22  C   UNL     1      85.953  52.634  41.464  0.00  0.00    +0.008 C 
BRANCH  22  28
ATOM     23  C   UNL     1      83.451  52.929  41.055  0.00  0.00    +0.120 A 
ATOM     24  C   UNL     1      82.121  52.577  41.326  0.00  0.00    -0.020 A 
ATOM     25  C   UNL     1      81.831  51.572  42.250  0.00  0.00    -0.055 A 
ATOM     26  C   UNL     1      82.867  50.901  42.912  0.00  0.00    -0.042 A 
ATOM     27  C   UNL     1      84.199  51.249  42.642  0.00  0.00    -0.051 A 
ATOM     28  C   UNL     1      84.505  52.284  41.737  0.00  0.00    -0.001 A 
BRANCH  23  29
ATOM     29  O   UNL     1      83.722  53.911  40.104  0.00  0.00    -0.506 OA
ATOM     30  H   UNL     1      84.473  53.833  39.551  0.00  0.00    +0.000 HD
ENDBRANCH  23  29
BRANCH  26  31
ATOM     31  C   UNL     1      82.550  49.776  43.861  0.00  0.00    +0.001 C 
BRANCH  31  32
ATOM     32  C   UNL     1      83.538  48.649  43.690  0.00  0.00    -0.002 A 
ATOM     33  C   UNL     1      84.868  48.816  44.117  0.00  0.00    -0.055 A 
ATOM     34  C   UNL     1      85.787  47.770  43.997  0.00  0.00    -0.061 A 
ATOM     35  C   UNL     1      85.387  46.545  43.460  0.00  0.00    -0.058 A 
ATOM     36  C   UNL     1      84.066  46.362  43.043  0.00  0.00    -0.020 A 
ATOM     37  C   UNL     1      83.135  47.406  43.158  0.00  0.00    +0.120 A 
BRANCH  37  38
ATOM     38  O   UNL     1      81.816  47.210  42.748  0.00  0.00    -0.506 OA
ATOM     39  H   UNL     1      81.323  47.926  42.399  0.00  0.00    +0.000 HD
ENDBRANCH  37  38
ENDBRANCH  31  32
ENDBRANCH  26  31
ENDBRANCH  22  28
ENDBRANCH   1  22
BRANCH   3  40
ATOM     40  C   UNL     1      89.776  49.284  41.767  0.00  0.00    +0.008 C 
BRANCH  40  41
ATOM     41  C   UNL     1      89.535  47.813  42.042  0.00  0.00    -0.001 A 
ATOM     42  C   UNL     1      88.416  47.206  41.440  0.00  0.00    -0.055 A 
ATOM     43  C   UNL     1      88.115  45.863  41.675  0.00  0.00    -0.061 A 
ATOM     44  C   UNL     1      88.924  45.103  42.516  0.00  0.00    -0.058 A 
ATOM     45  C   UNL     1      90.040  45.679  43.120  0.00  0.00    -0.020 A 
ATOM     46  C   UNL     1      90.366  47.022  42.889  0.00  0.00    +0.120 A 
BRANCH  46  47
ATOM     47  O   UNL     1      91.517  47.510  43.512  0.00  0.00    -0.506 OA
ATOM     48  H   UNL     1      92.160  47.972  43.012  0.00  0.00    +0.000 HD
ENDBRANCH  46  47
ENDBRANCH  40  41
ENDBRANCH   3  40
TORSDOF 12
ENDMDL
MODEL 4
REMARK VINA RESULT:   -10.318      2.718      7.434
REMARK INTER + INTRA:         -18.698
REMARK INTER:                 -16.652
REMARK INTRA:                  -2.045
REMARK UNBOUND:                -2.649
REMARK  Name = 
REMARK  12 active torsions:
REMARK  status: ('A' for Active; 'I' for Inactive)
REMARK    1  A    between atoms: O_1  and  C_2
REMARK    2  A    between atoms: C_5  and  C_36
REMARK    3  A    between atoms: C_7  and  C_8
REMARK    4  A    between atoms: C_8  and  C_9
REMARK    5  A    between atoms: C_10  and  O_11
REMARK    6  A    between atoms: C_12  and  C_13
REMARK    7  A    between atoms: C_13  and  C_14
REMARK    8  A    between atoms: C_19  and  O_20
REMARK    9  A    between atoms: C_21  and  O_35
REMARK   10  A    between atoms: C_25  and  C_29
REMARK   11  A    between atoms: C_36  and  C_37
REMARK   12  A    between atoms: C_42  and  O_43
REMARK                            x       y       z     vdW  Elec       q    Type
REMARK                         _______ _______ _______ _____ _____    ______ ____
ROOT
ATOM      1  C   UNL     1      86.894  52.350  42.249  0.00  0.00    +0.041 A 
ATOM      2  C   UNL     1      87.601  51.170  41.908  0.00  0.00    +0.131 A 
ATOM      3  C   UNL     1      88.092  50.316  42.917  0.00  0.00    +0.041 A 
ATOM      4  C   UNL     1      87.906  50.650  44.275  0.00  0.00    +0.138 A 
ATOM      5  C   UNL     1      87.180  51.813  44.622  0.00  0.00    +0.101 A 
ATOM      6  C   UNL     1      86.699  52.664  43.608  0.00  0.00    +0.142 A 
ATOM      7  O   UNL     1      86.022  53.845  43.953  0.00  0.00    -0.483 OA
ATOM      8  C   UNL     1      85.543  54.122  45.273  0.00  0.00    +0.132 C 
ATOM      9  C   UNL     1      86.550  53.629  46.318  0.00  0.00    +0.052 C 
ATOM     10  C   UNL     1      86.875  52.199  46.023  0.00  0.00    +0.174 C 
ATOM     11  O   UNL     1      86.804  51.344  46.945  0.00  0.00    -0.292 OA
ENDROOT
BRANCH   8  12
ATOM     12  C   UNL     1      85.286  55.601  45.430  0.00  0.00    -0.007 A 
ATOM     13  C   UNL     1      84.314  56.057  46.337  0.00  0.00    -0.055 A 
ATOM     14  C   UNL     1      84.085  57.426  46.498  0.00  0.00    -0.061 A 
ATOM     15  C   UNL     1      84.832  58.351  45.764  0.00  0.00    -0.062 A 
ATOM     16  C   UNL     1      85.815  57.910  44.875  0.00  0.00    -0.061 A 
ATOM     17  C   UNL     1      86.048  56.541  44.711  0.00  0.00    -0.055 A 
ENDBRANCH   8  12
BRANCH   2  18
ATOM     18  O   UNL     1      87.839  50.825  40.574  0.00  0.00    -0.506 OA
ATOM     19  H   UNL     1      87.495  51.356  39.883  0.00  0.00    +0.000 HD
ENDBRANCH   2  18
BRANCH   4  20
ATOM     20  O   UNL     1      88.485  49.829  45.249  0.00  0.00    -0.506 OA
ATOM     21  H   UNL     1      88.438  50.070  46.153  0.00  0.00    +0.000 HD
ENDBRANCH   4  20
BRANCH   1  22
ATOM     22  C   UNL     1      86.323  53.265  41.176  0.00  0.00    +0.008 C 
BRANCH  22  28
ATOM     23  C   UNL     1      84.365  54.831  41.655  0.00  0.00    +0.120 A 
ATOM     24  C   UNL     1      82.991  55.047  41.833  0.00  0.00    -0.020 A 
ATOM     25  C   UNL     1      82.090  53.987  41.720  0.00  0.00    -0.055 A 
ATOM     26  C   UNL     1      82.549  52.698  41.418  0.00  0.00    -0.042 A 
ATOM     27  C   UNL     1      83.923  52.480  41.236  0.00  0.00    -0.051 A 
ATOM     28  C   UNL     1      84.846  53.532  41.382  0.00  0.00    -0.001 A 
BRANCH  23  29
ATOM     29  O   UNL     1      85.246  55.907  41.739  0.00  0.00    -0.506 OA
ATOM     30  H   UNL     1      85.050  56.632  42.299  0.00  0.00    +0.000 HD
ENDBRANCH  23  29
BRANCH  26  31
ATOM     31  C   UNL     1      81.566  51.573  41.235  0.00  0.00    +0.001 C 
BRANCH  31  32
ATOM     32  C   UNL     1      81.752  50.532  42.310  0.00  0.00    -0.002 A 
ATOM     33  C   UNL     1      83.040  50.264  42.808  0.00  0.00    -0.055 A 
ATOM     34  C   UNL     1      83.226  49.328  43.829  0.00  0.00    -0.061 A 
ATOM     35  C   UNL     1      82.128  48.657  44.370  0.00  0.00    -0.058 A 
ATOM     36  C   UNL     1      80.842  48.922  43.894  0.00  0.00    -0.020 A 
ATOM     37  C   UNL     1      80.644  49.859  42.868  0.00  0.00    +0.120 A 
BRANCH  37  38
ATOM     38  O   UNL     1      79.355  50.124  42.406  0.00  0.00    -0.506 OA
ATOM     39  H   UNL     1      78.919  49.506  41.852  0.00  0.00    +0.000 HD
ENDBRANCH  37  38
ENDBRANCH  31  32
ENDBRANCH  26  31
ENDBRANCH  22  28
ENDBRANCH   1  22
BRANCH   3  40
ATOM     40  C   UNL     1      88.873  49.071  42.534  0.00  0.00    +0.008 C 
BRANCH  40  41
ATOM     41  C   UNL     1      87.982  47.845  42.521  0.00  0.00    -0.001 A 
ATOM     42  C   UNL     1      86.605  48.031  42.755  0.00  0.00    -0.055 A 
ATOM     43  C   UNL     1      85.730  46.944  42.790  0.00  0.00    -0.061 A 
ATOM     44  C   UNL     1      86.213  45.653  42.592  0.00  0.00    -0.058 A 
ATOM     45  C   UNL     1      87.570  45.443  42.354  0.00  0.00    -0.020 A 
ATOM     46  C   UNL     1      88.463  46.522  42.305  0.00  0.00    +0.120 A 
BRANCH  46  47
ATOM     47  O   UNL     1      89.801  46.223  42.032  0.00  0.00    -0.506 OA
ATOM     48  H   UNL     1      90.437  46.257  42.718  0.00  0.00    +0.000 HD
ENDBRANCH  46  47
ENDBRANCH  40  41
ENDBRANCH   3  40
TORSDOF 12
ENDMDL
MODEL 5
REMARK VINA RESULT:   -10.315      2.459      4.291
REMARK INTER + INTRA:         -18.693
REMARK INTER:                 -15.841
REMARK INTRA:                  -2.852
REMARK UNBOUND:                -2.649
REMARK  Name = 
REMARK  12 active torsions:
REMARK  status: ('A' for Active; 'I' for Inactive)
REMARK    1  A    between atoms: O_1  and  C_2
REMARK    2  A    between atoms: C_5  and  C_36
REMARK    3  A    between atoms: C_7  and  C_8
REMARK    4  A    between atoms: C_8  and  C_9
REMARK    5  A    between atoms: C_10  and  O_11
REMARK    6  A    between atoms: C_12  and  C_13
REMARK    7  A    between atoms: C_13  and  C_14
REMARK    8  A    between atoms: C_19  and  O_20
REMARK    9  A    between atoms: C_21  and  O_35
REMARK   10  A    between atoms: C_25  and  C_29
REMARK   11  A    between atoms: C_36  and  C_37
REMARK   12  A    between atoms: C_42  and  O_43
REMARK                            x       y       z     vdW  Elec       q    Type
REMARK                         _______ _______ _______ _____ _____    ______ ____
ROOT
ATOM      1  C   UNL     1      84.836  50.376  44.011  0.00  0.00    +0.041 A 
ATOM      2  C   UNL     1      86.200  50.758  44.008  0.00  0.00    +0.131 A 
ATOM      3  C   UNL     1      87.197  49.839  43.621  0.00  0.00    +0.041 A 
ATOM      4  C   UNL     1      86.841  48.522  43.262  0.00  0.00    +0.138 A 
ATOM      5  C   UNL     1      85.478  48.142  43.238  0.00  0.00    +0.101 A 
ATOM      6  C   UNL     1      84.490  49.065  43.634  0.00  0.00    +0.142 A 
ATOM      7  O   UNL     1      83.142  48.673  43.658  0.00  0.00    -0.483 OA
ATOM      8  C   UNL     1      82.659  47.470  43.051  0.00  0.00    +0.132 C 
ATOM      9  C   UNL     1      83.664  46.331  43.255  0.00  0.00    +0.052 C 
ATOM     10  C   UNL     1      85.010  46.803  42.803  0.00  0.00    +0.174 C 
ATOM     11  O   UNL     1      85.678  46.095  42.003  0.00  0.00    -0.292 OA
ENDROOT
BRANCH   8  12
ATOM     12  C   UNL     1      81.311  47.106  43.624  0.00  0.00    -0.007 A 
ATOM     13  C   UNL     1      81.200  46.062  44.559  0.00  0.00    -0.055 A 
ATOM     14  C   UNL     1      79.956  45.733  45.105  0.00  0.00    -0.061 A 
ATOM     15  C   UNL     1      78.816  46.449  44.731  0.00  0.00    -0.062 A 
ATOM     16  C   UNL     1      78.919  47.502  43.818  0.00  0.00    -0.061 A 
ATOM     17  C   UNL     1      80.161  47.835  43.270  0.00  0.00    -0.055 A 
ENDBRANCH   8  12
BRANCH   2  18
ATOM     18  O   UNL     1      86.598  52.042  44.395  0.00  0.00    -0.506 OA
ATOM     19  H   UNL     1      86.163  52.474  45.104  0.00  0.00    +0.000 HD
ENDBRANCH   2  18
BRANCH   4  20
ATOM     20  O   UNL     1      87.861  47.610  42.971  0.00  0.00    -0.506 OA
ATOM     21  H   UNL     1      87.681  46.690  42.970  0.00  0.00    +0.000 HD
ENDBRANCH   4  20
BRANCH   1  22
ATOM     22  C   UNL     1      83.742  51.364  44.389  0.00  0.00    +0.008 C 
BRANCH  22  28
ATOM     23  C   UNL     1      82.310  51.988  42.370  0.00  0.00    +0.120 A 
ATOM     24  C   UNL     1      81.998  52.863  41.320  0.00  0.00    -0.020 A 
ATOM     25  C   UNL     1      82.728  54.039  41.141  0.00  0.00    -0.055 A 
ATOM     26  C   UNL     1      83.775  54.361  42.014  0.00  0.00    -0.042 A 
ATOM     27  C   UNL     1      84.088  53.489  43.068  0.00  0.00    -0.051 A 
ATOM     28  C   UNL     1      83.383  52.283  43.239  0.00  0.00    -0.001 A 
BRANCH  23  29
ATOM     29  O   UNL     1      81.549  50.835  42.553  0.00  0.00    -0.506 OA
ATOM     30  H   UNL     1      81.449  50.471  43.410  0.00  0.00    +0.000 HD
ENDBRANCH  23  29
BRANCH  26  31
ATOM     31  C   UNL     1      84.516  55.662  41.853  0.00  0.00    +0.001 C 
BRANCH  31  32
ATOM     32  C   UNL     1      85.016  56.150  43.190  0.00  0.00    -0.002 A 
ATOM     33  C   UNL     1      84.192  56.965  43.988  0.00  0.00    -0.055 A 
ATOM     34  C   UNL     1      84.626  57.397  45.244  0.00  0.00    -0.061 A 
ATOM     35  C   UNL     1      85.882  57.014  45.720  0.00  0.00    -0.058 A 
ATOM     36  C   UNL     1      86.704  56.196  44.943  0.00  0.00    -0.020 A 
ATOM     37  C   UNL     1      86.279  55.757  43.679  0.00  0.00    +0.120 A 
BRANCH  37  38
ATOM     38  O   UNL     1      87.104  54.932  42.915  0.00  0.00    -0.506 OA
ATOM     39  H   UNL     1      87.104  54.007  43.058  0.00  0.00    +0.000 HD
ENDBRANCH  37  38
ENDBRANCH  31  32
ENDBRANCH  26  31
ENDBRANCH  22  28
ENDBRANCH   1  22
BRANCH   3  40
ATOM     40  C   UNL     1      88.658  50.255  43.653  0.00  0.00    +0.008 C 
BRANCH  40  41
ATOM     41  C   UNL     1      89.082  50.870  42.334  0.00  0.00    -0.001 A 
ATOM     42  C   UNL     1      88.890  52.255  42.163  0.00  0.00    -0.055 A 
ATOM     43  C   UNL     1      89.227  52.883  40.963  0.00  0.00    -0.061 A 
ATOM     44  C   UNL     1      89.762  52.141  39.912  0.00  0.00    -0.058 A 
ATOM     45  C   UNL     1      89.967  50.770  40.059  0.00  0.00    -0.020 A 
ATOM     46  C   UNL     1      89.644  50.123  41.259  0.00  0.00    +0.120 A 
BRANCH  46  47
ATOM     47  O   UNL     1      89.910  48.752  41.329  0.00  0.00    -0.506 OA
ATOM     48  H   UNL     1      90.686  48.405  40.938  0.00  0.00    +0.000 HD
ENDBRANCH  46  47
ENDBRANCH  40  41
ENDBRANCH   3  40
TORSDOF 12
ENDMDL
MODEL 6
REMARK VINA RESULT:   -10.289      2.222      5.508
REMARK INTER + INTRA:         -18.652
REMARK INTER:                 -15.692
REMARK INTRA:                  -2.960
REMARK UNBOUND:                -2.649
REMARK  Name = 
REMARK  12 active torsions:
REMARK  status: ('A' for Active; 'I' for Inactive)
REMARK    1  A    between atoms: O_1  and  C_2
REMARK    2  A    between atoms: C_5  and  C_36
REMARK    3  A    between atoms: C_7  and  C_8
REMARK    4  A    between atoms: C_8  and  C_9
REMARK    5  A    between atoms: C_10  and  O_11
REMARK    6  A    between atoms: C_12  and  C_13
REMARK    7  A    between atoms: C_13  and  C_14
REMARK    8  A    between atoms: C_19  and  O_20
REMARK    9  A    between atoms: C_21  and  O_35
REMARK   10  A    between atoms: C_25  and  C_29
REMARK   11  A    between atoms: C_36  and  C_37
REMARK   12  A    between atoms: C_42  and  O_43
REMARK                            x       y       z     vdW  Elec       q    Type
REMARK                         _______ _______ _______ _____ _____    ______ ____
ROOT
ATOM      1  C   UNL     1      85.024  50.663  44.004  0.00  0.00    +0.041 A 
ATOM      2  C   UNL     1      85.870  51.755  43.691  0.00  0.00    +0.131 A 
ATOM      3  C   UNL     1      85.383  52.841  42.934  0.00  0.00    +0.041 A 
ATOM      4  C   UNL     1      84.056  52.829  42.459  0.00  0.00    +0.138 A 
ATOM      5  C   UNL     1      83.197  51.755  42.790  0.00  0.00    +0.101 A 
ATOM      6  C   UNL     1      83.694  50.671  43.540  0.00  0.00    +0.142 A 
ATOM      7  O   UNL     1      82.857  49.580  43.826  0.00  0.00    -0.483 OA
ATOM      8  C   UNL     1      81.439  49.603  43.637  0.00  0.00    +0.132 C 
ATOM      9  C   UNL     1      81.087  50.365  42.354  0.00  0.00    +0.052 C 
ATOM     10  C   UNL     1      81.768  51.697  42.395  0.00  0.00    +0.174 C 
ATOM     11  O   UNL     1      81.099  52.742  42.175  0.00  0.00    -0.292 OA
ENDROOT
BRANCH   8  12
ATOM     12  C   UNL     1      80.900  48.194  43.588  0.00  0.00    -0.007 A 
ATOM     13  C   UNL     1      81.742  47.128  43.227  0.00  0.00    -0.055 A 
ATOM     14  C   UNL     1      81.251  45.820  43.197  0.00  0.00    -0.061 A 
ATOM     15  C   UNL     1      79.920  45.564  43.539  0.00  0.00    -0.062 A 
ATOM     16  C   UNL     1      79.081  46.614  43.920  0.00  0.00    -0.061 A 
ATOM     17  C   UNL     1      79.568  47.924  43.951  0.00  0.00    -0.055 A 
ENDBRANCH   8  12
BRANCH   2  18
ATOM     18  O   UNL     1      87.204  51.786  44.110  0.00  0.00    -0.506 OA
ATOM     19  H   UNL     1      87.757  51.041  43.972  0.00  0.00    +0.000 HD
ENDBRANCH   2  18
BRANCH   4  20
ATOM     20  O   UNL     1      83.632  53.878  41.635  0.00  0.00    -0.506 OA
ATOM     21  H   UNL     1      82.817  54.307  41.805  0.00  0.00    +0.000 HD
ENDBRANCH   4  20
BRANCH   1  22
ATOM     22  C   UNL     1      85.518  49.500  44.852  0.00  0.00    +0.008 C 
BRANCH  22  28
ATOM     23  C   UNL     1      85.541  47.108  43.963  0.00  0.00    +0.120 A 
ATOM     24  C   UNL     1      86.118  46.108  43.167  0.00  0.00    -0.020 A 
ATOM     25  C   UNL     1      87.249  46.384  42.398  0.00  0.00    -0.055 A 
ATOM     26  C   UNL     1      87.816  47.665  42.408  0.00  0.00    -0.042 A 
ATOM     27  C   UNL     1      87.240  48.668  43.202  0.00  0.00    -0.051 A 
ATOM     28  C   UNL     1      86.119  48.395  44.009  0.00  0.00    -0.001 A 
BRANCH  23  29
ATOM     29  O   UNL     1      84.392  46.824  44.698  0.00  0.00    -0.506 OA
ATOM     30  H   UNL     1      84.463  46.451  45.554  0.00  0.00    +0.000 HD
ENDBRANCH  23  29
BRANCH  26  31
ATOM     31  C   UNL     1      88.999  47.972  41.528  0.00  0.00    +0.001 C 
BRANCH  31  32
ATOM     32  C   UNL     1      89.139  49.462  41.338  0.00  0.00    -0.002 A 
ATOM     33  C   UNL     1      88.080  50.196  40.772  0.00  0.00    -0.055 A 
ATOM     34  C   UNL     1      88.180  51.582  40.620  0.00  0.00    -0.061 A 
ATOM     35  C   UNL     1      89.331  52.250  41.041  0.00  0.00    -0.058 A 
ATOM     36  C   UNL     1      90.385  51.534  41.615  0.00  0.00    -0.020 A 
ATOM     37  C   UNL     1      90.296  50.143  41.771  0.00  0.00    +0.120 A 
BRANCH  37  38
ATOM     38  O   UNL     1      91.349  49.439  42.355  0.00  0.00    -0.506 OA
ATOM     39  H   UNL     1      91.742  48.721  41.900  0.00  0.00    +0.000 HD
ENDBRANCH  37  38
ENDBRANCH  31  32
ENDBRANCH  26  31
ENDBRANCH  22  28
ENDBRANCH   1  22
BRANCH   3  40
ATOM     40  C   UNL     1      86.313  53.989  42.581  0.00  0.00    +0.008 C 
BRANCH  40  41
ATOM     41  C   UNL     1      86.094  55.175  43.500  0.00  0.00    -0.001 A 
ATOM     42  C   UNL     1      86.682  55.133  44.779  0.00  0.00    -0.055 A 
ATOM     43  C   UNL     1      86.495  56.176  45.688  0.00  0.00    -0.061 A 
ATOM     44  C   UNL     1      85.718  57.277  45.338  0.00  0.00    -0.058 A 
ATOM     45  C   UNL     1      85.130  57.344  44.076  0.00  0.00    -0.020 A 
ATOM     46  C   UNL     1      85.314  56.313  43.145  0.00  0.00    +0.120 A 
BRANCH  46  47
ATOM     47  O   UNL     1      84.712  56.476  41.894  0.00  0.00    -0.506 OA
ATOM     48  H   UNL     1      83.790  56.347  41.798  0.00  0.00    +0.000 HD
ENDBRANCH  46  47
ENDBRANCH  40  41
ENDBRANCH   3  40
TORSDOF 12
ENDMDL
MODEL 7
REMARK VINA RESULT:   -10.200      2.615      7.401
REMARK INTER + INTRA:         -18.514
REMARK INTER:                 -15.520
REMARK INTRA:                  -2.994
REMARK UNBOUND:                -2.649
REMARK  Name = 
REMARK  12 active torsions:
REMARK  status: ('A' for Active; 'I' for Inactive)
REMARK    1  A    between atoms: O_1  and  C_2
REMARK    2  A    between atoms: C_5  and  C_36
REMARK    3  A    between atoms: C_7  and  C_8
REMARK    4  A    between atoms: C_8  and  C_9
REMARK    5  A    between atoms: C_10  and  O_11
REMARK    6  A    between atoms: C_12  and  C_13
REMARK    7  A    between atoms: C_13  and  C_14
REMARK    8  A    between atoms: C_19  and  O_20
REMARK    9  A    between atoms: C_21  and  O_35
REMARK   10  A    between atoms: C_25  and  C_29
REMARK   11  A    between atoms: C_36  and  C_37
REMARK   12  A    between atoms: C_42  and  O_43
REMARK                            x       y       z     vdW  Elec       q    Type
REMARK                         _______ _______ _______ _____ _____    ______ ____
ROOT
ATOM      1  C   UNL     1      83.628  51.215  43.424  0.00  0.00    +0.041 A 
ATOM      2  C   UNL     1      83.751  49.810  43.284  0.00  0.00    +0.131 A 
ATOM      3  C   UNL     1      84.630  49.085  44.116  0.00  0.00    +0.041 A 
ATOM      4  C   UNL     1      85.414  49.763  45.073  0.00  0.00    +0.138 A 
ATOM      5  C   UNL     1      85.277  51.161  45.235  0.00  0.00    +0.101 A 
ATOM      6  C   UNL     1      84.402  51.878  44.395  0.00  0.00    +0.142 A 
ATOM      7  O   UNL     1      84.302  53.273  44.521  0.00  0.00    -0.483 OA
ATOM      8  C   UNL     1      84.833  54.004  45.631  0.00  0.00    +0.132 C 
ATOM      9  C   UNL     1      86.180  53.413  46.062  0.00  0.00    +0.052 C 
ATOM     10  C   UNL     1      86.006  51.941  46.265  0.00  0.00    +0.174 C 
ATOM     11  O   UNL     1      86.408  51.412  47.336  0.00  0.00    -0.292 OA
ENDROOT
BRANCH   8  12
ATOM     12  C   UNL     1      84.977  55.462  45.269  0.00  0.00    -0.007 A 
ATOM     13  C   UNL     1      84.730  55.891  43.954  0.00  0.00    -0.055 A 
ATOM     14  C   UNL     1      84.846  57.243  43.619  0.00  0.00    -0.061 A 
ATOM     15  C   UNL     1      85.199  58.178  44.595  0.00  0.00    -0.062 A 
ATOM     16  C   UNL     1      85.427  57.765  45.910  0.00  0.00    -0.061 A 
ATOM     17  C   UNL     1      85.311  56.414  46.250  0.00  0.00    -0.055 A 
ENDBRANCH   8  12
BRANCH   2  18
ATOM     18  O   UNL     1      83.020  49.107  42.322  0.00  0.00    -0.506 OA
ATOM     19  H   UNL     1      82.840  49.500  41.489  0.00  0.00    +0.000 HD
ENDBRANCH   2  18
BRANCH   4  20
ATOM     20  O   UNL     1      86.341  49.026  45.818  0.00  0.00    -0.506 OA
ATOM     21  H   UNL     1      87.146  48.752  45.425  0.00  0.00    +0.000 HD
ENDBRANCH   4  20
BRANCH   1  22
ATOM     22  C   UNL     1      82.657  52.010  42.563  0.00  0.00    +0.008 C 
BRANCH  22  28
ATOM     23  C   UNL     1      82.831  54.238  41.330  0.00  0.00    +0.120 A 
ATOM     24  C   UNL     1      83.522  55.107  40.474  0.00  0.00    -0.020 A 
ATOM     25  C   UNL     1      84.757  54.738  39.940  0.00  0.00    -0.055 A 
ATOM     26  C   UNL     1      85.323  53.497  40.259  0.00  0.00    -0.042 A 
ATOM     27  C   UNL     1      84.635  52.625  41.118  0.00  0.00    -0.051 A 
ATOM     28  C   UNL     1      83.373  52.971  41.636  0.00  0.00    -0.001 A 
BRANCH  23  29
ATOM     29  O   UNL     1      81.615  54.638  41.881  0.00  0.00    -0.506 OA
ATOM     30  H   UNL     1      80.812  54.426  41.448  0.00  0.00    +0.000 HD
ENDBRANCH  23  29
BRANCH  26  31
ATOM     31  C   UNL     1      86.684  53.131  39.730  0.00  0.00    +0.001 C 
BRANCH  31  32
ATOM     32  C   UNL     1      87.508  52.474  40.808  0.00  0.00    -0.002 A 
ATOM     33  C   UNL     1      87.143  52.630  42.158  0.00  0.00    -0.055 A 
ATOM     34  C   UNL     1      87.876  52.000  43.168  0.00  0.00    -0.061 A 
ATOM     35  C   UNL     1      88.973  51.200  42.841  0.00  0.00    -0.058 A 
ATOM     36  C   UNL     1      89.338  51.028  41.504  0.00  0.00    -0.020 A 
ATOM     37  C   UNL     1      88.611  51.657  40.482  0.00  0.00    +0.120 A 
BRANCH  37  38
ATOM     38  O   UNL     1      88.978  51.470  39.150  0.00  0.00    -0.506 OA
ATOM     39  H   UNL     1      89.041  52.206  38.573  0.00  0.00    +0.000 HD
ENDBRANCH  37  38
ENDBRANCH  31  32
ENDBRANCH  26  31
ENDBRANCH  22  28
ENDBRANCH   1  22
BRANCH   3  40
ATOM     40  C   UNL     1      84.772  47.584  43.933  0.00  0.00    +0.008 C 
BRANCH  40  41
ATOM     41  C   UNL     1      86.037  47.242  43.170  0.00  0.00    -0.001 A 
ATOM     42  C   UNL     1      86.649  48.265  42.419  0.00  0.00    -0.055 A 
ATOM     43  C   UNL     1      87.797  48.013  41.667  0.00  0.00    -0.061 A 
ATOM     44  C   UNL     1      88.355  46.737  41.650  0.00  0.00    -0.058 A 
ATOM     45  C   UNL     1      87.771  45.709  42.389  0.00  0.00    -0.020 A 
ATOM     46  C   UNL     1      86.624  45.944  43.158  0.00  0.00    +0.120 A 
BRANCH  46  47
ATOM     47  O   UNL     1      86.123  44.864  43.890  0.00  0.00    -0.506 OA
ATOM     48  H   UNL     1      85.355  44.971  44.415  0.00  0.00    +0.000 HD
ENDBRANCH  46  47
ENDBRANCH  40  41
ENDBRANCH   3  40
TORSDOF 12
ENDMDL
MODEL 8
REMARK VINA RESULT:   -10.163      3.110      6.632
REMARK INTER + INTRA:         -18.456
REMARK INTER:                 -15.734
REMARK INTRA:                  -2.722
REMARK UNBOUND:                -2.649
REMARK  Name = 
REMARK  12 active torsions:
REMARK  status: ('A' for Active; 'I' for Inactive)
REMARK    1  A    between atoms: O_1  and  C_2
REMARK    2  A    between atoms: C_5  and  C_36
REMARK    3  A    between atoms: C_7  and  C_8
REMARK    4  A    between atoms: C_8  and  C_9
REMARK    5  A    between atoms: C_10  and  O_11
REMARK    6  A    between atoms: C_12  and  C_13
REMARK    7  A    between atoms: C_13  and  C_14
REMARK    8  A    between atoms: C_19  and  O_20
REMARK    9  A    between atoms: C_21  and  O_35
REMARK   10  A    between atoms: C_25  and  C_29
REMARK   11  A    between atoms: C_36  and  C_37
REMARK   12  A    between atoms: C_42  and  O_43
REMARK                            x       y       z     vdW  Elec       q    Type
REMARK                         _______ _______ _______ _____ _____    ______ ____
ROOT
ATOM      1  C   UNL     1      84.856  52.040  44.381  0.00  0.00    +0.041 A 
ATOM      2  C   UNL     1      85.432  53.324  44.212  0.00  0.00    +0.131 A 
ATOM      3  C   UNL     1      84.835  54.265  43.348  0.00  0.00    +0.041 A 
ATOM      4  C   UNL     1      83.675  53.921  42.624  0.00  0.00    +0.138 A 
ATOM      5  C   UNL     1      83.080  52.651  42.807  0.00  0.00    +0.101 A 
ATOM      6  C   UNL     1      83.687  51.714  43.667  0.00  0.00    +0.142 A 
ATOM      7  O   UNL     1      83.125  50.435  43.811  0.00  0.00    -0.483 OA
ATOM      8  C   UNL     1      81.815  50.093  43.348  0.00  0.00    +0.132 C 
ATOM      9  C   UNL     1      81.532  50.772  42.003  0.00  0.00    +0.052 C 
ATOM     10  C   UNL     1      81.820  52.234  42.143  0.00  0.00    +0.174 C 
ATOM     11  O   UNL     1      80.957  53.073  41.772  0.00  0.00    -0.292 OA
ENDROOT
BRANCH   8  12
ATOM     12  C   UNL     1      81.683  48.593  43.230  0.00  0.00    -0.007 A 
ATOM     13  C   UNL     1      82.767  47.823  42.776  0.00  0.00    -0.055 A 
ATOM     14  C   UNL     1      82.655  46.433  42.682  0.00  0.00    -0.061 A 
ATOM     15  C   UNL     1      81.464  45.801  43.049  0.00  0.00    -0.062 A 
ATOM     16  C   UNL     1      80.387  46.556  43.521  0.00  0.00    -0.061 A 
ATOM     17  C   UNL     1      80.496  47.946  43.618  0.00  0.00    -0.055 A 
ENDBRANCH   8  12
BRANCH   2  18
ATOM     18  O   UNL     1      86.603  53.690  44.882  0.00  0.00    -0.506 OA
ATOM     19  H   UNL     1      86.645  53.637  45.817  0.00  0.00    +0.000 HD
ENDBRANCH   2  18
BRANCH   4  20
ATOM     20  O   UNL     1      83.161  54.845  41.708  0.00  0.00    -0.506 OA
ATOM     21  H   UNL     1      83.697  55.551  41.404  0.00  0.00    +0.000 HD
ENDBRANCH   4  20
BRANCH   1  22
ATOM     22  C   UNL     1      85.462  51.024  45.337  0.00  0.00    +0.008 C 
BRANCH  22  28
ATOM     23  C   UNL     1      87.943  50.464  45.129  0.00  0.00    +0.120 A 
ATOM     24  C   UNL     1      88.984  49.740  44.531  0.00  0.00    -0.020 A 
ATOM     25  C   UNL     1      88.710  48.802  43.536  0.00  0.00    -0.055 A 
ATOM     26  C   UNL     1      87.390  48.568  43.129  0.00  0.00    -0.042 A 
ATOM     27  C   UNL     1      86.345  49.290  43.727  0.00  0.00    -0.051 A 
ATOM     28  C   UNL     1      86.611  50.264  44.708  0.00  0.00    -0.001 A 
BRANCH  23  29
ATOM     29  O   UNL     1      88.233  51.373  46.145  0.00  0.00    -0.506 OA
ATOM     30  H   UNL     1      87.628  51.499  46.849  0.00  0.00    +0.000 HD
ENDBRANCH  23  29
BRANCH  26  31
ATOM     31  C   UNL     1      87.095  47.509  42.100  0.00  0.00    +0.001 C 
BRANCH  31  32
ATOM     32  C   UNL     1      87.145  46.138  42.726  0.00  0.00    -0.002 A 
ATOM     33  C   UNL     1      86.017  45.637  43.400  0.00  0.00    -0.055 A 
ATOM     34  C   UNL     1      86.035  44.355  43.957  0.00  0.00    -0.061 A 
ATOM     35  C   UNL     1      87.175  43.557  43.838  0.00  0.00    -0.058 A 
ATOM     36  C   UNL     1      88.298  44.039  43.160  0.00  0.00    -0.020 A 
ATOM     37  C   UNL     1      88.291  45.325  42.599  0.00  0.00    +0.120 A 
BRANCH  37  38
ATOM     38  O   UNL     1      89.414  45.792  41.916  0.00  0.00    -0.506 OA
ATOM     39  H   UNL     1      89.392  45.883  40.984  0.00  0.00    +0.000 HD
ENDBRANCH  37  38
ENDBRANCH  31  32
ENDBRANCH  26  31
ENDBRANCH  22  28
ENDBRANCH   1  22
BRANCH   3  40
ATOM     40  C   UNL     1      85.482  55.626  43.156  0.00  0.00    +0.008 C 
BRANCH  40  41
ATOM     41  C   UNL     1      85.128  56.568  44.289  0.00  0.00    -0.001 A 
ATOM     42  C   UNL     1      84.365  56.055  45.356  0.00  0.00    -0.055 A 
ATOM     43  C   UNL     1      83.975  56.874  46.417  0.00  0.00    -0.061 A 
ATOM     44  C   UNL     1      84.338  58.218  46.432  0.00  0.00    -0.058 A 
ATOM     45  C   UNL     1      85.097  58.748  45.390  0.00  0.00    -0.020 A 
ATOM     46  C   UNL     1      85.507  57.941  44.321  0.00  0.00    +0.120 A 
BRANCH  46  47
ATOM     47  O   UNL     1      86.289  58.548  43.335  0.00  0.00    -0.506 OA
ATOM     48  H   UNL     1      87.149  58.855  43.542  0.00  0.00    +0.000 HD
ENDBRANCH  46  47
ENDBRANCH  40  41
ENDBRANCH   3  40
TORSDOF 12
ENDMDL
MODEL 9
REMARK VINA RESULT:   -10.078      2.814      5.612
REMARK INTER + INTRA:         -18.323
REMARK INTER:                 -15.674
REMARK INTRA:                  -2.649
REMARK UNBOUND:                -2.649
REMARK  Name = 
REMARK  12 active torsions:
REMARK  status: ('A' for Active; 'I' for Inactive)
REMARK    1  A    between atoms: O_1  and  C_2
REMARK    2  A    between atoms: C_5  and  C_36
REMARK    3  A    between atoms: C_7  and  C_8
REMARK    4  A    between atoms: C_8  and  C_9
REMARK    5  A    between atoms: C_10  and  O_11
REMARK    6  A    between atoms: C_12  and  C_13
REMARK    7  A    between atoms: C_13  and  C_14
REMARK    8  A    between atoms: C_19  and  O_20
REMARK    9  A    between atoms: C_21  and  O_35
REMARK   10  A    between atoms: C_25  and  C_29
REMARK   11  A    between atoms: C_36  and  C_37
REMARK   12  A    between atoms: C_42  and  O_43
REMARK                            x       y       z     vdW  Elec       q    Type
REMARK                         _______ _______ _______ _____ _____    ______ ____
ROOT
ATOM      1  C   UNL     1      85.266  50.313  43.987  0.00  0.00    +0.041 A 
ATOM      2  C   UNL     1      86.209  51.323  43.671  0.00  0.00    +0.131 A 
ATOM      3  C   UNL     1      85.819  52.456  42.928  0.00  0.00    +0.041 A 
ATOM      4  C   UNL     1      84.490  52.575  42.470  0.00  0.00    +0.138 A 
ATOM      5  C   UNL     1      83.538  51.584  42.804  0.00  0.00    +0.101 A 
ATOM      6  C   UNL     1      83.938  50.451  43.540  0.00  0.00    +0.142 A 
ATOM      7  O   UNL     1      83.005  49.442  43.829  0.00  0.00    -0.483 OA
ATOM      8  C   UNL     1      81.594  49.602  43.658  0.00  0.00    +0.132 C 
ATOM      9  C   UNL     1      81.300  50.405  42.386  0.00  0.00    +0.052 C 
ATOM     10  C   UNL     1      82.104  51.666  42.427  0.00  0.00    +0.174 C 
ATOM     11  O   UNL     1      81.535  52.771  42.223  0.00  0.00    -0.292 OA
ENDROOT
BRANCH   8  12
ATOM     12  C   UNL     1      80.922  48.251  43.607  0.00  0.00    -0.007 A 
ATOM     13  C   UNL     1      81.656  47.112  43.230  0.00  0.00    -0.055 A 
ATOM     14  C   UNL     1      81.043  45.857  43.198  0.00  0.00    -0.061 A 
ATOM     15  C   UNL     1      79.697  45.726  43.551  0.00  0.00    -0.062 A 
ATOM     16  C   UNL     1      78.964  46.848  43.947  0.00  0.00    -0.061 A 
ATOM     17  C   UNL     1      79.574  48.106  43.981  0.00  0.00    -0.055 A 
ENDBRANCH   8  12
BRANCH   2  18
ATOM     18  O   UNL     1      87.545  51.224  44.074  0.00  0.00    -0.506 OA
ATOM     19  H   UNL     1      87.954  51.938  44.523  0.00  0.00    +0.000 HD
ENDBRANCH   2  18
BRANCH   4  20
ATOM     20  O   UNL     1      84.158  53.665  41.659  0.00  0.00    -0.506 OA
ATOM     21  H   UNL     1      83.291  54.019  41.681  0.00  0.00    +0.000 HD
ENDBRANCH   4  20
BRANCH   1  22
ATOM     22  C   UNL     1      85.658  49.102  44.821  0.00  0.00    +0.008 C 
BRANCH  22  28
ATOM     23  C   UNL     1      85.260  46.729  43.971  0.00  0.00    +0.120 A 
ATOM     24  C   UNL     1      85.625  45.648  43.156  0.00  0.00    -0.020 A 
ATOM     25  C   UNL     1      86.732  45.743  42.312  0.00  0.00    -0.055 A 
ATOM     26  C   UNL     1      87.486  46.923  42.265  0.00  0.00    -0.042 A 
ATOM     27  C   UNL     1      87.122  48.007  43.078  0.00  0.00    -0.051 A 
ATOM     28  C   UNL     1      86.028  47.913  43.959  0.00  0.00    -0.001 A 
BRANCH  23  29
ATOM     29  O   UNL     1      84.132  46.628  44.783  0.00  0.00    -0.506 OA
ATOM     30  H   UNL     1      83.473  47.293  44.756  0.00  0.00    +0.000 HD
ENDBRANCH  23  29
BRANCH  26  31
ATOM     31  C   UNL     1      88.641  47.041  41.306  0.00  0.00    +0.001 C 
BRANCH  31  32
ATOM     32  C   UNL     1      89.832  47.663  41.992  0.00  0.00    -0.002 A 
ATOM     33  C   UNL     1      90.157  49.009  41.742  0.00  0.00    -0.055 A 
ATOM     34  C   UNL     1      91.236  49.611  42.395  0.00  0.00    -0.061 A 
ATOM     35  C   UNL     1      91.995  48.880  43.311  0.00  0.00    -0.058 A 
ATOM     36  C   UNL     1      91.675  47.547  43.578  0.00  0.00    -0.020 A 
ATOM     37  C   UNL     1      90.594  46.932  42.927  0.00  0.00    +0.120 A 
BRANCH  37  38
ATOM     38  O   UNL     1      90.277  45.603  43.207  0.00  0.00    -0.506 OA
ATOM     39  H   UNL     1      90.712  44.911  42.749  0.00  0.00    +0.000 HD
ENDBRANCH  37  38
ENDBRANCH  31  32
ENDBRANCH  26  31
ENDBRANCH  22  28
ENDBRANCH   1  22
BRANCH   3  40
ATOM     40  C   UNL     1      86.849  53.514  42.571  0.00  0.00    +0.008 C 
BRANCH  40  41
ATOM     41  C   UNL     1      87.750  53.045  41.446  0.00  0.00    -0.001 A 
ATOM     42  C   UNL     1      89.068  52.669  41.773  0.00  0.00    -0.055 A 
ATOM     43  C   UNL     1      89.962  52.258  40.784  0.00  0.00    -0.061 A 
ATOM     44  C   UNL     1      89.559  52.216  39.451  0.00  0.00    -0.058 A 
ATOM     45  C   UNL     1      88.258  52.578  39.103  0.00  0.00    -0.020 A 
ATOM     46  C   UNL     1      87.342  52.984  40.082  0.00  0.00    +0.120 A 
BRANCH  46  47
ATOM     47  O   UNL     1      86.053  53.302  39.648  0.00  0.00    -0.506 OA
ATOM     48  H   UNL     1      85.585  52.708  39.098  0.00  0.00    +0.000 HD
ENDBRANCH  46  47
ENDBRANCH  40  41
ENDBRANCH   3  40
TORSDOF 12
ENDMDL
