=
 OpenBabel09092515023D

 48 53  0  0  1  0  0  0  0  0999 V2000
   85.2720   51.1220   44.2640 C   0  0  0  0  0  0  0  0  0  0  0  0
   86.2450   52.0260   43.7710 C   0  0  0  0  0  0  0  0  0  0  0  0
   85.9870   52.7900   42.6130 C   0  0  0  0  0  0  0  0  0  0  0  0
   84.7680   52.6320   41.9220 C   0  0  0  0  0  0  0  0  0  0  0  0
   83.7820   51.7500   42.4230 C   0  0  0  0  0  0  0  0  0  0  0  0
   84.0510   50.9870   43.5760 C   0  0  0  0  0  0  0  0  0  0  0  0
   83.0930   50.0730   44.0460 O   0  0  0  0  0  0  0  0  0  0  0  0
   81.7370   50.0490   43.5880 C   0  0  1  0  0  3  0  0  0  0  0  0
   81.6790   50.3250   42.0820 C   0  0  0  0  0  2  0  0  0  0  0  0
   82.4450   51.5800   41.8020 C   0  0  0  0  0  0  0  0  0  0  0  0
   81.9110   52.4930   41.1180 O   0  0  0  0  0  0  0  0  0  0  0  0
   81.1040   48.7180   43.9150 C   0  0  0  0  0  0  0  0  0  0  0  0
   79.7110   48.6160   44.0680 C   0  0  0  0  0  3  0  0  0  0  0  0
   79.1200   47.3820   44.3530 C   0  0  0  0  0  3  0  0  0  0  0  0
   79.9140   46.2390   44.4770 C   0  0  0  0  0  3  0  0  0  0  0  0
   81.2970   46.3250   44.3060 C   0  0  0  0  0  3  0  0  0  0  0  0
   81.8920   47.5570   44.0200 C   0  0  0  0  0  3  0  0  0  0  0  0
   87.4820   52.1820   44.4050 O   0  0  0  0  0  0  0  0  0  0  0  0
   87.6310   51.7930   45.2440 H   0  0  0  0  0  0  0  0  0  0  0  0
   84.5820   53.3370   40.7280 O   0  0  0  0  0  0  0  0  0  0  0  0
   84.8060   52.9390   39.9100 H   0  0  0  0  0  0  0  0  0  0  0  0
   85.5150   50.3180   45.5320 C   0  0  0  0  0  2  0  0  0  0  0  0
   86.3320   50.8110   47.8990 C   0  0  0  0  0  0  0  0  0  0  0  0
   86.3930   51.6550   49.0170 C   0  0  0  0  0  3  0  0  0  0  0  0
   85.7490   52.8920   49.0030 C   0  0  0  0  0  3  0  0  0  0  0  0
   85.0400   53.3080   47.8690 C   0  0  0  0  0  0  0  0  0  0  0  0
   84.9790   52.4660   46.7470 C   0  0  0  0  0  3  0  0  0  0  0  0
   85.5950   51.2010   46.7600 C   0  0  0  0  0  0  0  0  0  0  0  0
   87.0100   49.5940   47.9190 O   0  0  0  0  0  0  0  0  0  0  0  0
   86.6440   48.8460   47.4900 H   0  0  0  0  0  0  0  0  0  0  0  0
   84.4000   54.6700   47.8370 C   0  0  0  0  0  2  0  0  0  0  0  0
   84.9930   55.5040   46.7290 C   0  0  0  0  0  0  0  0  0  0  0  0
   86.2190   55.1270   46.1520 C   0  0  0  0  0  3  0  0  0  0  0  0
   86.7650   55.8690   45.1010 C   0  0  0  0  0  3  0  0  0  0  0  0
   86.0890   56.9860   44.6080 C   0  0  0  0  0  3  0  0  0  0  0  0
   84.8640   57.3630   45.1640 C   0  0  0  0  0  3  0  0  0  0  0  0
   84.3070   56.6270   46.2200 C   0  0  0  0  0  0  0  0  0  0  0  0
   83.0790   57.0060   46.7620 O   0  0  0  0  0  0  0  0  0  0  0  0
   83.0350   57.7120   47.3750 H   0  0  0  0  0  0  0  0  0  0  0  0
   87.0530   53.7320   42.0810 C   0  0  0  0  0  2  0  0  0  0  0  0
   88.0310   53.0030   41.1810 C   0  0  0  0  0  0  0  0  0  0  0  0
   89.1450   52.3870   41.7840 C   0  0  0  0  0  3  0  0  0  0  0  0
   90.1030   51.7260   41.0140 C   0  0  0  0  0  3  0  0  0  0  0  0
   89.9670   51.6680   39.6290 C   0  0  0  0  0  3  0  0  0  0  0  0
   88.8710   52.2650   39.0090 C   0  0  0  0  0  3  0  0  0  0  0  0
   87.8930   52.9250   39.7650 C   0  0  0  0  0  0  0  0  0  0  0  0
   86.8140   53.4700   39.0650 O   0  0  0  0  0  0  0  0  0  0  0  0
   86.6080   53.1590   38.2070 H   0  0  0  0  0  0  0  0  0  0  0  0
  1 22  1  0  0  0  0
  2  1  1  0  0  0  0
  2 18  1  0  0  0  0
  3  2  2  0  0  0  0
  4  5  2  0  0  0  0
  4  3  1  0  0  0  0
  5  6  1  0  0  0  0
  6  7  1  0  0  0  0
  6  1  2  0  0  0  0
  8 12  1  6  0  0  0
  8  7  1  0  0  0  0
  9  8  1  0  0  0  0
 10  9  1  0  0  0  0
 10  5  1  0  0  0  0
 11 10  2  0  0  0  0
 12 17  2  0  0  0  0
 12 13  1  0  0  0  0
 13 14  2  0  0  0  0
 14 15  1  0  0  0  0
 16 15  2  0  0  0  0
 17 16  1  0  0  0  0
 18 19  1  0  0  0  0
 20  4  1  0  0  0  0
 21 20  1  0  0  0  0
 22 28  1  0  0  0  0
 23 29  1  0  0  0  0
 23 24  1  0  0  0  0
 25 24  2  0  0  0  0
 26 25  1  0  0  0  0
 27 28  1  0  0  0  0
 27 26  2  0  0  0  0
 28 23  2  0  0  0  0
 30 29  1  0  0  0  0
 31 26  1  0  0  0  0
 32 31  1  0  0  0  0
 33 32  2  0  0  0  0
 34 33  1  0  0  0  0
 35 34  2  0  0  0  0
 35 36  1  0  0  0  0
 36 37  2  0  0  0  0
 37 32  1  0  0  0  0
 37 38  1  0  0  0  0
 38 39  1  0  0  0  0
 40  3  1  0  0  0  0
 41 42  1  0  0  0  0
 41 40  1  0  0  0  0
 43 42  2  0  0  0  0
 44 43  1  0  0  0  0
 45 44  2  0  0  0  0
 45 46  1  0  0  0  0
 46 41  2  0  0  0  0
 47 46  1  0  0  0  0
 48 47  1  0  0  0  0
M  END
>  <MODEL>
1

>  <REMARK>
 VINA RESULT:   -10.991      0.000      0.000
 INTER + INTRA:         -19.744
 INTER:                 -17.314
 INTRA:                  -2.430
 UNBOUND:                -2.649
  Name = 
  12 active torsions:
  status: ('A' for Active; 'I' for Inactive)
    1  A    between atoms: O_1  and  C_2
    2  A    between atoms: C_5  and  C_36
    3  A    between atoms: C_7  and  C_8
    4  A    between atoms: C_8  and  C_9
    5  A    between atoms: C_10  and  O_11
    6  A    between atoms: C_12  and  C_13
    7  A    between atoms: C_13  and  C_14
    8  A    between atoms: C_19  and  O_20
    9  A    between atoms: C_21  and  O_35
   10  A    between atoms: C_25  and  C_29
   11  A    between atoms: C_36  and  C_37
   12  A    between atoms: C_42  and  O_43
                            x       y       z     vdW  Elec       q    Type
                         _______ _______ _______ _____ _____    ______ ____

>  <TORSDO>
F 12

$$$$
=
 OpenBabel09092515023D

 48 53  0  0  1  0  0  0  0  0999 V2000
   84.8250   49.1510   43.8720 C   0  0  0  0  0  0  0  0  0  0  0  0
   85.3180   48.1830   42.9620 C   0  0  0  0  0  0  0  0  0  0  0  0
   86.7020   47.9210   42.8790 C   0  0  0  0  0  0  0  0  0  0  0  0
   87.6050   48.6470   43.6820 C   0  0  0  0  0  0  0  0  0  0  0  0
   87.1190   49.5960   44.6110 C   0  0  0  0  0  0  0  0  0  0  0  0
   85.7360   49.8560   44.6820 C   0  0  0  0  0  0  0  0  0  0  0  0
   85.2560   50.8350   45.5680 O   0  0  0  0  0  0  0  0  0  0  0  0
   86.0490   51.4120   46.6100 C   0  0  1  0  0  3  0  0  0  0  0  0
   87.4860   51.6330   46.1230 C   0  0  0  0  0  2  0  0  0  0  0  0
   87.9920   50.3490   45.5460 C   0  0  0  0  0  0  0  0  0  0  0  0
   89.1050   49.8960   45.9240 O   0  0  0  0  0  0  0  0  0  0  0  0
   85.4320   52.7100   47.0710 C   0  0  0  0  0  0  0  0  0  0  0  0
   84.6200   53.4550   46.1990 C   0  0  0  0  0  3  0  0  0  0  0  0
   84.0340   54.6490   46.6270 C   0  0  0  0  0  3  0  0  0  0  0  0
   84.2440   55.1030   47.9320 C   0  0  0  0  0  3  0  0  0  0  0  0
   85.0330   54.3600   48.8130 C   0  0  0  0  0  3  0  0  0  0  0  0
   85.6210   53.1650   48.3890 C   0  0  0  0  0  3  0  0  0  0  0  0
   84.4580   47.4700   42.1200 O   0  0  0  0  0  0  0  0  0  0  0  0
   83.7150   47.0250   42.4780 H   0  0  0  0  0  0  0  0  0  0  0  0
   88.9760   48.4280   43.5100 O   0  0  0  0  0  0  0  0  0  0  0  0
   89.4220   47.8020   44.0460 H   0  0  0  0  0  0  0  0  0  0  0  0
   83.3340   49.4210   44.0050 C   0  0  0  0  0  2  0  0  0  0  0  0
   81.4950   50.7620   42.8510 C   0  0  0  0  0  0  0  0  0  0  0  0
   81.0950   51.7910   41.9870 C   0  0  0  0  0  3  0  0  0  0  0  0
   82.0470   52.5940   41.3590 C   0  0  0  0  0  3  0  0  0  0  0  0
   83.4130   52.3860   41.5910 C   0  0  0  0  0  0  0  0  0  0  0  0
   83.8160   51.3580   42.4580 C   0  0  0  0  0  3  0  0  0  0  0  0
   82.8680   50.5190   43.0720 C   0  0  0  0  0  0  0  0  0  0  0  0
   80.5290   49.9920   43.4960 O   0  0  0  0  0  0  0  0  0  0  0  0
   80.0760   49.3190   43.0270 H   0  0  0  0  0  0  0  0  0  0  0  0
   84.4330   53.2960   40.9600 C   0  0  0  0  0  2  0  0  0  0  0  0
   84.8750   54.3510   41.9420 C   0  0  0  0  0  0  0  0  0  0  0  0
   84.0490   55.4620   42.1930 C   0  0  0  0  0  3  0  0  0  0  0  0
   84.4280   56.4310   43.1260 C   0  0  0  0  0  3  0  0  0  0  0  0
   85.6280   56.2970   43.8250 C   0  0  0  0  0  3  0  0  0  0  0  0
   86.4520   55.1930   43.5940 C   0  0  0  0  0  3  0  0  0  0  0  0
   86.0820   54.2140   42.6590 C   0  0  0  0  0  0  0  0  0  0  0  0
   86.9070   53.1110   42.4430 O   0  0  0  0  0  0  0  0  0  0  0  0
   87.7540   53.2260   42.0600 H   0  0  0  0  0  0  0  0  0  0  0  0
   87.2160   46.9020   41.8760 C   0  0  0  0  0  2  0  0  0  0  0  0
   87.4890   45.5680   42.5410 C   0  0  0  0  0  0  0  0  0  0  0  0
   86.3820   44.8000   42.9530 C   0  0  0  0  0  3  0  0  0  0  0  0
   86.5600   43.5760   43.6010 C   0  0  0  0  0  3  0  0  0  0  0  0
   87.8440   43.0980   43.8500 C   0  0  0  0  0  3  0  0  0  0  0  0
   88.9550   43.8370   43.4470 C   0  0  0  0  0  3  0  0  0  0  0  0
   88.7980   45.0620   42.7870 C   0  0  0  0  0  0  0  0  0  0  0  0
   89.9660   45.7220   42.3940 O   0  0  0  0  0  0  0  0  0  0  0  0
   89.9440   46.3260   41.6790 H   0  0  0  0  0  0  0  0  0  0  0  0
  1 22  1  0  0  0  0
  1  6  1  0  0  0  0
  2  1  2  0  0  0  0
  3  2  1  0  0  0  0
  3  4  2  0  0  0  0
  4  5  1  0  0  0  0
  5  6  2  0  0  0  0
  5 10  1  0  0  0  0
  6  7  1  0  0  0  0
  7  8  1  0  0  0  0
  8 12  1  6  0  0  0
  9  8  1  0  0  0  0
 10 11  2  0  0  0  0
 10  9  1  0  0  0  0
 12 17  1  0  0  0  0
 13 14  1  0  0  0  0
 13 12  2  0  0  0  0
 14 15  2  0  0  0  0
 15 16  1  0  0  0  0
 17 16  2  0  0  0  0
 18 19  1  0  0  0  0
 18  2  1  0  0  0  0
 20  4  1  0  0  0  0
 20 21  1  0  0  0  0
 23 28  1  0  0  0  0
 23 29  1  0  0  0  0
 24 23  2  0  0  0  0
 25 26  2  0  0  0  0
 25 24  1  0  0  0  0
 26 27  1  0  0  0  0
 27 28  2  0  0  0  0
 28 22  1  0  0  0  0
 30 29  1  0  0  0  0
 31 26  1  0  0  0  0
 31 32  1  0  0  0  0
 32 33  2  0  0  0  0
 32 37  1  0  0  0  0
 33 34  1  0  0  0  0
 34 35  2  0  0  0  0
 36 35  1  0  0  0  0
 37 36  2  0  0  0  0
 38 37  1  0  0  0  0
 39 38  1  0  0  0  0
 40 41  1  0  0  0  0
 40  3  1  0  0  0  0
 41 46  2  0  0  0  0
 41 42  1  0  0  0  0
 42 43  2  0  0  0  0
 43 44  1  0  0  0  0
 45 44  2  0  0  0  0
 46 45  1  0  0  0  0
 47 46  1  0  0  0  0
 48 47  1  0  0  0  0
M  END
>  <MODEL>
2

>  <REMARK>
 VINA RESULT:   -10.569      3.370      6.799
 INTER + INTRA:         -19.087
 INTER:                 -15.525
 INTRA:                  -3.561
 UNBOUND:                -2.649
  Name = 
  12 active torsions:
  status: ('A' for Active; 'I' for Inactive)
    1  A    between atoms: O_1  and  C_2
    2  A    between atoms: C_5  and  C_36
    3  A    between atoms: C_7  and  C_8
    4  A    between atoms: C_8  and  C_9
    5  A    between atoms: C_10  and  O_11
    6  A    between atoms: C_12  and  C_13
    7  A    between atoms: C_13  and  C_14
    8  A    between atoms: C_19  and  O_20
    9  A    between atoms: C_21  and  O_35
   10  A    between atoms: C_25  and  C_29
   11  A    between atoms: C_36  and  C_37
   12  A    between atoms: C_42  and  O_43
                            x       y       z     vdW  Elec       q    Type
                         _______ _______ _______ _____ _____    ______ ____

>  <TORSDO>
F 12

$$$$
=
 OpenBabel09092515023D

 48 53  0  0  1  0  0  0  0  0999 V2000
   86.9120   51.7890   42.2880 C   0  0  0  0  0  0  0  0  0  0  0  0
   87.8740   50.9540   41.6670 C   0  0  0  0  0  0  0  0  0  0  0  0
   88.7300   50.1500   42.4470 C   0  0  0  0  0  0  0  0  0  0  0  0
   88.6520   50.1960   43.8550 C   0  0  0  0  0  0  0  0  0  0  0  0
   87.6770   51.0070   44.4810 C   0  0  0  0  0  0  0  0  0  0  0  0
   86.8300   51.8130   43.6940 C   0  0  0  0  0  0  0  0  0  0  0  0
   85.8960   52.6570   44.3160 O   0  0  0  0  0  0  0  0  0  0  0  0
   85.5510   52.5650   45.7010 C   0  0  1  0  0  3  0  0  0  0  0  0
   86.7960   52.2550   46.5400 C   0  0  0  0  0  2  0  0  0  0  0  0
   87.4760   51.0590   45.9500 C   0  0  0  0  0  0  0  0  0  0  0  0
   87.7880   50.0930   46.6960 O   0  0  0  0  0  0  0  0  0  0  0  0
   84.9010   53.8480   46.1590 C   0  0  0  0  0  0  0  0  0  0  0  0
   85.0410   55.0210   45.3980 C   0  0  0  0  0  3  0  0  0  0  0  0
   84.4270   56.2070   45.8090 C   0  0  0  0  0  3  0  0  0  0  0  0
   83.6610   56.2300   46.9770 C   0  0  0  0  0  3  0  0  0  0  0  0
   83.4990   55.0650   47.7310 C   0  0  0  0  0  3  0  0  0  0  0  0
   84.1100   53.8760   47.3230 C   0  0  0  0  0  3  0  0  0  0  0  0
   88.0090   50.9090   40.2760 O   0  0  0  0  0  0  0  0  0  0  0  0
   88.7710   50.5210   39.8910 H   0  0  0  0  0  0  0  0  0  0  0  0
   89.5760   49.4560   44.5990 O   0  0  0  0  0  0  0  0  0  0  0  0
   89.4460   49.3320   45.5190 H   0  0  0  0  0  0  0  0  0  0  0  0
   85.9530   52.6340   41.4640 C   0  0  0  0  0  2  0  0  0  0  0  0
   83.4510   52.9290   41.0550 C   0  0  0  0  0  0  0  0  0  0  0  0
   82.1210   52.5770   41.3260 C   0  0  0  0  0  3  0  0  0  0  0  0
   81.8310   51.5720   42.2500 C   0  0  0  0  0  3  0  0  0  0  0  0
   82.8670   50.9010   42.9120 C   0  0  0  0  0  0  0  0  0  0  0  0
   84.1990   51.2490   42.6420 C   0  0  0  0  0  3  0  0  0  0  0  0
   84.5050   52.2840   41.7370 C   0  0  0  0  0  0  0  0  0  0  0  0
   83.7220   53.9110   40.1040 O   0  0  0  0  0  0  0  0  0  0  0  0
   84.4730   53.8330   39.5510 H   0  0  0  0  0  0  0  0  0  0  0  0
   82.5500   49.7760   43.8610 C   0  0  0  0  0  2  0  0  0  0  0  0
   83.5380   48.6490   43.6900 C   0  0  0  0  0  0  0  0  0  0  0  0
   84.8680   48.8160   44.1170 C   0  0  0  0  0  3  0  0  0  0  0  0
   85.7870   47.7700   43.9970 C   0  0  0  0  0  3  0  0  0  0  0  0
   85.3870   46.5450   43.4600 C   0  0  0  0  0  3  0  0  0  0  0  0
   84.0660   46.3620   43.0430 C   0  0  0  0  0  3  0  0  0  0  0  0
   83.1350   47.4060   43.1580 C   0  0  0  0  0  0  0  0  0  0  0  0
   81.8160   47.2100   42.7480 O   0  0  0  0  0  0  0  0  0  0  0  0
   81.3230   47.9260   42.3990 H   0  0  0  0  0  0  0  0  0  0  0  0
   89.7760   49.2840   41.7670 C   0  0  0  0  0  2  0  0  0  0  0  0
   89.5350   47.8130   42.0420 C   0  0  0  0  0  0  0  0  0  0  0  0
   88.4160   47.2060   41.4400 C   0  0  0  0  0  3  0  0  0  0  0  0
   88.1150   45.8630   41.6750 C   0  0  0  0  0  3  0  0  0  0  0  0
   88.9240   45.1030   42.5160 C   0  0  0  0  0  3  0  0  0  0  0  0
   90.0400   45.6790   43.1200 C   0  0  0  0  0  3  0  0  0  0  0  0
   90.3660   47.0220   42.8890 C   0  0  0  0  0  0  0  0  0  0  0  0
   91.5170   47.5100   43.5120 O   0  0  0  0  0  0  0  0  0  0  0  0
   92.1600   47.9720   43.0120 H   0  0  0  0  0  0  0  0  0  0  0  0
  1  6  1  0  0  0  0
  2  1  2  0  0  0  0
  2  3  1  0  0  0  0
  3  4  2  0  0  0  0
  4  5  1  0  0  0  0
  4 20  1  0  0  0  0
  5 10  1  0  0  0  0
  6  7  1  0  0  0  0
  6  5  2  0  0  0  0
  7  8  1  0  0  0  0
  8 12  1  1  0  0  0
  8  9  1  0  0  0  0
 10  9  1  0  0  0  0
 10 11  2  0  0  0  0
 12 17  1  0  0  0  0
 13 14  1  0  0  0  0
 13 12  2  0  0  0  0
 14 15  2  0  0  0  0
 15 16  1  0  0  0  0
 17 16  2  0  0  0  0
 18  2  1  0  0  0  0
 19 18  1  0  0  0  0
 20 21  1  0  0  0  0
 22 28  1  0  0  0  0
 22  1  1  0  0  0  0
 23 24  2  0  0  0  0
 23 28  1  0  0  0  0
 24 25  1  0  0  0  0
 25 26  2  0  0  0  0
 26 31  1  0  0  0  0
 27 26  1  0  0  0  0
 28 27  2  0  0  0  0
 29 23  1  0  0  0  0
 30 29  1  0  0  0  0
 32 31  1  0  0  0  0
 32 33  1  0  0  0  0
 34 33  2  0  0  0  0
 35 34  1  0  0  0  0
 36 37  1  0  0  0  0
 36 35  2  0  0  0  0
 37 32  2  0  0  0  0
 38 37  1  0  0  0  0
 39 38  1  0  0  0  0
 40 41  1  0  0  0  0
 40  3  1  0  0  0  0
 41 46  1  0  0  0  0
 42 43  1  0  0  0  0
 42 41  2  0  0  0  0
 43 44  2  0  0  0  0
 44 45  1  0  0  0  0
 46 45  2  0  0  0  0
 46 47  1  0  0  0  0
 48 47  1  0  0  0  0
M  END
>  <MODEL>
3

>  <REMARK>
 VINA RESULT:   -10.544      2.926      7.277
 INTER + INTRA:         -19.049
 INTER:                 -17.208
 INTRA:                  -1.841
 UNBOUND:                -2.649
  Name = 
  12 active torsions:
  status: ('A' for Active; 'I' for Inactive)
    1  A    between atoms: O_1  and  C_2
    2  A    between atoms: C_5  and  C_36
    3  A    between atoms: C_7  and  C_8
    4  A    between atoms: C_8  and  C_9
    5  A    between atoms: C_10  and  O_11
    6  A    between atoms: C_12  and  C_13
    7  A    between atoms: C_13  and  C_14
    8  A    between atoms: C_19  and  O_20
    9  A    between atoms: C_21  and  O_35
   10  A    between atoms: C_25  and  C_29
   11  A    between atoms: C_36  and  C_37
   12  A    between atoms: C_42  and  O_43
                            x       y       z     vdW  Elec       q    Type
                         _______ _______ _______ _____ _____    ______ ____

>  <TORSDO>
F 12

$$$$
=
 OpenBabel09092515023D

 48 53  0  0  1  0  0  0  0  0999 V2000
   86.8940   52.3500   42.2490 C   0  0  0  0  0  0  0  0  0  0  0  0
   87.6010   51.1700   41.9080 C   0  0  0  0  0  0  0  0  0  0  0  0
   88.0920   50.3160   42.9170 C   0  0  0  0  0  0  0  0  0  0  0  0
   87.9060   50.6500   44.2750 C   0  0  0  0  0  0  0  0  0  0  0  0
   87.1800   51.8130   44.6220 C   0  0  0  0  0  0  0  0  0  0  0  0
   86.6990   52.6640   43.6080 C   0  0  0  0  0  0  0  0  0  0  0  0
   86.0220   53.8450   43.9530 O   0  0  0  0  0  0  0  0  0  0  0  0
   85.5430   54.1220   45.2730 C   0  0  1  0  0  3  0  0  0  0  0  0
   86.5500   53.6290   46.3180 C   0  0  0  0  0  2  0  0  0  0  0  0
   86.8750   52.1990   46.0230 C   0  0  0  0  0  0  0  0  0  0  0  0
   86.8040   51.3440   46.9450 O   0  0  0  0  0  0  0  0  0  0  0  0
   85.2860   55.6010   45.4300 C   0  0  0  0  0  0  0  0  0  0  0  0
   84.3140   56.0570   46.3370 C   0  0  0  0  0  3  0  0  0  0  0  0
   84.0850   57.4260   46.4980 C   0  0  0  0  0  3  0  0  0  0  0  0
   84.8320   58.3510   45.7640 C   0  0  0  0  0  3  0  0  0  0  0  0
   85.8150   57.9100   44.8750 C   0  0  0  0  0  3  0  0  0  0  0  0
   86.0480   56.5410   44.7110 C   0  0  0  0  0  3  0  0  0  0  0  0
   87.8390   50.8250   40.5740 O   0  0  0  0  0  0  0  0  0  0  0  0
   87.4950   51.3560   39.8830 H   0  0  0  0  0  0  0  0  0  0  0  0
   88.4850   49.8290   45.2490 O   0  0  0  0  0  0  0  0  0  0  0  0
   88.4380   50.0700   46.1530 H   0  0  0  0  0  0  0  0  0  0  0  0
   86.3230   53.2650   41.1760 C   0  0  0  0  0  2  0  0  0  0  0  0
   84.3650   54.8310   41.6550 C   0  0  0  0  0  0  0  0  0  0  0  0
   82.9910   55.0470   41.8330 C   0  0  0  0  0  3  0  0  0  0  0  0
   82.0900   53.9870   41.7200 C   0  0  0  0  0  3  0  0  0  0  0  0
   82.5490   52.6980   41.4180 C   0  0  0  0  0  0  0  0  0  0  0  0
   83.9230   52.4800   41.2360 C   0  0  0  0  0  3  0  0  0  0  0  0
   84.8460   53.5320   41.3820 C   0  0  0  0  0  0  0  0  0  0  0  0
   85.2460   55.9070   41.7390 O   0  0  0  0  0  0  0  0  0  0  0  0
   85.0500   56.6320   42.2990 H   0  0  0  0  0  0  0  0  0  0  0  0
   81.5660   51.5730   41.2350 C   0  0  0  0  0  2  0  0  0  0  0  0
   81.7520   50.5320   42.3100 C   0  0  0  0  0  0  0  0  0  0  0  0
   83.0400   50.2640   42.8080 C   0  0  0  0  0  3  0  0  0  0  0  0
   83.2260   49.3280   43.8290 C   0  0  0  0  0  3  0  0  0  0  0  0
   82.1280   48.6570   44.3700 C   0  0  0  0  0  3  0  0  0  0  0  0
   80.8420   48.9220   43.8940 C   0  0  0  0  0  3  0  0  0  0  0  0
   80.6440   49.8590   42.8680 C   0  0  0  0  0  0  0  0  0  0  0  0
   79.3550   50.1240   42.4060 O   0  0  0  0  0  0  0  0  0  0  0  0
   78.9190   49.5060   41.8520 H   0  0  0  0  0  0  0  0  0  0  0  0
   88.8730   49.0710   42.5340 C   0  0  0  0  0  2  0  0  0  0  0  0
   87.9820   47.8450   42.5210 C   0  0  0  0  0  0  0  0  0  0  0  0
   86.6050   48.0310   42.7550 C   0  0  0  0  0  3  0  0  0  0  0  0
   85.7300   46.9440   42.7900 C   0  0  0  0  0  3  0  0  0  0  0  0
   86.2130   45.6530   42.5920 C   0  0  0  0  0  3  0  0  0  0  0  0
   87.5700   45.4430   42.3540 C   0  0  0  0  0  3  0  0  0  0  0  0
   88.4630   46.5220   42.3050 C   0  0  0  0  0  0  0  0  0  0  0  0
   89.8010   46.2230   42.0320 O   0  0  0  0  0  0  0  0  0  0  0  0
   90.4370   46.2570   42.7180 H   0  0  0  0  0  0  0  0  0  0  0  0
  1  6  1  0  0  0  0
  2  1  2  0  0  0  0
  2  3  1  0  0  0  0
  3  4  2  0  0  0  0
  4  5  1  0  0  0  0
  4 20  1  0  0  0  0
  5 10  1  0  0  0  0
  6  7  1  0  0  0  0
  6  5  2  0  0  0  0
  7  8  1  0  0  0  0
  8 12  1  6  0  0  0
  8  9  1  0  0  0  0
 10  9  1  0  0  0  0
 10 11  2  0  0  0  0
 12 13  1  0  0  0  0
 13 14  2  0  0  0  0
 15 14  1  0  0  0  0
 16 15  2  0  0  0  0
 17 16  1  0  0  0  0
 17 12  2  0  0  0  0
 18  2  1  0  0  0  0
 19 18  1  0  0  0  0
 20 21  1  0  0  0  0
 22 28  1  0  0  0  0
 22  1  1  0  0  0  0
 23 29  1  0  0  0  0
 23 24  1  0  0  0  0
 25 24  2  0  0  0  0
 26 25  1  0  0  0  0
 27 28  1  0  0  0  0
 27 26  2  0  0  0  0
 28 23  2  0  0  0  0
 29 30  1  0  0  0  0
 31 26  1  0  0  0  0
 31 32  1  0  0  0  0
 32 33  2  0  0  0  0
 32 37  1  0  0  0  0
 33 34  1  0  0  0  0
 34 35  2  0  0  0  0
 36 35  1  0  0  0  0
 37 36  2  0  0  0  0
 38 37  1  0  0  0  0
 39 38  1  0  0  0  0
 40  3  1  0  0  0  0
 41 40  1  0  0  0  0
 41 42  1  0  0  0  0
 42 43  2  0  0  0  0
 44 43  1  0  0  0  0
 45 44  2  0  0  0  0
 46 45  1  0  0  0  0
 46 41  2  0  0  0  0
 47 46  1  0  0  0  0
 47 48  1  0  0  0  0
M  END
>  <MODEL>
4

>  <REMARK>
 VINA RESULT:   -10.318      2.718      7.434
 INTER + INTRA:         -18.698
 INTER:                 -16.652
 INTRA:                  -2.045
 UNBOUND:                -2.649
  Name = 
  12 active torsions:
  status: ('A' for Active; 'I' for Inactive)
    1  A    between atoms: O_1  and  C_2
    2  A    between atoms: C_5  and  C_36
    3  A    between atoms: C_7  and  C_8
    4  A    between atoms: C_8  and  C_9
    5  A    between atoms: C_10  and  O_11
    6  A    between atoms: C_12  and  C_13
    7  A    between atoms: C_13  and  C_14
    8  A    between atoms: C_19  and  O_20
    9  A    between atoms: C_21  and  O_35
   10  A    between atoms: C_25  and  C_29
   11  A    between atoms: C_36  and  C_37
   12  A    between atoms: C_42  and  O_43
                            x       y       z     vdW  Elec       q    Type
                         _______ _______ _______ _____ _____    ______ ____

>  <TORSDO>
F 12

$$$$
=
 OpenBabel09092515023D

 48 53  0  0  1  0  0  0  0  0999 V2000
   84.8360   50.3760   44.0110 C   0  0  0  0  0  0  0  0  0  0  0  0
   86.2000   50.7580   44.0080 C   0  0  0  0  0  0  0  0  0  0  0  0
   87.1970   49.8390   43.6210 C   0  0  0  0  0  0  0  0  0  0  0  0
   86.8410   48.5220   43.2620 C   0  0  0  0  0  0  0  0  0  0  0  0
   85.4780   48.1420   43.2380 C   0  0  0  0  0  0  0  0  0  0  0  0
   84.4900   49.0650   43.6340 C   0  0  0  0  0  0  0  0  0  0  0  0
   83.1420   48.6730   43.6580 O   0  0  0  0  0  0  0  0  0  0  0  0
   82.6590   47.4700   43.0510 C   0  0  1  0  0  3  0  0  0  0  0  0
   83.6640   46.3310   43.2550 C   0  0  0  0  0  2  0  0  0  0  0  0
   85.0100   46.8030   42.8030 C   0  0  0  0  0  0  0  0  0  0  0  0
   85.6780   46.0950   42.0030 O   0  0  0  0  0  0  0  0  0  0  0  0
   81.3110   47.1060   43.6240 C   0  0  0  0  0  0  0  0  0  0  0  0
   81.2000   46.0620   44.5590 C   0  0  0  0  0  3  0  0  0  0  0  0
   79.9560   45.7330   45.1050 C   0  0  0  0  0  3  0  0  0  0  0  0
   78.8160   46.4490   44.7310 C   0  0  0  0  0  3  0  0  0  0  0  0
   78.9190   47.5020   43.8180 C   0  0  0  0  0  3  0  0  0  0  0  0
   80.1610   47.8350   43.2700 C   0  0  0  0  0  3  0  0  0  0  0  0
   86.5980   52.0420   44.3950 O   0  0  0  0  0  0  0  0  0  0  0  0
   86.1630   52.4740   45.1040 H   0  0  0  0  0  0  0  0  0  0  0  0
   87.8610   47.6100   42.9710 O   0  0  0  0  0  0  0  0  0  0  0  0
   87.6810   46.6900   42.9700 H   0  0  0  0  0  0  0  0  0  0  0  0
   83.7420   51.3640   44.3890 C   0  0  0  0  0  2  0  0  0  0  0  0
   82.3100   51.9880   42.3700 C   0  0  0  0  0  0  0  0  0  0  0  0
   81.9980   52.8630   41.3200 C   0  0  0  0  0  3  0  0  0  0  0  0
   82.7280   54.0390   41.1410 C   0  0  0  0  0  3  0  0  0  0  0  0
   83.7750   54.3610   42.0140 C   0  0  0  0  0  0  0  0  0  0  0  0
   84.0880   53.4890   43.0680 C   0  0  0  0  0  3  0  0  0  0  0  0
   83.3830   52.2830   43.2390 C   0  0  0  0  0  0  0  0  0  0  0  0
   81.5490   50.8350   42.5530 O   0  0  0  0  0  0  0  0  0  0  0  0
   81.4490   50.4710   43.4100 H   0  0  0  0  0  0  0  0  0  0  0  0
   84.5160   55.6620   41.8530 C   0  0  0  0  0  2  0  0  0  0  0  0
   85.0160   56.1500   43.1900 C   0  0  0  0  0  0  0  0  0  0  0  0
   84.1920   56.9650   43.9880 C   0  0  0  0  0  3  0  0  0  0  0  0
   84.6260   57.3970   45.2440 C   0  0  0  0  0  3  0  0  0  0  0  0
   85.8820   57.0140   45.7200 C   0  0  0  0  0  3  0  0  0  0  0  0
   86.7040   56.1960   44.9430 C   0  0  0  0  0  3  0  0  0  0  0  0
   86.2790   55.7570   43.6790 C   0  0  0  0  0  0  0  0  0  0  0  0
   87.1040   54.9320   42.9150 O   0  0  0  0  0  0  0  0  0  0  0  0
   87.1040   54.0070   43.0580 H   0  0  0  0  0  0  0  0  0  0  0  0
   88.6580   50.2550   43.6530 C   0  0  0  0  0  2  0  0  0  0  0  0
   89.0820   50.8700   42.3340 C   0  0  0  0  0  0  0  0  0  0  0  0
   88.8900   52.2550   42.1630 C   0  0  0  0  0  3  0  0  0  0  0  0
   89.2270   52.8830   40.9630 C   0  0  0  0  0  3  0  0  0  0  0  0
   89.7620   52.1410   39.9120 C   0  0  0  0  0  3  0  0  0  0  0  0
   89.9670   50.7700   40.0590 C   0  0  0  0  0  3  0  0  0  0  0  0
   89.6440   50.1230   41.2590 C   0  0  0  0  0  0  0  0  0  0  0  0
   89.9100   48.7520   41.3290 O   0  0  0  0  0  0  0  0  0  0  0  0
   90.6860   48.4050   40.9380 H   0  0  0  0  0  0  0  0  0  0  0  0
  1 22  1  0  0  0  0
  2  1  1  0  0  0  0
  2 18  1  0  0  0  0
  3 40  1  0  0  0  0
  3  2  2  0  0  0  0
  4  3  1  0  0  0  0
  5  4  2  0  0  0  0
  5  6  1  0  0  0  0
  6  7  1  0  0  0  0
  6  1  2  0  0  0  0
  8  9  1  0  0  0  0
  8 12  1  1  0  0  0
  8  7  1  0  0  0  0
 10  5  1  0  0  0  0
 10  9  1  0  0  0  0
 11 10  2  0  0  0  0
 12 13  1  0  0  0  0
 13 14  2  0  0  0  0
 15 14  1  0  0  0  0
 16 15  2  0  0  0  0
 17 12  2  0  0  0  0
 17 16  1  0  0  0  0
 18 19  1  0  0  0  0
 20  4  1  0  0  0  0
 21 20  1  0  0  0  0
 23 29  1  0  0  0  0
 23 28  1  0  0  0  0
 24 23  2  0  0  0  0
 25 24  1  0  0  0  0
 25 26  2  0  0  0  0
 26 27  1  0  0  0  0
 27 28  2  0  0  0  0
 28 22  1  0  0  0  0
 29 30  1  0  0  0  0
 31 26  1  0  0  0  0
 31 32  1  0  0  0  0
 32 37  2  0  0  0  0
 32 33  1  0  0  0  0
 33 34  2  0  0  0  0
 34 35  1  0  0  0  0
 36 35  2  0  0  0  0
 37 36  1  0  0  0  0
 38 39  1  0  0  0  0
 38 37  1  0  0  0  0
 41 40  1  0  0  0  0
 42 41  1  0  0  0  0
 43 42  2  0  0  0  0
 44 45  2  0  0  0  0
 44 43  1  0  0  0  0
 45 46  1  0  0  0  0
 46 47  1  0  0  0  0
 46 41  2  0  0  0  0
 48 47  1  0  0  0  0
M  END
>  <MODEL>
5

>  <REMARK>
 VINA RESULT:   -10.315      2.459      4.291
 INTER + INTRA:         -18.693
 INTER:                 -15.841
 INTRA:                  -2.852
 UNBOUND:                -2.649
  Name = 
  12 active torsions:
  status: ('A' for Active; 'I' for Inactive)
    1  A    between atoms: O_1  and  C_2
    2  A    between atoms: C_5  and  C_36
    3  A    between atoms: C_7  and  C_8
    4  A    between atoms: C_8  and  C_9
    5  A    between atoms: C_10  and  O_11
    6  A    between atoms: C_12  and  C_13
    7  A    between atoms: C_13  and  C_14
    8  A    between atoms: C_19  and  O_20
    9  A    between atoms: C_21  and  O_35
   10  A    between atoms: C_25  and  C_29
   11  A    between atoms: C_36  and  C_37
   12  A    between atoms: C_42  and  O_43
                            x       y       z     vdW  Elec       q    Type
                         _______ _______ _______ _____ _____    ______ ____

>  <TORSDO>
F 12

$$$$
=
 OpenBabel09092515023D

 48 53  0  0  1  0  0  0  0  0999 V2000
   85.0240   50.6630   44.0040 C   0  0  0  0  0  0  0  0  0  0  0  0
   85.8700   51.7550   43.6910 C   0  0  0  0  0  0  0  0  0  0  0  0
   85.3830   52.8410   42.9340 C   0  0  0  0  0  0  0  0  0  0  0  0
   84.0560   52.8290   42.4590 C   0  0  0  0  0  0  0  0  0  0  0  0
   83.1970   51.7550   42.7900 C   0  0  0  0  0  0  0  0  0  0  0  0
   83.6940   50.6710   43.5400 C   0  0  0  0  0  0  0  0  0  0  0  0
   82.8570   49.5800   43.8260 O   0  0  0  0  0  0  0  0  0  0  0  0
   81.4390   49.6030   43.6370 C   0  0  1  0  0  3  0  0  0  0  0  0
   81.0870   50.3650   42.3540 C   0  0  0  0  0  2  0  0  0  0  0  0
   81.7680   51.6970   42.3950 C   0  0  0  0  0  0  0  0  0  0  0  0
   81.0990   52.7420   42.1750 O   0  0  0  0  0  0  0  0  0  0  0  0
   80.9000   48.1940   43.5880 C   0  0  0  0  0  0  0  0  0  0  0  0
   81.7420   47.1280   43.2270 C   0  0  0  0  0  3  0  0  0  0  0  0
   81.2510   45.8200   43.1970 C   0  0  0  0  0  3  0  0  0  0  0  0
   79.9200   45.5640   43.5390 C   0  0  0  0  0  3  0  0  0  0  0  0
   79.0810   46.6140   43.9200 C   0  0  0  0  0  3  0  0  0  0  0  0
   79.5680   47.9240   43.9510 C   0  0  0  0  0  3  0  0  0  0  0  0
   87.2040   51.7860   44.1100 O   0  0  0  0  0  0  0  0  0  0  0  0
   87.7570   51.0410   43.9720 H   0  0  0  0  0  0  0  0  0  0  0  0
   83.6320   53.8780   41.6350 O   0  0  0  0  0  0  0  0  0  0  0  0
   82.8170   54.3070   41.8050 H   0  0  0  0  0  0  0  0  0  0  0  0
   85.5180   49.5000   44.8520 C   0  0  0  0  0  2  0  0  0  0  0  0
   85.5410   47.1080   43.9630 C   0  0  0  0  0  0  0  0  0  0  0  0
   86.1180   46.1080   43.1670 C   0  0  0  0  0  3  0  0  0  0  0  0
   87.2490   46.3840   42.3980 C   0  0  0  0  0  3  0  0  0  0  0  0
   87.8160   47.6650   42.4080 C   0  0  0  0  0  0  0  0  0  0  0  0
   87.2400   48.6680   43.2020 C   0  0  0  0  0  3  0  0  0  0  0  0
   86.1190   48.3950   44.0090 C   0  0  0  0  0  0  0  0  0  0  0  0
   84.3920   46.8240   44.6980 O   0  0  0  0  0  0  0  0  0  0  0  0
   84.4630   46.4510   45.5540 H   0  0  0  0  0  0  0  0  0  0  0  0
   88.9990   47.9720   41.5280 C   0  0  0  0  0  2  0  0  0  0  0  0
   89.1390   49.4620   41.3380 C   0  0  0  0  0  0  0  0  0  0  0  0
   88.0800   50.1960   40.7720 C   0  0  0  0  0  3  0  0  0  0  0  0
   88.1800   51.5820   40.6200 C   0  0  0  0  0  3  0  0  0  0  0  0
   89.3310   52.2500   41.0410 C   0  0  0  0  0  3  0  0  0  0  0  0
   90.3850   51.5340   41.6150 C   0  0  0  0  0  3  0  0  0  0  0  0
   90.2960   50.1430   41.7710 C   0  0  0  0  0  0  0  0  0  0  0  0
   91.3490   49.4390   42.3550 O   0  0  0  0  0  0  0  0  0  0  0  0
   91.7420   48.7210   41.9000 H   0  0  0  0  0  0  0  0  0  0  0  0
   86.3130   53.9890   42.5810 C   0  0  0  0  0  2  0  0  0  0  0  0
   86.0940   55.1750   43.5000 C   0  0  0  0  0  0  0  0  0  0  0  0
   86.6820   55.1330   44.7790 C   0  0  0  0  0  3  0  0  0  0  0  0
   86.4950   56.1760   45.6880 C   0  0  0  0  0  3  0  0  0  0  0  0
   85.7180   57.2770   45.3380 C   0  0  0  0  0  3  0  0  0  0  0  0
   85.1300   57.3440   44.0760 C   0  0  0  0  0  3  0  0  0  0  0  0
   85.3140   56.3130   43.1450 C   0  0  0  0  0  0  0  0  0  0  0  0
   84.7120   56.4760   41.8940 O   0  0  0  0  0  0  0  0  0  0  0  0
   83.7900   56.3470   41.7980 H   0  0  0  0  0  0  0  0  0  0  0  0
  1 22  1  0  0  0  0
  2  1  1  0  0  0  0
  2 18  1  0  0  0  0
  3  2  2  0  0  0  0
  4  5  2  0  0  0  0
  4  3  1  0  0  0  0
  5  6  1  0  0  0  0
  6  7  1  0  0  0  0
  6  1  2  0  0  0  0
  8 12  1  6  0  0  0
  8  7  1  0  0  0  0
  9 10  1  0  0  0  0
  9  8  1  0  0  0  0
 10  5  1  0  0  0  0
 11 10  2  0  0  0  0
 12 17  1  0  0  0  0
 13 12  2  0  0  0  0
 14 13  1  0  0  0  0
 14 15  2  0  0  0  0
 15 16  1  0  0  0  0
 16 17  2  0  0  0  0
 19 18  1  0  0  0  0
 20 21  1  0  0  0  0
 20  4  1  0  0  0  0
 23 28  1  0  0  0  0
 23 29  1  0  0  0  0
 24 23  2  0  0  0  0
 25 26  2  0  0  0  0
 25 24  1  0  0  0  0
 26 27  1  0  0  0  0
 27 28  2  0  0  0  0
 28 22  1  0  0  0  0
 29 30  1  0  0  0  0
 31 26  1  0  0  0  0
 32 31  1  0  0  0  0
 32 37  1  0  0  0  0
 33 32  2  0  0  0  0
 34 33  1  0  0  0  0
 34 35  2  0  0  0  0
 35 36  1  0  0  0  0
 36 37  2  0  0  0  0
 37 38  1  0  0  0  0
 39 38  1  0  0  0  0
 40  3  1  0  0  0  0
 40 41  1  0  0  0  0
 41 42  1  0  0  0  0
 42 43  2  0  0  0  0
 44 43  1  0  0  0  0
 45 44  2  0  0  0  0
 46 41  2  0  0  0  0
 46 45  1  0  0  0  0
 47 46  1  0  0  0  0
 48 47  1  0  0  0  0
M  END
>  <MODEL>
6

>  <REMARK>
 VINA RESULT:   -10.289      2.222      5.508
 INTER + INTRA:         -18.652
 INTER:                 -15.692
 INTRA:                  -2.960
 UNBOUND:                -2.649
  Name = 
  12 active torsions:
  status: ('A' for Active; 'I' for Inactive)
    1  A    between atoms: O_1  and  C_2
    2  A    between atoms: C_5  and  C_36
    3  A    between atoms: C_7  and  C_8
    4  A    between atoms: C_8  and  C_9
    5  A    between atoms: C_10  and  O_11
    6  A    between atoms: C_12  and  C_13
    7  A    between atoms: C_13  and  C_14
    8  A    between atoms: C_19  and  O_20
    9  A    between atoms: C_21  and  O_35
   10  A    between atoms: C_25  and  C_29
   11  A    between atoms: C_36  and  C_37
   12  A    between atoms: C_42  and  O_43
                            x       y       z     vdW  Elec       q    Type
                         _______ _______ _______ _____ _____    ______ ____

>  <TORSDO>
F 12

$$$$
=
 OpenBabel09092515023D

 48 53  0  0  1  0  0  0  0  0999 V2000
   83.6280   51.2150   43.4240 C   0  0  0  0  0  0  0  0  0  0  0  0
   83.7510   49.8100   43.2840 C   0  0  0  0  0  0  0  0  0  0  0  0
   84.6300   49.0850   44.1160 C   0  0  0  0  0  0  0  0  0  0  0  0
   85.4140   49.7630   45.0730 C   0  0  0  0  0  0  0  0  0  0  0  0
   85.2770   51.1610   45.2350 C   0  0  0  0  0  0  0  0  0  0  0  0
   84.4020   51.8780   44.3950 C   0  0  0  0  0  0  0  0  0  0  0  0
   84.3020   53.2730   44.5210 O   0  0  0  0  0  0  0  0  0  0  0  0
   84.8330   54.0040   45.6310 C   0  0  1  0  0  3  0  0  0  0  0  0
   86.1800   53.4130   46.0620 C   0  0  0  0  0  2  0  0  0  0  0  0
   86.0060   51.9410   46.2650 C   0  0  0  0  0  0  0  0  0  0  0  0
   86.4080   51.4120   47.3360 O   0  0  0  0  0  0  0  0  0  0  0  0
   84.9770   55.4620   45.2690 C   0  0  0  0  0  0  0  0  0  0  0  0
   84.7300   55.8910   43.9540 C   0  0  0  0  0  3  0  0  0  0  0  0
   84.8460   57.2430   43.6190 C   0  0  0  0  0  3  0  0  0  0  0  0
   85.1990   58.1780   44.5950 C   0  0  0  0  0  3  0  0  0  0  0  0
   85.4270   57.7650   45.9100 C   0  0  0  0  0  3  0  0  0  0  0  0
   85.3110   56.4140   46.2500 C   0  0  0  0  0  3  0  0  0  0  0  0
   83.0200   49.1070   42.3220 O   0  0  0  0  0  0  0  0  0  0  0  0
   82.8400   49.5000   41.4890 H   0  0  0  0  0  0  0  0  0  0  0  0
   86.3410   49.0260   45.8180 O   0  0  0  0  0  0  0  0  0  0  0  0
   87.1460   48.7520   45.4250 H   0  0  0  0  0  0  0  0  0  0  0  0
   82.6570   52.0100   42.5630 C   0  0  0  0  0  2  0  0  0  0  0  0
   82.8310   54.2380   41.3300 C   0  0  0  0  0  0  0  0  0  0  0  0
   83.5220   55.1070   40.4740 C   0  0  0  0  0  3  0  0  0  0  0  0
   84.7570   54.7380   39.9400 C   0  0  0  0  0  3  0  0  0  0  0  0
   85.3230   53.4970   40.2590 C   0  0  0  0  0  0  0  0  0  0  0  0
   84.6350   52.6250   41.1180 C   0  0  0  0  0  3  0  0  0  0  0  0
   83.3730   52.9710   41.6360 C   0  0  0  0  0  0  0  0  0  0  0  0
   81.6150   54.6380   41.8810 O   0  0  0  0  0  0  0  0  0  0  0  0
   80.8120   54.4260   41.4480 H   0  0  0  0  0  0  0  0  0  0  0  0
   86.6840   53.1310   39.7300 C   0  0  0  0  0  2  0  0  0  0  0  0
   87.5080   52.4740   40.8080 C   0  0  0  0  0  0  0  0  0  0  0  0
   87.1430   52.6300   42.1580 C   0  0  0  0  0  3  0  0  0  0  0  0
   87.8760   52.0000   43.1680 C   0  0  0  0  0  3  0  0  0  0  0  0
   88.9730   51.2000   42.8410 C   0  0  0  0  0  3  0  0  0  0  0  0
   89.3380   51.0280   41.5040 C   0  0  0  0  0  3  0  0  0  0  0  0
   88.6110   51.6570   40.4820 C   0  0  0  0  0  0  0  0  0  0  0  0
   88.9780   51.4700   39.1500 O   0  0  0  0  0  0  0  0  0  0  0  0
   89.0410   52.2060   38.5730 H   0  0  0  0  0  0  0  0  0  0  0  0
   84.7720   47.5840   43.9330 C   0  0  0  0  0  2  0  0  0  0  0  0
   86.0370   47.2420   43.1700 C   0  0  0  0  0  0  0  0  0  0  0  0
   86.6490   48.2650   42.4190 C   0  0  0  0  0  3  0  0  0  0  0  0
   87.7970   48.0130   41.6670 C   0  0  0  0  0  3  0  0  0  0  0  0
   88.3550   46.7370   41.6500 C   0  0  0  0  0  3  0  0  0  0  0  0
   87.7710   45.7090   42.3890 C   0  0  0  0  0  3  0  0  0  0  0  0
   86.6240   45.9440   43.1580 C   0  0  0  0  0  0  0  0  0  0  0  0
   86.1230   44.8640   43.8900 O   0  0  0  0  0  0  0  0  0  0  0  0
   85.3550   44.9710   44.4150 H   0  0  0  0  0  0  0  0  0  0  0  0
  1  6  1  0  0  0  0
  2  1  2  0  0  0  0
  2  3  1  0  0  0  0
  3  4  2  0  0  0  0
  4  5  1  0  0  0  0
  4 20  1  0  0  0  0
  5 10  1  0  0  0  0
  6  7  1  0  0  0  0
  6  5  2  0  0  0  0
  7  8  1  0  0  0  0
  8 12  1  6  0  0  0
  8  9  1  0  0  0  0
  9 10  1  0  0  0  0
 10 11  2  0  0  0  0
 12 17  1  0  0  0  0
 13 12  2  0  0  0  0
 14 13  1  0  0  0  0
 14 15  2  0  0  0  0
 15 16  1  0  0  0  0
 16 17  2  0  0  0  0
 18  2  1  0  0  0  0
 19 18  1  0  0  0  0
 21 20  1  0  0  0  0
 22  1  1  0  0  0  0
 23 28  1  0  0  0  0
 23 29  1  0  0  0  0
 24 23  2  0  0  0  0
 25 26  2  0  0  0  0
 25 24  1  0  0  0  0
 26 27  1  0  0  0  0
 27 28  2  0  0  0  0
 28 22  1  0  0  0  0
 30 29  1  0  0  0  0
 31 26  1  0  0  0  0
 31 32  1  0  0  0  0
 32 33  1  0  0  0  0
 33 34  2  0  0  0  0
 35 34  1  0  0  0  0
 36 35  2  0  0  0  0
 37 32  2  0  0  0  0
 37 36  1  0  0  0  0
 38 37  1  0  0  0  0
 39 38  1  0  0  0  0
 40  3  1  0  0  0  0
 41 40  1  0  0  0  0
 42 41  2  0  0  0  0
 43 42  1  0  0  0  0
 44 43  2  0  0  0  0
 44 45  1  0  0  0  0
 45 46  2  0  0  0  0
 46 41  1  0  0  0  0
 46 47  1  0  0  0  0
 47 48  1  0  0  0  0
M  END
>  <MODEL>
7

>  <REMARK>
 VINA RESULT:   -10.200      2.615      7.401
 INTER + INTRA:         -18.514
 INTER:                 -15.520
 INTRA:                  -2.994
 UNBOUND:                -2.649
  Name = 
  12 active torsions:
  status: ('A' for Active; 'I' for Inactive)
    1  A    between atoms: O_1  and  C_2
    2  A    between atoms: C_5  and  C_36
    3  A    between atoms: C_7  and  C_8
    4  A    between atoms: C_8  and  C_9
    5  A    between atoms: C_10  and  O_11
    6  A    between atoms: C_12  and  C_13
    7  A    between atoms: C_13  and  C_14
    8  A    between atoms: C_19  and  O_20
    9  A    between atoms: C_21  and  O_35
   10  A    between atoms: C_25  and  C_29
   11  A    between atoms: C_36  and  C_37
   12  A    between atoms: C_42  and  O_43
                            x       y       z     vdW  Elec       q    Type
                         _______ _______ _______ _____ _____    ______ ____

>  <TORSDO>
F 12

$$$$
=
 OpenBabel09092515023D

 48 53  0  0  1  0  0  0  0  0999 V2000
   84.8560   52.0400   44.3810 C   0  0  0  0  0  0  0  0  0  0  0  0
   85.4320   53.3240   44.2120 C   0  0  0  0  0  0  0  0  0  0  0  0
   84.8350   54.2650   43.3480 C   0  0  0  0  0  0  0  0  0  0  0  0
   83.6750   53.9210   42.6240 C   0  0  0  0  0  0  0  0  0  0  0  0
   83.0800   52.6510   42.8070 C   0  0  0  0  0  0  0  0  0  0  0  0
   83.6870   51.7140   43.6670 C   0  0  0  0  0  0  0  0  0  0  0  0
   83.1250   50.4350   43.8110 O   0  0  0  0  0  0  0  0  0  0  0  0
   81.8150   50.0930   43.3480 C   0  0  1  0  0  3  0  0  0  0  0  0
   81.5320   50.7720   42.0030 C   0  0  0  0  0  2  0  0  0  0  0  0
   81.8200   52.2340   42.1430 C   0  0  0  0  0  0  0  0  0  0  0  0
   80.9570   53.0730   41.7720 O   0  0  0  0  0  0  0  0  0  0  0  0
   81.6830   48.5930   43.2300 C   0  0  0  0  0  0  0  0  0  0  0  0
   82.7670   47.8230   42.7760 C   0  0  0  0  0  3  0  0  0  0  0  0
   82.6550   46.4330   42.6820 C   0  0  0  0  0  3  0  0  0  0  0  0
   81.4640   45.8010   43.0490 C   0  0  0  0  0  3  0  0  0  0  0  0
   80.3870   46.5560   43.5210 C   0  0  0  0  0  3  0  0  0  0  0  0
   80.4960   47.9460   43.6180 C   0  0  0  0  0  3  0  0  0  0  0  0
   86.6030   53.6900   44.8820 O   0  0  0  0  0  0  0  0  0  0  0  0
   86.6450   53.6370   45.8170 H   0  0  0  0  0  0  0  0  0  0  0  0
   83.1610   54.8450   41.7080 O   0  0  0  0  0  0  0  0  0  0  0  0
   83.6970   55.5510   41.4040 H   0  0  0  0  0  0  0  0  0  0  0  0
   85.4620   51.0240   45.3370 C   0  0  0  0  0  2  0  0  0  0  0  0
   87.9430   50.4640   45.1290 C   0  0  0  0  0  0  0  0  0  0  0  0
   88.9840   49.7400   44.5310 C   0  0  0  0  0  3  0  0  0  0  0  0
   88.7100   48.8020   43.5360 C   0  0  0  0  0  3  0  0  0  0  0  0
   87.3900   48.5680   43.1290 C   0  0  0  0  0  0  0  0  0  0  0  0
   86.3450   49.2900   43.7270 C   0  0  0  0  0  3  0  0  0  0  0  0
   86.6110   50.2640   44.7080 C   0  0  0  0  0  0  0  0  0  0  0  0
   88.2330   51.3730   46.1450 O   0  0  0  0  0  0  0  0  0  0  0  0
   87.6280   51.4990   46.8490 H   0  0  0  0  0  0  0  0  0  0  0  0
   87.0950   47.5090   42.1000 C   0  0  0  0  0  2  0  0  0  0  0  0
   87.1450   46.1380   42.7260 C   0  0  0  0  0  0  0  0  0  0  0  0
   86.0170   45.6370   43.4000 C   0  0  0  0  0  3  0  0  0  0  0  0
   86.0350   44.3550   43.9570 C   0  0  0  0  0  3  0  0  0  0  0  0
   87.1750   43.5570   43.8380 C   0  0  0  0  0  3  0  0  0  0  0  0
   88.2980   44.0390   43.1600 C   0  0  0  0  0  3  0  0  0  0  0  0
   88.2910   45.3250   42.5990 C   0  0  0  0  0  0  0  0  0  0  0  0
   89.4140   45.7920   41.9160 O   0  0  0  0  0  0  0  0  0  0  0  0
   89.3920   45.8830   40.9840 H   0  0  0  0  0  0  0  0  0  0  0  0
   85.4820   55.6260   43.1560 C   0  0  0  0  0  2  0  0  0  0  0  0
   85.1280   56.5680   44.2890 C   0  0  0  0  0  0  0  0  0  0  0  0
   84.3650   56.0550   45.3560 C   0  0  0  0  0  3  0  0  0  0  0  0
   83.9750   56.8740   46.4170 C   0  0  0  0  0  3  0  0  0  0  0  0
   84.3380   58.2180   46.4320 C   0  0  0  0  0  3  0  0  0  0  0  0
   85.0970   58.7480   45.3900 C   0  0  0  0  0  3  0  0  0  0  0  0
   85.5070   57.9410   44.3210 C   0  0  0  0  0  0  0  0  0  0  0  0
   86.2890   58.5480   43.3350 O   0  0  0  0  0  0  0  0  0  0  0  0
   87.1490   58.8550   43.5420 H   0  0  0  0  0  0  0  0  0  0  0  0
  1 22  1  0  0  0  0
  2  1  1  0  0  0  0
  2 18  1  0  0  0  0
  3  2  2  0  0  0  0
  4  5  2  0  0  0  0
  4  3  1  0  0  0  0
  5  6  1  0  0  0  0
  6  7  1  0  0  0  0
  6  1  2  0  0  0  0
  8 12  1  6  0  0  0
  8  7  1  0  0  0  0
  9 10  1  0  0  0  0
  9  8  1  0  0  0  0
 10  5  1  0  0  0  0
 11 10  2  0  0  0  0
 12 17  1  0  0  0  0
 13 12  2  0  0  0  0
 14 13  1  0  0  0  0
 14 15  2  0  0  0  0
 15 16  1  0  0  0  0
 16 17  2  0  0  0  0
 18 19  1  0  0  0  0
 20  4  1  0  0  0  0
 21 20  1  0  0  0  0
 23 29  1  0  0  0  0
 24 23  2  0  0  0  0
 25 24  1  0  0  0  0
 26 25  2  0  0  0  0
 26 27  1  0  0  0  0
 27 28  2  0  0  0  0
 28 23  1  0  0  0  0
 28 22  1  0  0  0  0
 29 30  1  0  0  0  0
 31 32  1  0  0  0  0
 31 26  1  0  0  0  0
 32 33  1  0  0  0  0
 33 34  2  0  0  0  0
 35 34  1  0  0  0  0
 36 35  2  0  0  0  0
 37 32  2  0  0  0  0
 37 36  1  0  0  0  0
 38 37  1  0  0  0  0
 39 38  1  0  0  0  0
 40  3  1  0  0  0  0
 40 41  1  0  0  0  0
 41 46  2  0  0  0  0
 41 42  1  0  0  0  0
 42 43  2  0  0  0  0
 43 44  1  0  0  0  0
 45 44  2  0  0  0  0
 46 45  1  0  0  0  0
 47 48  1  0  0  0  0
 47 46  1  0  0  0  0
M  END
>  <MODEL>
8

>  <REMARK>
 VINA RESULT:   -10.163      3.110      6.632
 INTER + INTRA:         -18.456
 INTER:                 -15.734
 INTRA:                  -2.722
 UNBOUND:                -2.649
  Name = 
  12 active torsions:
  status: ('A' for Active; 'I' for Inactive)
    1  A    between atoms: O_1  and  C_2
    2  A    between atoms: C_5  and  C_36
    3  A    between atoms: C_7  and  C_8
    4  A    between atoms: C_8  and  C_9
    5  A    between atoms: C_10  and  O_11
    6  A    between atoms: C_12  and  C_13
    7  A    between atoms: C_13  and  C_14
    8  A    between atoms: C_19  and  O_20
    9  A    between atoms: C_21  and  O_35
   10  A    between atoms: C_25  and  C_29
   11  A    between atoms: C_36  and  C_37
   12  A    between atoms: C_42  and  O_43
                            x       y       z     vdW  Elec       q    Type
                         _______ _______ _______ _____ _____    ______ ____

>  <TORSDO>
F 12

$$$$
=
 OpenBabel09092515023D

 48 53  0  0  1  0  0  0  0  0999 V2000
   85.2660   50.3130   43.9870 C   0  0  0  0  0  0  0  0  0  0  0  0
   86.2090   51.3230   43.6710 C   0  0  0  0  0  0  0  0  0  0  0  0
   85.8190   52.4560   42.9280 C   0  0  0  0  0  0  0  0  0  0  0  0
   84.4900   52.5750   42.4700 C   0  0  0  0  0  0  0  0  0  0  0  0
   83.5380   51.5840   42.8040 C   0  0  0  0  0  0  0  0  0  0  0  0
   83.9380   50.4510   43.5400 C   0  0  0  0  0  0  0  0  0  0  0  0
   83.0050   49.4420   43.8290 O   0  0  0  0  0  0  0  0  0  0  0  0
   81.5940   49.6020   43.6580 C   0  0  1  0  0  3  0  0  0  0  0  0
   81.3000   50.4050   42.3860 C   0  0  0  0  0  2  0  0  0  0  0  0
   82.1040   51.6660   42.4270 C   0  0  0  0  0  0  0  0  0  0  0  0
   81.5350   52.7710   42.2230 O   0  0  0  0  0  0  0  0  0  0  0  0
   80.9220   48.2510   43.6070 C   0  0  0  0  0  0  0  0  0  0  0  0
   81.6560   47.1120   43.2300 C   0  0  0  0  0  3  0  0  0  0  0  0
   81.0430   45.8570   43.1980 C   0  0  0  0  0  3  0  0  0  0  0  0
   79.6970   45.7260   43.5510 C   0  0  0  0  0  3  0  0  0  0  0  0
   78.9640   46.8480   43.9470 C   0  0  0  0  0  3  0  0  0  0  0  0
   79.5740   48.1060   43.9810 C   0  0  0  0  0  3  0  0  0  0  0  0
   87.5450   51.2240   44.0740 O   0  0  0  0  0  0  0  0  0  0  0  0
   87.9540   51.9380   44.5230 H   0  0  0  0  0  0  0  0  0  0  0  0
   84.1580   53.6650   41.6590 O   0  0  0  0  0  0  0  0  0  0  0  0
   83.2910   54.0190   41.6810 H   0  0  0  0  0  0  0  0  0  0  0  0
   85.6580   49.1020   44.8210 C   0  0  0  0  0  2  0  0  0  0  0  0
   85.2600   46.7290   43.9710 C   0  0  0  0  0  0  0  0  0  0  0  0
   85.6250   45.6480   43.1560 C   0  0  0  0  0  3  0  0  0  0  0  0
   86.7320   45.7430   42.3120 C   0  0  0  0  0  3  0  0  0  0  0  0
   87.4860   46.9230   42.2650 C   0  0  0  0  0  0  0  0  0  0  0  0
   87.1220   48.0070   43.0780 C   0  0  0  0  0  3  0  0  0  0  0  0
   86.0280   47.9130   43.9590 C   0  0  0  0  0  0  0  0  0  0  0  0
   84.1320   46.6280   44.7830 O   0  0  0  0  0  0  0  0  0  0  0  0
   83.4730   47.2930   44.7560 H   0  0  0  0  0  0  0  0  0  0  0  0
   88.6410   47.0410   41.3060 C   0  0  0  0  0  2  0  0  0  0  0  0
   89.8320   47.6630   41.9920 C   0  0  0  0  0  0  0  0  0  0  0  0
   90.1570   49.0090   41.7420 C   0  0  0  0  0  3  0  0  0  0  0  0
   91.2360   49.6110   42.3950 C   0  0  0  0  0  3  0  0  0  0  0  0
   91.9950   48.8800   43.3110 C   0  0  0  0  0  3  0  0  0  0  0  0
   91.6750   47.5470   43.5780 C   0  0  0  0  0  3  0  0  0  0  0  0
   90.5940   46.9320   42.9270 C   0  0  0  0  0  0  0  0  0  0  0  0
   90.2770   45.6030   43.2070 O   0  0  0  0  0  0  0  0  0  0  0  0
   90.7120   44.9110   42.7490 H   0  0  0  0  0  0  0  0  0  0  0  0
   86.8490   53.5140   42.5710 C   0  0  0  0  0  2  0  0  0  0  0  0
   87.7500   53.0450   41.4460 C   0  0  0  0  0  0  0  0  0  0  0  0
   89.0680   52.6690   41.7730 C   0  0  0  0  0  3  0  0  0  0  0  0
   89.9620   52.2580   40.7840 C   0  0  0  0  0  3  0  0  0  0  0  0
   89.5590   52.2160   39.4510 C   0  0  0  0  0  3  0  0  0  0  0  0
   88.2580   52.5780   39.1030 C   0  0  0  0  0  3  0  0  0  0  0  0
   87.3420   52.9840   40.0820 C   0  0  0  0  0  0  0  0  0  0  0  0
   86.0530   53.3020   39.6480 O   0  0  0  0  0  0  0  0  0  0  0  0
   85.5850   52.7080   39.0980 H   0  0  0  0  0  0  0  0  0  0  0  0
  1 22  1  0  0  0  0
  2  1  1  0  0  0  0
  2 18  1  0  0  0  0
  3  2  2  0  0  0  0
  4  5  2  0  0  0  0
  4  3  1  0  0  0  0
  5  6  1  0  0  0  0
  6  7  1  0  0  0  0
  6  1  2  0  0  0  0
  8 12  1  6  0  0  0
  8  7  1  0  0  0  0
  9 10  1  0  0  0  0
  9  8  1  0  0  0  0
 10  5  1  0  0  0  0
 11 10  2  0  0  0  0
 12 17  1  0  0  0  0
 13 12  2  0  0  0  0
 14 13  1  0  0  0  0
 14 15  2  0  0  0  0
 15 16  1  0  0  0  0
 16 17  2  0  0  0  0
 18 19  1  0  0  0  0
 20 21  1  0  0  0  0
 20  4  1  0  0  0  0
 23 29  1  0  0  0  0
 24 23  2  0  0  0  0
 25 24  1  0  0  0  0
 26 25  2  0  0  0  0
 26 27  1  0  0  0  0
 27 28  2  0  0  0  0
 28 23  1  0  0  0  0
 28 22  1  0  0  0  0
 30 29  1  0  0  0  0
 31 32  1  0  0  0  0
 31 26  1  0  0  0  0
 32 37  1  0  0  0  0
 33 32  2  0  0  0  0
 33 34  1  0  0  0  0
 34 35  2  0  0  0  0
 35 36  1  0  0  0  0
 37 38  1  0  0  0  0
 37 36  2  0  0  0  0
 39 38  1  0  0  0  0
 40  3  1  0  0  0  0
 41 42  1  0  0  0  0
 41 40  1  0  0  0  0
 43 42  2  0  0  0  0
 44 43  1  0  0  0  0
 45 44  2  0  0  0  0
 45 46  1  0  0  0  0
 46 41  2  0  0  0  0
 47 46  1  0  0  0  0
 48 47  1  0  0  0  0
M  END
>  <MODEL>
9

>  <REMARK>
 VINA RESULT:   -10.078      2.814      5.612
 INTER + INTRA:         -18.323
 INTER:                 -15.674
 INTRA:                  -2.649
 UNBOUND:                -2.649
  Name = 
  12 active torsions:
  status: ('A' for Active; 'I' for Inactive)
    1  A    between atoms: O_1  and  C_2
    2  A    between atoms: C_5  and  C_36
    3  A    between atoms: C_7  and  C_8
    4  A    between atoms: C_8  and  C_9
    5  A    between atoms: C_10  and  O_11
    6  A    between atoms: C_12  and  C_13
    7  A    between atoms: C_13  and  C_14
    8  A    between atoms: C_19  and  O_20
    9  A    between atoms: C_21  and  O_35
   10  A    between atoms: C_25  and  C_29
   11  A    between atoms: C_36  and  C_37
   12  A    between atoms: C_42  and  O_43
                            x       y       z     vdW  Elec       q    Type
                         _______ _______ _______ _____ _____    ______ ____

>  <TORSDO>
F 12

$$$$
