MODEL 1
REMARK VINA RESULT:    -7.127      0.000      0.000
REMARK INTER + INTRA:          -7.958
REMARK INTER:                  -7.692
REMARK INTRA:                  -0.266
REMARK UNBOUND:                -0.205
REMARK  Name = 
REMARK  6 active torsions:
REMARK  status: ('A' for Active; 'I' for Inactive)
REMARK    1  A    between atoms: C_1  and  C_2
REMARK    2  A    between atoms: C_2  and  C_3
REMARK    3  A    between atoms: C_2  and  C_16
REMARK    4  A    between atoms: C_6  and  C_14
REMARK    5  A    between atoms: C_6  and  O_15
REMARK    6  A    between atoms: C_10  and  C_13
REMARK                            x       y       z     vdW  Elec       q    Type
REMARK                         _______ _______ _______ _____ _____    ______ ____
ROOT
ATOM      1  C   UNL     1      85.704  54.125  47.076  0.00  0.00    -0.038 C 
ATOM      2  C   UNL     1      85.198  54.384  45.624  0.00  0.00    -0.047 C 
ATOM      3  C   UNL     1      84.481  53.187  44.975  0.00  0.00    -0.024 C 
ATOM      4  C   UNL     1      85.402  52.045  44.408  0.00  0.00    +0.067 C 
ATOM      5  C   UNL     1      86.896  52.104  44.920  0.00  0.00    -0.002 C 
ATOM      6  C   UNL     1      87.141  52.083  46.454  0.00  0.00    -0.014 C 
ATOM      7  C   UNL     1      86.031  52.637  47.367  0.00  0.00    -0.043 C 
ATOM      8  C   UNL     1      87.493  50.651  46.723  0.00  0.00    -0.073 C 
ATOM      9  C   UNL     1      87.853  50.027  45.607  0.00  0.00    -0.084 C 
ATOM     10  C   UNL     1      87.739  50.912  44.416  0.00  0.00    -0.029 C 
ATOM     11  C   UNL     1      87.675  50.058  48.092  0.00  0.00    -0.044 C 
ATOM     12  C   UNL     1      84.737  50.672  44.717  0.00  0.00    -0.036 C 
ENDROOT
BRANCH   1  14
ATOM     13  C   UNL     1      83.985  55.941  47.688  0.00  0.00    -0.062 C 
ATOM     14  C   UNL     1      84.774  54.718  48.186  0.00  0.00    -0.044 C 
ATOM     15  C   UNL     1      83.821  53.687  48.814  0.00  0.00    -0.062 C 
ENDBRANCH   1  14
BRANCH   4  16
ATOM     16  O   UNL     1      85.469  52.197  43.005  0.00  0.00    -0.389 OA
ATOM     17  H   UNL     1      86.172  51.629  42.651  0.00  0.00    +0.000 HD
ENDBRANCH   4  16
TORSDOF 2
ENDMDL
MODEL 2
REMARK VINA RESULT:    -6.946      1.587      2.312
REMARK INTER + INTRA:          -7.761
REMARK INTER:                  -7.494
REMARK INTRA:                  -0.267
REMARK UNBOUND:                -0.205
REMARK  Name = 
REMARK  6 active torsions:
REMARK  status: ('A' for Active; 'I' for Inactive)
REMARK    1  A    between atoms: C_1  and  C_2
REMARK    2  A    between atoms: C_2  and  C_3
REMARK    3  A    between atoms: C_2  and  C_16
REMARK    4  A    between atoms: C_6  and  C_14
REMARK    5  A    between atoms: C_6  and  O_15
REMARK    6  A    between atoms: C_10  and  C_13
REMARK                            x       y       z     vdW  Elec       q    Type
REMARK                         _______ _______ _______ _____ _____    ______ ____
ROOT
ATOM      1  C   UNL     1      86.075  56.055  45.998  0.00  0.00    -0.038 C 
ATOM      2  C   UNL     1      86.116  55.835  44.455  0.00  0.00    -0.047 C 
ATOM      3  C   UNL     1      85.139  54.764  43.937  0.00  0.00    -0.024 C 
ATOM      4  C   UNL     1      85.582  53.266  44.123  0.00  0.00    +0.067 C 
ATOM      5  C   UNL     1      86.771  53.065  45.145  0.00  0.00    -0.002 C 
ATOM      6  C   UNL     1      86.588  53.603  46.590  0.00  0.00    -0.014 C 
ATOM      7  C   UNL     1      85.639  54.799  46.796  0.00  0.00    -0.043 C 
ATOM      8  C   UNL     1      86.203  52.380  47.364  0.00  0.00    -0.073 C 
ATOM      9  C   UNL     1      86.523  51.273  46.703  0.00  0.00    -0.084 C 
ATOM     10  C   UNL     1      87.109  51.575  45.369  0.00  0.00    -0.029 C 
ATOM     11  C   UNL     1      85.758  52.381  48.800  0.00  0.00    -0.044 C 
ATOM     12  C   UNL     1      84.333  52.424  44.514  0.00  0.00    -0.036 C 
ENDROOT
BRANCH   1  14
ATOM     13  C   UNL     1      85.138  58.352  45.311  0.00  0.00    -0.062 C 
ATOM     14  C   UNL     1      85.250  57.310  46.437  0.00  0.00    -0.044 C 
ATOM     15  C   UNL     1      83.856  56.972  46.992  0.00  0.00    -0.062 C 
ENDBRANCH   1  14
BRANCH   4  16
ATOM     16  O   UNL     1      86.059  52.797  42.879  0.00  0.00    -0.389 OA
ATOM     17  H   UNL     1      85.340  52.352  42.403  0.00  0.00    +0.000 HD
ENDBRANCH   4  16
TORSDOF 2
ENDMDL
MODEL 3
REMARK VINA RESULT:    -6.797      2.034      4.758
REMARK INTER + INTRA:          -7.598
REMARK INTER:                  -7.404
REMARK INTRA:                  -0.194
REMARK UNBOUND:                -0.205
REMARK  Name = 
REMARK  6 active torsions:
REMARK  status: ('A' for Active; 'I' for Inactive)
REMARK    1  A    between atoms: C_1  and  C_2
REMARK    2  A    between atoms: C_2  and  C_3
REMARK    3  A    between atoms: C_2  and  C_16
REMARK    4  A    between atoms: C_6  and  C_14
REMARK    5  A    between atoms: C_6  and  O_15
REMARK    6  A    between atoms: C_10  and  C_13
REMARK                            x       y       z     vdW  Elec       q    Type
REMARK                         _______ _______ _______ _____ _____    ______ ____
ROOT
ATOM      1  C   UNL     1      86.255  52.708  44.605  0.00  0.00    -0.038 C 
ATOM      2  C   UNL     1      85.689  54.062  44.078  0.00  0.00    -0.047 C 
ATOM      3  C   UNL     1      86.041  55.283  44.947  0.00  0.00    -0.024 C 
ATOM      4  C   UNL     1      85.187  55.480  46.253  0.00  0.00    +0.067 C 
ATOM      5  C   UNL     1      84.359  54.204  46.683  0.00  0.00    -0.002 C 
ATOM      6  C   UNL     1      85.132  52.877  46.915  0.00  0.00    -0.014 C 
ATOM      7  C   UNL     1      86.449  52.669  46.143  0.00  0.00    -0.043 C 
ATOM      8  C   UNL     1      85.285  52.826  48.405  0.00  0.00    -0.073 C 
ATOM      9  C   UNL     1      84.425  53.643  49.004  0.00  0.00    -0.084 C 
ATOM     10  C   UNL     1      83.613  54.410  48.020  0.00  0.00    -0.029 C 
ATOM     11  C   UNL     1      86.105  51.808  49.146  0.00  0.00    -0.044 C 
ATOM     12  C   UNL     1      86.129  55.970  47.392  0.00  0.00    -0.036 C 
ENDROOT
BRANCH   1  14
ATOM     13  C   UNL     1      87.723  50.706  43.928  0.00  0.00    -0.062 C 
ATOM     14  C   UNL     1      87.550  52.233  43.867  0.00  0.00    -0.044 C 
ATOM     15  C   UNL     1      87.653  52.724  42.414  0.00  0.00    -0.062 C 
ENDBRANCH   1  14
BRANCH   4  16
ATOM     16  O   UNL     1      84.234  56.492  46.002  0.00  0.00    -0.389 OA
ATOM     17  H   UNL     1      84.665  57.360  46.047  0.00  0.00    +0.000 HD
ENDBRANCH   4  16
TORSDOF 2
ENDMDL
MODEL 4
REMARK VINA RESULT:    -6.728      2.856      3.822
REMARK INTER + INTRA:          -7.523
REMARK INTER:                  -7.378
REMARK INTRA:                  -0.145
REMARK UNBOUND:                -0.205
REMARK  Name = 
REMARK  6 active torsions:
REMARK  status: ('A' for Active; 'I' for Inactive)
REMARK    1  A    between atoms: C_1  and  C_2
REMARK    2  A    between atoms: C_2  and  C_3
REMARK    3  A    between atoms: C_2  and  C_16
REMARK    4  A    between atoms: C_6  and  C_14
REMARK    5  A    between atoms: C_6  and  O_15
REMARK    6  A    between atoms: C_10  and  C_13
REMARK                            x       y       z     vdW  Elec       q    Type
REMARK                         _______ _______ _______ _____ _____    ______ ____
ROOT
ATOM      1  C   UNL     1      85.810  55.832  45.242  0.00  0.00    -0.038 C 
ATOM      2  C   UNL     1      85.807  56.737  43.972  0.00  0.00    -0.047 C 
ATOM      3  C   UNL     1      84.529  56.635  43.119  0.00  0.00    -0.024 C 
ATOM      4  C   UNL     1      84.416  55.380  42.177  0.00  0.00    +0.067 C 
ATOM      5  C   UNL     1      85.435  54.221  42.518  0.00  0.00    -0.002 C 
ATOM      6  C   UNL     1      85.419  53.636  43.957  0.00  0.00    -0.014 C 
ATOM      7  C   UNL     1      84.944  54.554  45.100  0.00  0.00    -0.043 C 
ATOM      8  C   UNL     1      84.612  52.383  43.807  0.00  0.00    -0.073 C 
ATOM      9  C   UNL     1      84.540  52.007  42.535  0.00  0.00    -0.084 C 
ATOM     10  C   UNL     1      85.226  52.973  41.633  0.00  0.00    -0.029 C 
ATOM     11  C   UNL     1      84.162  51.513  44.948  0.00  0.00    -0.044 C 
ATOM     12  C   UNL     1      82.943  54.879  42.194  0.00  0.00    -0.036 C 
ENDROOT
BRANCH   1  14
ATOM     13  C   UNL     1      84.860  57.982  46.290  0.00  0.00    -0.062 C 
ATOM     14  C   UNL     1      85.466  56.595  46.564  0.00  0.00    -0.044 C 
ATOM     15  C   UNL     1      84.565  55.799  47.523  0.00  0.00    -0.062 C 
ENDBRANCH   1  14
BRANCH   4  16
ATOM     16  O   UNL     1      84.728  55.793  40.863  0.00  0.00    -0.389 OA
ATOM     17  H   UNL     1      84.518  56.735  40.762  0.00  0.00    +0.000 HD
ENDBRANCH   4  16
TORSDOF 2
ENDMDL
MODEL 5
REMARK VINA RESULT:    -6.633      2.119      5.359
REMARK INTER + INTRA:          -7.420
REMARK INTER:                  -7.226
REMARK INTRA:                  -0.194
REMARK UNBOUND:                -0.205
REMARK  Name = 
REMARK  6 active torsions:
REMARK  status: ('A' for Active; 'I' for Inactive)
REMARK    1  A    between atoms: C_1  and  C_2
REMARK    2  A    between atoms: C_2  and  C_3
REMARK    3  A    between atoms: C_2  and  C_16
REMARK    4  A    between atoms: C_6  and  C_14
REMARK    5  A    between atoms: C_6  and  O_15
REMARK    6  A    between atoms: C_10  and  C_13
REMARK                            x       y       z     vdW  Elec       q    Type
REMARK                         _______ _______ _______ _____ _____    ______ ____
ROOT
ATOM      1  C   UNL     1      87.314  52.374  45.015  0.00  0.00    -0.038 C 
ATOM      2  C   UNL     1      87.362  52.035  46.536  0.00  0.00    -0.047 C 
ATOM      3  C   UNL     1      86.012  52.174  47.264  0.00  0.00    -0.024 C 
ATOM      4  C   UNL     1      85.569  53.635  47.643  0.00  0.00    +0.067 C 
ATOM      5  C   UNL     1      86.375  54.770  46.894  0.00  0.00    -0.002 C 
ATOM      6  C   UNL     1      86.386  54.753  45.341  0.00  0.00    -0.014 C 
ATOM      7  C   UNL     1      86.209  53.394  44.637  0.00  0.00    -0.043 C 
ATOM      8  C   UNL     1      85.343  55.766  44.980  0.00  0.00    -0.073 C 
ATOM      9  C   UNL     1      85.077  56.567  46.006  0.00  0.00    -0.084 C 
ATOM     10  C   UNL     1      85.845  56.183  47.222  0.00  0.00    -0.029 C 
ATOM     11  C   UNL     1      84.847  56.024  43.585  0.00  0.00    -0.044 C 
ATOM     12  C   UNL     1      84.036  53.765  47.411  0.00  0.00    -0.036 C 
ENDROOT
BRANCH   1  14
ATOM     13  C   UNL     1      87.713  51.429  42.654  0.00  0.00    -0.062 C 
ATOM     14  C   UNL     1      87.252  51.115  44.088  0.00  0.00    -0.044 C 
ATOM     15  C   UNL     1      88.015  49.900  44.640  0.00  0.00    -0.062 C 
ENDBRANCH   1  14
BRANCH   4  16
ATOM     16  O   UNL     1      85.826  53.824  49.019  0.00  0.00    -0.389 OA
ATOM     17  H   UNL     1      85.343  53.157  49.532  0.00  0.00    +0.000 HD
ENDBRANCH   4  16
TORSDOF 2
ENDMDL
MODEL 6
REMARK VINA RESULT:    -6.619      2.956      5.426
REMARK INTER + INTRA:          -7.405
REMARK INTER:                  -7.173
REMARK INTRA:                  -0.232
REMARK UNBOUND:                -0.205
REMARK  Name = 
REMARK  6 active torsions:
REMARK  status: ('A' for Active; 'I' for Inactive)
REMARK    1  A    between atoms: C_1  and  C_2
REMARK    2  A    between atoms: C_2  and  C_3
REMARK    3  A    between atoms: C_2  and  C_16
REMARK    4  A    between atoms: C_6  and  C_14
REMARK    5  A    between atoms: C_6  and  O_15
REMARK    6  A    between atoms: C_10  and  C_13
REMARK                            x       y       z     vdW  Elec       q    Type
REMARK                         _______ _______ _______ _____ _____    ______ ____
ROOT
ATOM      1  C   UNL     1      83.966  54.112  43.025  0.00  0.00    -0.038 C 
ATOM      2  C   UNL     1      83.506  55.585  42.803  0.00  0.00    -0.047 C 
ATOM      3  C   UNL     1      84.617  56.636  42.985  0.00  0.00    -0.024 C 
ATOM      4  C   UNL     1      84.983  57.015  44.468  0.00  0.00    +0.067 C 
ATOM      5  C   UNL     1      84.438  55.999  45.549  0.00  0.00    -0.002 C 
ATOM      6  C   UNL     1      84.840  54.505  45.414  0.00  0.00    -0.014 C 
ATOM      7  C   UNL     1      85.160  53.972  44.005  0.00  0.00    -0.043 C 
ATOM      8  C   UNL     1      85.970  54.366  46.389  0.00  0.00    -0.073 C 
ATOM      9  C   UNL     1      85.975  55.366  47.263  0.00  0.00    -0.084 C 
ATOM     10  C   UNL     1      84.901  56.357  46.979  0.00  0.00    -0.029 C 
ATOM     11  C   UNL     1      86.826  53.140  46.537  0.00  0.00    -0.044 C 
ATOM     12  C   UNL     1      86.526  57.193  44.567  0.00  0.00    -0.036 C 
ENDROOT
BRANCH   1  14
ATOM     13  C   UNL     1      83.886  54.157  40.453  0.00  0.00    -0.062 C 
ATOM     14  C   UNL     1      84.238  53.327  41.699  0.00  0.00    -0.044 C 
ATOM     15  C   UNL     1      85.668  52.775  41.587  0.00  0.00    -0.062 C 
ENDBRANCH   1  14
BRANCH   4  16
ATOM     16  O   UNL     1      84.375  58.255  44.762  0.00  0.00    -0.389 OA
ATOM     17  H   UNL     1      84.302  58.359  45.724  0.00  0.00    +0.000 HD
ENDBRANCH   4  16
TORSDOF 2
ENDMDL
MODEL 7
REMARK VINA RESULT:    -6.408      2.251      5.211
REMARK INTER + INTRA:          -7.176
REMARK INTER:                  -6.981
REMARK INTRA:                  -0.194
REMARK UNBOUND:                -0.205
REMARK  Name = 
REMARK  6 active torsions:
REMARK  status: ('A' for Active; 'I' for Inactive)
REMARK    1  A    between atoms: C_1  and  C_2
REMARK    2  A    between atoms: C_2  and  C_3
REMARK    3  A    between atoms: C_2  and  C_16
REMARK    4  A    between atoms: C_6  and  C_14
REMARK    5  A    between atoms: C_6  and  O_15
REMARK    6  A    between atoms: C_10  and  C_13
REMARK                            x       y       z     vdW  Elec       q    Type
REMARK                         _______ _______ _______ _____ _____    ______ ____
ROOT
ATOM      1  C   UNL     1      88.436  51.265  43.131  0.00  0.00    -0.038 C 
ATOM      2  C   UNL     1      88.104  49.756  43.336  0.00  0.00    -0.047 C 
ATOM      3  C   UNL     1      86.617  49.461  43.605  0.00  0.00    -0.024 C 
ATOM      4  C   UNL     1      86.103  49.734  45.067  0.00  0.00    +0.067 C 
ATOM      5  C   UNL     1      87.077  50.622  45.939  0.00  0.00    -0.002 C 
ATOM      6  C   UNL     1      87.472  52.021  45.394  0.00  0.00    -0.014 C 
ATOM      7  C   UNL     1      87.466  52.225  43.867  0.00  0.00    -0.043 C 
ATOM      8  C   UNL     1      86.557  52.948  46.135  0.00  0.00    -0.073 C 
ATOM      9  C   UNL     1      86.051  52.361  47.214  0.00  0.00    -0.084 C 
ATOM     10  C   UNL     1      86.491  50.944  47.332  0.00  0.00    -0.029 C 
ATOM     11  C   UNL     1      86.424  54.420  45.861  0.00  0.00    -0.044 C 
ATOM     12  C   UNL     1      84.676  50.348  44.985  0.00  0.00    -0.036 C 
ENDROOT
BRANCH   1  14
ATOM     13  C   UNL     1      89.438  52.958  41.470  0.00  0.00    -0.062 C 
ATOM     14  C   UNL     1      88.598  51.679  41.630  0.00  0.00    -0.044 C 
ATOM     15  C   UNL     1      89.154  50.560  40.734  0.00  0.00    -0.062 C 
ENDBRANCH   1  14
BRANCH   4  16
ATOM     16  O   UNL     1      86.012  48.492  45.734  0.00  0.00    -0.389 OA
ATOM     17  H   UNL     1      86.294  47.782  45.136  0.00  0.00    +0.000 HD
ENDBRANCH   4  16
TORSDOF 2
ENDMDL
MODEL 8
REMARK VINA RESULT:    -6.334      2.022      2.822
REMARK INTER + INTRA:          -7.095
REMARK INTER:                  -6.890
REMARK INTRA:                  -0.205
REMARK UNBOUND:                -0.205
REMARK  Name = 
REMARK  6 active torsions:
REMARK  status: ('A' for Active; 'I' for Inactive)
REMARK    1  A    between atoms: C_1  and  C_2
REMARK    2  A    between atoms: C_2  and  C_3
REMARK    3  A    between atoms: C_2  and  C_16
REMARK    4  A    between atoms: C_6  and  C_14
REMARK    5  A    between atoms: C_6  and  O_15
REMARK    6  A    between atoms: C_10  and  C_13
REMARK                            x       y       z     vdW  Elec       q    Type
REMARK                         _______ _______ _______ _____ _____    ______ ____
ROOT
ATOM      1  C   UNL     1      85.448  56.032  45.028  0.00  0.00    -0.038 C 
ATOM      2  C   UNL     1      85.224  56.260  43.502  0.00  0.00    -0.047 C 
ATOM      3  C   UNL     1      84.517  55.098  42.781  0.00  0.00    -0.024 C 
ATOM      4  C   UNL     1      85.408  53.851  42.425  0.00  0.00    +0.067 C 
ATOM      5  C   UNL     1      86.791  53.805  43.188  0.00  0.00    -0.002 C 
ATOM      6  C   UNL     1      86.768  53.842  44.741  0.00  0.00    -0.014 C 
ATOM      7  C   UNL     1      85.577  54.539  45.425  0.00  0.00    -0.043 C 
ATOM      8  C   UNL     1      86.930  52.401  45.119  0.00  0.00    -0.073 C 
ATOM      9  C   UNL     1      87.414  51.690  44.107  0.00  0.00    -0.084 C 
ATOM     10  C   UNL     1      87.590  52.519  42.883  0.00  0.00    -0.029 C 
ATOM     11  C   UNL     1      86.818  51.867  46.520  0.00  0.00    -0.044 C 
ATOM     12  C   UNL     1      84.572  52.560  42.663  0.00  0.00    -0.036 C 
ENDROOT
BRANCH   1  14
ATOM     13  C   UNL     1      84.299  56.118  47.330  0.00  0.00    -0.062 C 
ATOM     14  C   UNL     1      84.404  56.762  45.937  0.00  0.00    -0.044 C 
ATOM     15  C   UNL     1      84.643  58.275  46.066  0.00  0.00    -0.062 C 
ENDBRANCH   1  14
BRANCH   4  16
ATOM     16  O   UNL     1      85.728  53.923  41.051  0.00  0.00    -0.389 OA
ATOM     17  H   UNL     1      85.288  54.692  40.657  0.00  0.00    +0.000 HD
ENDBRANCH   4  16
TORSDOF 2
ENDMDL
MODEL 9
REMARK VINA RESULT:    -6.327      2.311      4.609
REMARK INTER + INTRA:          -7.087
REMARK INTER:                  -6.883
REMARK INTRA:                  -0.205
REMARK UNBOUND:                -0.205
REMARK  Name = 
REMARK  6 active torsions:
REMARK  status: ('A' for Active; 'I' for Inactive)
REMARK    1  A    between atoms: C_1  and  C_2
REMARK    2  A    between atoms: C_2  and  C_3
REMARK    3  A    between atoms: C_2  and  C_16
REMARK    4  A    between atoms: C_6  and  C_14
REMARK    5  A    between atoms: C_6  and  O_15
REMARK    6  A    between atoms: C_10  and  C_13
REMARK                            x       y       z     vdW  Elec       q    Type
REMARK                         _______ _______ _______ _____ _____    ______ ____
ROOT
ATOM      1  C   UNL     1      83.040  51.942  43.643  0.00  0.00    -0.038 C 
ATOM      2  C   UNL     1      83.125  52.942  42.449  0.00  0.00    -0.047 C 
ATOM      3  C   UNL     1      84.556  53.233  41.962  0.00  0.00    -0.024 C 
ATOM      4  C   UNL     1      85.394  54.249  42.823  0.00  0.00    +0.067 C 
ATOM      5  C   UNL     1      84.796  54.529  44.258  0.00  0.00    -0.002 C 
ATOM      6  C   UNL     1      84.562  53.316  45.199  0.00  0.00    -0.014 C 
ATOM      7  C   UNL     1      84.297  51.944  44.550  0.00  0.00    -0.043 C 
ATOM      8  C   UNL     1      85.761  53.344  46.097  0.00  0.00    -0.073 C 
ATOM      9  C   UNL     1      86.357  54.530  46.065  0.00  0.00    -0.084 C 
ATOM     10  C   UNL     1      85.699  55.455  45.103  0.00  0.00    -0.029 C 
ATOM     11  C   UNL     1      86.103  52.278  47.101  0.00  0.00    -0.044 C 
ATOM     12  C   UNL     1      86.864  53.742  42.897  0.00  0.00    -0.036 C 
ENDROOT
BRANCH   1  14
ATOM     13  C   UNL     1      83.070  49.449  44.282  0.00  0.00    -0.062 C 
ATOM     14  C   UNL     1      82.658  50.484  43.221  0.00  0.00    -0.044 C 
ATOM     15  C   UNL     1      81.175  50.313  42.856  0.00  0.00    -0.062 C 
ENDBRANCH   1  14
BRANCH   4  16
ATOM     16  O   UNL     1      85.389  55.493  42.154  0.00  0.00    -0.389 OA
ATOM     17  H   UNL     1      84.806  55.442  41.380  0.00  0.00    +0.000 HD
ENDBRANCH   4  16
TORSDOF 2
ENDMDL
