MODEL 1
REMARK VINA RESULT:    -6.973      0.000      0.000
REMARK INTER + INTRA:          -7.850
REMARK INTER:                  -7.595
REMARK INTRA:                  -0.255
REMARK UNBOUND:                -0.265
REMARK  Name = 
REMARK  6 active torsions:
REMARK  status: ('A' for Active; 'I' for Inactive)
REMARK    1  A    between atoms: C_1  and  C_2
REMARK    2  A    between atoms: C_2  and  C_3
REMARK    3  A    between atoms: C_2  and  C_16
REMARK    4  A    between atoms: C_6  and  C_14
REMARK    5  A    between atoms: C_6  and  O_15
REMARK    6  A    between atoms: C_10  and  C_13
REMARK                            x       y       z     vdW  Elec       q    Type
REMARK                         _______ _______ _______ _____ _____    ______ ____
ROOT
ATOM      1  C   UNL     1      86.179  54.423  46.504  0.00  0.00    -0.038 C 
ATOM      2  C   UNL     1      85.641  54.647  45.058  0.00  0.00    -0.047 C 
ATOM      3  C   UNL     1      84.782  53.493  44.510  0.00  0.00    -0.024 C 
ATOM      4  C   UNL     1      85.561  52.232  43.983  0.00  0.00    +0.067 C 
ATOM      5  C   UNL     1      87.073  52.169  44.438  0.00  0.00    -0.002 C 
ATOM      6  C   UNL     1      87.379  52.212  45.960  0.00  0.00    -0.014 C 
ATOM      7  C   UNL     1      86.369  52.929  46.875  0.00  0.00    -0.043 C 
ATOM      8  C   UNL     1      87.598  50.770  46.305  0.00  0.00    -0.073 C 
ATOM      9  C   UNL     1      87.846  50.048  45.218  0.00  0.00    -0.084 C 
ATOM     10  C   UNL     1      87.772  50.869  43.979  0.00  0.00    -0.029 C 
ATOM     11  C   UNL     1      87.777  50.243  47.701  0.00  0.00    -0.044 C 
ATOM     12  C   UNL     1      84.776  50.954  44.401  0.00  0.00    -0.036 C 
ENDROOT
BRANCH   1  14
ATOM     13  C   UNL     1      84.372  56.185  47.007  0.00  0.00    -0.062 C 
ATOM     14  C   UNL     1      85.360  55.171  47.608  0.00  0.00    -0.044 C 
ATOM     15  C   UNL     1      84.633  54.233  48.585  0.00  0.00    -0.062 C 
ENDBRANCH   1  14
BRANCH   4  16
ATOM     16  O   UNL     1      85.584  52.294  42.572  0.00  0.00    -0.389 OA
ATOM     17  H   UNL     1      84.731  51.992  42.221  0.00  0.00    +0.000 HD
ENDBRANCH   4  16
TORSDOF 2
ENDMDL
MODEL 2
REMARK VINA RESULT:    -6.958      1.888      4.680
REMARK INTER + INTRA:          -7.833
REMARK INTER:                  -7.639
REMARK INTRA:                  -0.194
REMARK UNBOUND:                -0.265
REMARK  Name = 
REMARK  6 active torsions:
REMARK  status: ('A' for Active; 'I' for Inactive)
REMARK    1  A    between atoms: C_1  and  C_2
REMARK    2  A    between atoms: C_2  and  C_3
REMARK    3  A    between atoms: C_2  and  C_16
REMARK    4  A    between atoms: C_6  and  C_14
REMARK    5  A    between atoms: C_6  and  O_15
REMARK    6  A    between atoms: C_10  and  C_13
REMARK                            x       y       z     vdW  Elec       q    Type
REMARK                         _______ _______ _______ _____ _____    ______ ____
ROOT
ATOM      1  C   UNL     1      86.496  52.358  44.641  0.00  0.00    -0.038 C 
ATOM      2  C   UNL     1      86.031  53.675  43.950  0.00  0.00    -0.047 C 
ATOM      3  C   UNL     1      86.353  54.958  44.737  0.00  0.00    -0.024 C 
ATOM      4  C   UNL     1      85.398  55.298  45.940  0.00  0.00    +0.067 C 
ATOM      5  C   UNL     1      84.487  54.093  46.404  0.00  0.00    -0.002 C 
ATOM      6  C   UNL     1      85.186  52.769  46.818  0.00  0.00    -0.014 C 
ATOM      7  C   UNL     1      86.555  52.452  46.188  0.00  0.00    -0.043 C 
ATOM      8  C   UNL     1      85.207  52.848  48.314  0.00  0.00    -0.073 C 
ATOM      9  C   UNL     1      84.331  53.741  48.761  0.00  0.00    -0.084 C 
ATOM     10  C   UNL     1      83.637  54.441  47.645  0.00  0.00    -0.029 C 
ATOM     11  C   UNL     1      85.920  51.876  49.212  0.00  0.00    -0.044 C 
ATOM     12  C   UNL     1      86.256  55.860  47.111  0.00  0.00    -0.036 C 
ENDROOT
BRANCH   1  14
ATOM     13  C   UNL     1      88.000  50.284  44.390  0.00  0.00    -0.062 C 
ATOM     14  C   UNL     1      87.832  51.778  44.067  0.00  0.00    -0.044 C 
ATOM     15  C   UNL     1      88.016  52.023  42.560  0.00  0.00    -0.062 C 
ENDBRANCH   1  14
BRANCH   4  16
ATOM     16  O   UNL     1      84.510  56.312  45.517  0.00  0.00    -0.389 OA
ATOM     17  H   UNL     1      83.603  55.969  45.521  0.00  0.00    +0.000 HD
ENDBRANCH   4  16
TORSDOF 2
ENDMDL
MODEL 3
REMARK VINA RESULT:    -6.938      1.841      3.463
REMARK INTER + INTRA:          -7.812
REMARK INTER:                  -7.722
REMARK INTRA:                  -0.090
REMARK UNBOUND:                -0.265
REMARK  Name = 
REMARK  6 active torsions:
REMARK  status: ('A' for Active; 'I' for Inactive)
REMARK    1  A    between atoms: C_1  and  C_2
REMARK    2  A    between atoms: C_2  and  C_3
REMARK    3  A    between atoms: C_2  and  C_16
REMARK    4  A    between atoms: C_6  and  C_14
REMARK    5  A    between atoms: C_6  and  O_15
REMARK    6  A    between atoms: C_10  and  C_13
REMARK                            x       y       z     vdW  Elec       q    Type
REMARK                         _______ _______ _______ _____ _____    ______ ____
ROOT
ATOM      1  C   UNL     1      86.275  56.319  45.464  0.00  0.00    -0.038 C 
ATOM      2  C   UNL     1      86.815  55.317  44.399  0.00  0.00    -0.047 C 
ATOM      3  C   UNL     1      85.863  54.149  44.080  0.00  0.00    -0.024 C 
ATOM      4  C   UNL     1      85.834  52.968  45.119  0.00  0.00    +0.067 C 
ATOM      5  C   UNL     1      86.487  53.318  46.515  0.00  0.00    -0.002 C 
ATOM      6  C   UNL     1      85.930  54.542  47.294  0.00  0.00    -0.014 C 
ATOM      7  C   UNL     1      85.290  55.681  46.479  0.00  0.00    -0.043 C 
ATOM      8  C   UNL     1      85.008  53.917  48.297  0.00  0.00    -0.073 C 
ATOM      9  C   UNL     1      85.268  52.623  48.448  0.00  0.00    -0.084 C 
ATOM     10  C   UNL     1      86.351  52.166  47.534  0.00  0.00    -0.029 C 
ATOM     11  C   UNL     1      84.090  54.683  49.207  0.00  0.00    -0.044 C 
ATOM     12  C   UNL     1      84.364  52.480  45.273  0.00  0.00    -0.036 C 
ENDROOT
BRANCH   1  14
ATOM     13  C   UNL     1      84.843  57.351  43.591  0.00  0.00    -0.062 C 
ATOM     14  C   UNL     1      85.675  57.630  44.854  0.00  0.00    -0.044 C 
ATOM     15  C   UNL     1      84.861  58.464  45.857  0.00  0.00    -0.062 C 
ENDBRANCH   1  14
BRANCH   4  16
ATOM     16  O   UNL     1      86.599  51.906  44.591  0.00  0.00    -0.389 OA
ATOM     17  H   UNL     1      87.327  52.264  44.058  0.00  0.00    +0.000 HD
ENDBRANCH   4  16
TORSDOF 2
ENDMDL
MODEL 4
REMARK VINA RESULT:    -6.715      2.257      4.984
REMARK INTER + INTRA:          -7.569
REMARK INTER:                  -7.335
REMARK INTRA:                  -0.234
REMARK UNBOUND:                -0.265
REMARK  Name = 
REMARK  6 active torsions:
REMARK  status: ('A' for Active; 'I' for Inactive)
REMARK    1  A    between atoms: C_1  and  C_2
REMARK    2  A    between atoms: C_2  and  C_3
REMARK    3  A    between atoms: C_2  and  C_16
REMARK    4  A    between atoms: C_6  and  C_14
REMARK    5  A    between atoms: C_6  and  O_15
REMARK    6  A    between atoms: C_10  and  C_13
REMARK                            x       y       z     vdW  Elec       q    Type
REMARK                         _______ _______ _______ _____ _____    ______ ____
ROOT
ATOM      1  C   UNL     1      88.482  50.920  42.812  0.00  0.00    -0.038 C 
ATOM      2  C   UNL     1      88.020  49.431  42.839  0.00  0.00    -0.047 C 
ATOM      3  C   UNL     1      86.520  49.232  43.121  0.00  0.00    -0.024 C 
ATOM      4  C   UNL     1      86.069  49.358  44.623  0.00  0.00    +0.067 C 
ATOM      5  C   UNL     1      87.139  50.040  45.565  0.00  0.00    -0.002 C 
ATOM      6  C   UNL     1      87.644  51.459  45.186  0.00  0.00    -0.014 C 
ATOM      7  C   UNL     1      87.619  51.856  43.697  0.00  0.00    -0.043 C 
ATOM      8  C   UNL     1      86.834  52.358  46.070  0.00  0.00    -0.073 C 
ATOM      9  C   UNL     1      86.304  51.683  47.084  0.00  0.00    -0.084 C 
ATOM     10  C   UNL     1      86.619  50.230  47.007  0.00  0.00    -0.029 C 
ATOM     11  C   UNL     1      86.827  53.859  45.987  0.00  0.00    -0.044 C 
ATOM     12  C   UNL     1      84.701  50.098  44.670  0.00  0.00    -0.036 C 
ENDROOT
BRANCH   1  14
ATOM     13  C   UNL     1      87.509  52.484  41.015  0.00  0.00    -0.062 C 
ATOM     14  C   UNL     1      88.643  51.507  41.371  0.00  0.00    -0.044 C 
ATOM     15  C   UNL     1      90.011  52.161  41.117  0.00  0.00    -0.062 C 
ENDBRANCH   1  14
BRANCH   4  16
ATOM     16  O   UNL     1      85.884  48.053  45.132  0.00  0.00    -0.389 OA
ATOM     17  H   UNL     1      86.636  47.817  45.698  0.00  0.00    +0.000 HD
ENDBRANCH   4  16
TORSDOF 2
ENDMDL
MODEL 5
REMARK VINA RESULT:    -6.531      2.235      4.748
REMARK INTER + INTRA:          -7.369
REMARK INTER:                  -7.176
REMARK INTRA:                  -0.194
REMARK UNBOUND:                -0.265
REMARK  Name = 
REMARK  6 active torsions:
REMARK  status: ('A' for Active; 'I' for Inactive)
REMARK    1  A    between atoms: C_1  and  C_2
REMARK    2  A    between atoms: C_2  and  C_3
REMARK    3  A    between atoms: C_2  and  C_16
REMARK    4  A    between atoms: C_6  and  C_14
REMARK    5  A    between atoms: C_6  and  O_15
REMARK    6  A    between atoms: C_10  and  C_13
REMARK                            x       y       z     vdW  Elec       q    Type
REMARK                         _______ _______ _______ _____ _____    ______ ____
ROOT
ATOM      1  C   UNL     1      84.615  54.304  47.058  0.00  0.00    -0.038 C 
ATOM      2  C   UNL     1      85.020  53.200  46.035  0.00  0.00    -0.047 C 
ATOM      3  C   UNL     1      86.275  53.528  45.205  0.00  0.00    -0.024 C 
ATOM      4  C   UNL     1      86.076  54.518  43.999  0.00  0.00    +0.067 C 
ATOM      5  C   UNL     1      84.718  55.326  44.042  0.00  0.00    -0.002 C 
ATOM      6  C   UNL     1      84.417  56.178  45.305  0.00  0.00    -0.014 C 
ATOM      7  C   UNL     1      85.047  55.734  46.639  0.00  0.00    -0.043 C 
ATOM      8  C   UNL     1      84.800  57.563  44.882  0.00  0.00    -0.073 C 
ATOM      9  C   UNL     1      84.869  57.660  43.559  0.00  0.00    -0.084 C 
ATOM     10  C   UNL     1      84.608  56.354  42.894  0.00  0.00    -0.029 C 
ATOM     11  C   UNL     1      84.847  58.755  45.797  0.00  0.00    -0.044 C 
ATOM     12  C   UNL     1      87.310  55.464  43.926  0.00  0.00    -0.036 C 
ENDROOT
BRANCH   1  14
ATOM     13  C   UNL     1      84.054  54.543  49.559  0.00  0.00    -0.062 C 
ATOM     14  C   UNL     1      85.057  53.998  48.528  0.00  0.00    -0.044 C 
ATOM     15  C   UNL     1      85.339  52.510  48.793  0.00  0.00    -0.062 C 
ENDBRANCH   1  14
BRANCH   4  16
ATOM     16  O   UNL     1      86.033  53.755  42.812  0.00  0.00    -0.389 OA
ATOM     17  H   UNL     1      85.122  53.721  42.482  0.00  0.00    +0.000 HD
ENDBRANCH   4  16
TORSDOF 2
ENDMDL
MODEL 6
REMARK VINA RESULT:    -6.506      2.067      5.291
REMARK INTER + INTRA:          -7.341
REMARK INTER:                  -7.142
REMARK INTRA:                  -0.200
REMARK UNBOUND:                -0.265
REMARK  Name = 
REMARK  6 active torsions:
REMARK  status: ('A' for Active; 'I' for Inactive)
REMARK    1  A    between atoms: C_1  and  C_2
REMARK    2  A    between atoms: C_2  and  C_3
REMARK    3  A    between atoms: C_2  and  C_16
REMARK    4  A    between atoms: C_6  and  C_14
REMARK    5  A    between atoms: C_6  and  O_15
REMARK    6  A    between atoms: C_10  and  C_13
REMARK                            x       y       z     vdW  Elec       q    Type
REMARK                         _______ _______ _______ _____ _____    ______ ____
ROOT
ATOM      1  C   UNL     1      87.281  52.306  44.788  0.00  0.00    -0.038 C 
ATOM      2  C   UNL     1      87.316  52.024  46.321  0.00  0.00    -0.047 C 
ATOM      3  C   UNL     1      85.968  52.226  47.038  0.00  0.00    -0.024 C 
ATOM      4  C   UNL     1      85.564  53.712  47.359  0.00  0.00    +0.067 C 
ATOM      5  C   UNL     1      86.401  54.795  46.571  0.00  0.00    -0.002 C 
ATOM      6  C   UNL     1      86.416  54.719  45.020  0.00  0.00    -0.014 C 
ATOM      7  C   UNL     1      86.205  53.340  44.367  0.00  0.00    -0.043 C 
ATOM      8  C   UNL     1      85.401  55.745  44.618  0.00  0.00    -0.073 C 
ATOM      9  C   UNL     1      85.154  56.592  45.611  0.00  0.00    -0.084 C 
ATOM     10  C   UNL     1      85.908  56.234  46.844  0.00  0.00    -0.029 C 
ATOM     11  C   UNL     1      84.916  55.963  43.212  0.00  0.00    -0.044 C 
ATOM     12  C   UNL     1      84.035  53.873  47.117  0.00  0.00    -0.036 C 
ENDROOT
BRANCH   1  14
ATOM     13  C   UNL     1      86.983  51.343  42.420  0.00  0.00    -0.062 C 
ATOM     14  C   UNL     1      87.188  51.015  43.909  0.00  0.00    -0.044 C 
ATOM     15  C   UNL     1      88.378  50.057  44.085  0.00  0.00    -0.062 C 
ENDBRANCH   1  14
BRANCH   4  16
ATOM     16  O   UNL     1      85.821  53.946  48.728  0.00  0.00    -0.389 OA
ATOM     17  H   UNL     1      85.532  53.179  49.247  0.00  0.00    +0.000 HD
ENDBRANCH   4  16
TORSDOF 2
ENDMDL
MODEL 7
REMARK VINA RESULT:    -6.495      2.899      5.431
REMARK INTER + INTRA:          -7.329
REMARK INTER:                  -7.204
REMARK INTRA:                  -0.126
REMARK UNBOUND:                -0.265
REMARK  Name = 
REMARK  6 active torsions:
REMARK  status: ('A' for Active; 'I' for Inactive)
REMARK    1  A    between atoms: C_1  and  C_2
REMARK    2  A    between atoms: C_2  and  C_3
REMARK    3  A    between atoms: C_2  and  C_16
REMARK    4  A    between atoms: C_6  and  C_14
REMARK    5  A    between atoms: C_6  and  O_15
REMARK    6  A    between atoms: C_10  and  C_13
REMARK                            x       y       z     vdW  Elec       q    Type
REMARK                         _______ _______ _______ _____ _____    ______ ____
ROOT
ATOM      1  C   UNL     1      83.847  54.348  42.846  0.00  0.00    -0.038 C 
ATOM      2  C   UNL     1      83.434  55.844  42.699  0.00  0.00    -0.047 C 
ATOM      3  C   UNL     1      84.594  56.844  42.851  0.00  0.00    -0.024 C 
ATOM      4  C   UNL     1      85.058  57.158  44.321  0.00  0.00    +0.067 C 
ATOM      5  C   UNL     1      84.534  56.127  45.398  0.00  0.00    -0.002 C 
ATOM      6  C   UNL     1      84.869  54.625  45.193  0.00  0.00    -0.014 C 
ATOM      7  C   UNL     1      85.088  54.129  43.751  0.00  0.00    -0.043 C 
ATOM      8  C   UNL     1      86.045  54.410  46.096  0.00  0.00    -0.073 C 
ATOM      9  C   UNL     1      86.139  55.378  47.000  0.00  0.00    -0.084 C 
ATOM     10  C   UNL     1      85.090  56.417  46.810  0.00  0.00    -0.029 C 
ATOM     11  C   UNL     1      86.859  53.147  46.155  0.00  0.00    -0.044 C 
ATOM     12  C   UNL     1      86.610  57.275  44.337  0.00  0.00    -0.036 C 
ENDROOT
BRANCH   1  14
ATOM     13  C   UNL     1      83.011  52.440  41.334  0.00  0.00    -0.062 C 
ATOM     14  C   UNL     1      84.012  53.598  41.482  0.00  0.00    -0.044 C 
ATOM     15  C   UNL     1      83.946  54.522  40.255  0.00  0.00    -0.062 C 
ENDBRANCH   1  14
BRANCH   4  16
ATOM     16  O   UNL     1      84.517  58.409  44.689  0.00  0.00    -0.389 OA
ATOM     17  H   UNL     1      84.106  58.825  43.915  0.00  0.00    +0.000 HD
ENDBRANCH   4  16
TORSDOF 2
ENDMDL
MODEL 8
REMARK VINA RESULT:    -6.345      1.605      3.406
REMARK INTER + INTRA:          -7.166
REMARK INTER:                  -6.935
REMARK INTRA:                  -0.232
REMARK UNBOUND:                -0.265
REMARK  Name = 
REMARK  6 active torsions:
REMARK  status: ('A' for Active; 'I' for Inactive)
REMARK    1  A    between atoms: C_1  and  C_2
REMARK    2  A    between atoms: C_2  and  C_3
REMARK    3  A    between atoms: C_2  and  C_16
REMARK    4  A    between atoms: C_6  and  C_14
REMARK    5  A    between atoms: C_6  and  O_15
REMARK    6  A    between atoms: C_10  and  C_13
REMARK                            x       y       z     vdW  Elec       q    Type
REMARK                         _______ _______ _______ _____ _____    ______ ____
ROOT
ATOM      1  C   UNL     1      85.029  53.198  47.044  0.00  0.00    -0.038 C 
ATOM      2  C   UNL     1      85.899  51.984  47.492  0.00  0.00    -0.047 C 
ATOM      3  C   UNL     1      87.092  51.678  46.569  0.00  0.00    -0.024 C 
ATOM      4  C   UNL     1      86.766  50.903  45.239  0.00  0.00    +0.067 C 
ATOM      5  C   UNL     1      85.232  50.887  44.859  0.00  0.00    -0.002 C 
ATOM      6  C   UNL     1      84.504  52.251  44.709  0.00  0.00    -0.014 C 
ATOM      7  C   UNL     1      85.047  53.447  45.513  0.00  0.00    -0.043 C 
ATOM      8  C   UNL     1      84.491  52.469  43.226  0.00  0.00    -0.073 C 
ATOM      9  C   UNL     1      84.713  51.334  42.572  0.00  0.00    -0.084 C 
ATOM     10  C   UNL     1      84.969  50.200  43.501  0.00  0.00    -0.029 C 
ATOM     11  C   UNL     1      84.033  53.732  42.552  0.00  0.00    -0.044 C 
ATOM     12  C   UNL     1      87.640  51.493  44.094  0.00  0.00    -0.036 C 
ENDROOT
BRANCH   1  14
ATOM     13  C   UNL     1      85.976  55.588  46.929  0.00  0.00    -0.062 C 
ATOM     14  C   UNL     1      85.332  54.518  47.827  0.00  0.00    -0.044 C 
ATOM     15  C   UNL     1      84.112  55.099  48.559  0.00  0.00    -0.062 C 
ENDBRANCH   1  14
BRANCH   4  16
ATOM     16  O   UNL     1      87.132  49.552  45.423  0.00  0.00    -0.389 OA
ATOM     17  H   UNL     1      87.778  49.487  46.145  0.00  0.00    +0.000 HD
ENDBRANCH   4  16
TORSDOF 2
ENDMDL
MODEL 9
REMARK VINA RESULT:    -6.327      1.918      3.186
REMARK INTER + INTRA:          -7.147
REMARK INTER:                  -6.882
REMARK INTRA:                  -0.265
REMARK UNBOUND:                -0.265
REMARK  Name = 
REMARK  6 active torsions:
REMARK  status: ('A' for Active; 'I' for Inactive)
REMARK    1  A    between atoms: C_1  and  C_2
REMARK    2  A    between atoms: C_2  and  C_3
REMARK    3  A    between atoms: C_2  and  C_16
REMARK    4  A    between atoms: C_6  and  C_14
REMARK    5  A    between atoms: C_6  and  O_15
REMARK    6  A    between atoms: C_10  and  C_13
REMARK                            x       y       z     vdW  Elec       q    Type
REMARK                         _______ _______ _______ _____ _____    ______ ____
ROOT
ATOM      1  C   UNL     1      85.215  53.424  45.884  0.00  0.00    -0.038 C 
ATOM      2  C   UNL     1      84.911  52.532  47.125  0.00  0.00    -0.047 C 
ATOM      3  C   UNL     1      86.146  51.851  47.741  0.00  0.00    -0.024 C 
ATOM      4  C   UNL     1      86.679  50.570  46.999  0.00  0.00    +0.067 C 
ATOM      5  C   UNL     1      86.115  50.388  45.534  0.00  0.00    -0.002 C 
ATOM      6  C   UNL     1      86.330  51.546  44.522  0.00  0.00    -0.014 C 
ATOM      7  C   UNL     1      86.465  52.975  45.083  0.00  0.00    -0.043 C 
ATOM      8  C   UNL     1      87.515  51.090  43.727  0.00  0.00    -0.073 C 
ATOM      9  C   UNL     1      87.710  49.783  43.863  0.00  0.00    -0.084 C 
ATOM     10  C   UNL     1      86.737  49.173  44.810  0.00  0.00    -0.029 C 
ATOM     11  C   UNL     1      88.234  51.927  42.706  0.00  0.00    -0.044 C 
ATOM     12  C   UNL     1      88.235  50.595  47.022  0.00  0.00    -0.036 C 
ENDROOT
BRANCH   1  14
ATOM     13  C   UNL     1      84.633  55.290  47.559  0.00  0.00    -0.062 C 
ATOM     14  C   UNL     1      85.280  54.955  46.205  0.00  0.00    -0.044 C 
ATOM     15  C   UNL     1      86.698  55.545  46.130  0.00  0.00    -0.062 C 
ENDBRANCH   1  14
BRANCH   4  16
ATOM     16  O   UNL     1      86.246  49.437  47.723  0.00  0.00    -0.389 OA
ATOM     17  H   UNL     1      86.305  48.650  47.158  0.00  0.00    +0.000 HD
ENDBRANCH   4  16
TORSDOF 2
ENDMDL
