MODEL 1
REMARK VINA RESULT:    -8.477      0.000      0.000
REMARK INTER + INTRA:         -10.911
REMARK INTER:                 -10.500
REMARK INTRA:                  -0.411
REMARK UNBOUND:                -0.453
REMARK  Name = 
REMARK  9 active torsions:
REMARK  status: ('A' for Active; 'I' for Inactive)
REMARK    1  A    between atoms: C_1  and  O_2
REMARK    2  A    between atoms: O_2  and  C_3
REMARK    3  A    between atoms: C_4  and  O_5
REMARK    4  A    between atoms: C_7  and  C_11
REMARK    5  A    between atoms: C_9  and  O_10
REMARK    6  A    between atoms: C_17  and  C_18
REMARK    7  A    between atoms: C_17  and  C_19
REMARK    8  A    between atoms: C_23  and  O_29
REMARK    9  A    between atoms: C_27  and  O_28
REMARK                            x       y       z     vdW  Elec       q    Type
REMARK                         _______ _______ _______ _____ _____    ______ ____
ROOT
ATOM      1  C   UNL     1      84.132  50.962  43.723  0.00  0.00    +0.181 A 
ATOM      2  O   UNL     1      85.081  50.041  43.846  0.00  0.00    -0.451 OA
ATOM      3  C   UNL     1      84.836  48.736  43.862  0.00  0.00    +0.147 A 
ATOM      4  C   UNL     1      85.915  47.857  43.966  0.00  0.00    +0.024 A 
ATOM      5  C   UNL     1      85.705  46.482  43.961  0.00  0.00    +0.136 A 
ATOM      6  O   UNL     1      86.798  45.612  44.042  0.00  0.00    -0.481 OA
ATOM      7  C   UNL     1      86.706  44.210  43.755  0.00  0.00    +0.124 C 
ATOM      8  C   UNL     1      87.092  43.983  42.287  0.00  0.00    -0.021 C 
ATOM      9  C   UNL     1      87.683  43.466  44.672  0.00  0.00    -0.021 C 
ATOM     10  C   UNL     1      85.301  43.686  43.982  0.00  0.00    -0.041 C 
ATOM     11  C   UNL     1      84.241  44.500  43.996  0.00  0.00    -0.048 C 
ATOM     12  C   UNL     1      84.407  45.966  43.908  0.00  0.00    +0.059 A 
ATOM     13  C   UNL     1      83.297  46.832  43.852  0.00  0.00    +0.142 A 
ATOM     14  C   UNL     1      83.510  48.242  43.769  0.00  0.00    +0.110 A 
ATOM     15  C   UNL     1      82.485  49.195  43.557  0.00  0.00    +0.238 A 
ATOM     16  O   UNL     1      81.297  48.843  43.333  0.00  0.00    -0.283 OA
ATOM     17  C   UNL     1      82.796  50.565  43.544  0.00  0.00    +0.208 A 
ENDROOT
BRANCH   1  21
ATOM     18  C   UNL     1      85.356  55.093  43.744  0.00  0.00    +0.203 A 
ATOM     19  C   UNL     1      85.177  54.400  44.967  0.00  0.00    +0.163 A 
ATOM     20  C   UNL     1      84.776  53.056  44.956  0.00  0.00    -0.005 A 
ATOM     21  C   UNL     1      84.534  52.386  43.747  0.00  0.00    +0.028 A 
ATOM     22  C   UNL     1      84.736  53.068  42.541  0.00  0.00    -0.005 A 
ATOM     23  C   UNL     1      85.135  54.407  42.533  0.00  0.00    +0.163 A 
BRANCH  18  25
ATOM     24  C   UNL     1      84.931  57.578  43.913  0.00  0.00    +0.079 C 
ATOM     25  O   UNL     1      85.751  56.442  43.664  0.00  0.00    -0.489 OA
ENDBRANCH  18  25
BRANCH  19  26
ATOM     26  O   UNL     1      85.400  55.026  46.193  0.00  0.00    -0.503 OA
ATOM     27  H   UNL     1      84.763  54.956  46.876  0.00  0.00    +0.000 HD
ENDBRANCH  19  26
BRANCH  23  28
ATOM     28  O   UNL     1      85.306  55.043  41.304  0.00  0.00    -0.503 OA
ATOM     29  H   UNL     1      84.590  55.100  40.701  0.00  0.00    +0.000 HD
ENDBRANCH  23  28
ENDBRANCH   1  21
BRANCH  17  30
ATOM     30  O   UNL     1      81.802  51.522  43.318  0.00  0.00    -0.501 OA
ATOM     31  H   UNL     1      81.361  51.553  42.492  0.00  0.00    +0.000 HD
ENDBRANCH  17  30
BRANCH  13  32
ATOM     32  O   UNL     1      82.022  46.257  43.915  0.00  0.00    -0.505 OA
ATOM     33  H   UNL     1      81.422  46.518  44.585  0.00  0.00    +0.000 HD
ENDBRANCH  13  32
TORSDOF 6
ENDMDL
MODEL 2
REMARK VINA RESULT:    -7.977      2.385      4.147
REMARK INTER + INTRA:         -10.295
REMARK INTER:                  -9.898
REMARK INTRA:                  -0.396
REMARK UNBOUND:                -0.453
REMARK  Name = 
REMARK  9 active torsions:
REMARK  status: ('A' for Active; 'I' for Inactive)
REMARK    1  A    between atoms: C_1  and  O_2
REMARK    2  A    between atoms: O_2  and  C_3
REMARK    3  A    between atoms: C_4  and  O_5
REMARK    4  A    between atoms: C_7  and  C_11
REMARK    5  A    between atoms: C_9  and  O_10
REMARK    6  A    between atoms: C_17  and  C_18
REMARK    7  A    between atoms: C_17  and  C_19
REMARK    8  A    between atoms: C_23  and  O_29
REMARK    9  A    between atoms: C_27  and  O_28
REMARK                            x       y       z     vdW  Elec       q    Type
REMARK                         _______ _______ _______ _____ _____    ______ ____
ROOT
ATOM      1  C   UNL     1      86.922  51.803  43.017  0.00  0.00    +0.181 A 
ATOM      2  O   UNL     1      86.249  50.672  43.193  0.00  0.00    -0.451 OA
ATOM      3  C   UNL     1      86.740  49.474  42.899  0.00  0.00    +0.147 A 
ATOM      4  C   UNL     1      85.954  48.351  43.154  0.00  0.00    +0.024 A 
ATOM      5  C   UNL     1      86.440  47.076  42.885  0.00  0.00    +0.136 A 
ATOM      6  O   UNL     1      85.651  45.956  43.168  0.00  0.00    -0.481 OA
ATOM      7  C   UNL     1      86.169  44.619  43.197  0.00  0.00    +0.124 C 
ATOM      8  C   UNL     1      86.547  44.270  44.642  0.00  0.00    -0.021 C 
ATOM      9  C   UNL     1      85.073  43.668  42.700  0.00  0.00    -0.021 C 
ATOM     10  C   UNL     1      87.396  44.478  42.318  0.00  0.00    -0.041 C 
ATOM     11  C   UNL     1      88.127  45.537  41.958  0.00  0.00    -0.048 C 
ATOM     12  C   UNL     1      87.701  46.909  42.302  0.00  0.00    +0.059 A 
ATOM     13  C   UNL     1      88.495  48.030  41.989  0.00  0.00    +0.142 A 
ATOM     14  C   UNL     1      88.038  49.336  42.344  0.00  0.00    +0.110 A 
ATOM     15  C   UNL     1      88.810  50.516  42.218  0.00  0.00    +0.238 A 
ATOM     16  O   UNL     1      90.016  50.476  41.859  0.00  0.00    -0.283 OA
ATOM     17  C   UNL     1      88.245  51.759  42.547  0.00  0.00    +0.208 A 
ENDROOT
BRANCH   1  21
ATOM     18  C   UNL     1      84.916  55.472  44.056  0.00  0.00    +0.203 A 
ATOM     19  C   UNL     1      85.171  55.164  42.696  0.00  0.00    +0.163 A 
ATOM     20  C   UNL     1      85.827  53.970  42.362  0.00  0.00    -0.005 A 
ATOM     21  C   UNL     1      86.249  53.077  43.358  0.00  0.00    +0.028 A 
ATOM     22  C   UNL     1      85.973  53.374  44.698  0.00  0.00    -0.005 A 
ATOM     23  C   UNL     1      85.322  54.560  45.049  0.00  0.00    +0.163 A 
BRANCH  18  25
ATOM     24  C   UNL     1      84.884  57.910  44.721  0.00  0.00    +0.079 C 
ATOM     25  O   UNL     1      84.270  56.649  44.478  0.00  0.00    -0.489 OA
ENDBRANCH  18  25
BRANCH  19  26
ATOM     26  O   UNL     1      84.776  56.024  41.672  0.00  0.00    -0.503 OA
ATOM     27  H   UNL     1      84.595  55.683  40.819  0.00  0.00    +0.000 HD
ENDBRANCH  19  26
BRANCH  23  28
ATOM     28  O   UNL     1      85.085  54.814  46.400  0.00  0.00    -0.503 OA
ATOM     29  H   UNL     1      85.616  54.404  47.055  0.00  0.00    +0.000 HD
ENDBRANCH  23  28
ENDBRANCH   1  21
BRANCH  17  30
ATOM     30  O   UNL     1      88.996  52.934  42.447  0.00  0.00    -0.501 OA
ATOM     31  H   UNL     1      88.807  53.659  43.010  0.00  0.00    +0.000 HD
ENDBRANCH  17  30
BRANCH  13  32
ATOM     32  O   UNL     1      89.696  47.802  41.307  0.00  0.00    -0.505 OA
ATOM     33  H   UNL     1      90.329  48.488  41.229  0.00  0.00    +0.000 HD
ENDBRANCH  13  32
TORSDOF 6
ENDMDL
MODEL 3
REMARK VINA RESULT:    -7.920      2.601      8.991
REMARK INTER + INTRA:         -10.225
REMARK INTER:                 -10.639
REMARK INTRA:                   0.414
REMARK UNBOUND:                -0.453
REMARK  Name = 
REMARK  9 active torsions:
REMARK  status: ('A' for Active; 'I' for Inactive)
REMARK    1  A    between atoms: C_1  and  O_2
REMARK    2  A    between atoms: O_2  and  C_3
REMARK    3  A    between atoms: C_4  and  O_5
REMARK    4  A    between atoms: C_7  and  C_11
REMARK    5  A    between atoms: C_9  and  O_10
REMARK    6  A    between atoms: C_17  and  C_18
REMARK    7  A    between atoms: C_17  and  C_19
REMARK    8  A    between atoms: C_23  and  O_29
REMARK    9  A    between atoms: C_27  and  O_28
REMARK                            x       y       z     vdW  Elec       q    Type
REMARK                         _______ _______ _______ _____ _____    ______ ____
ROOT
ATOM      1  C   UNL     1      86.920  48.951  43.237  0.00  0.00    +0.181 A 
ATOM      2  O   UNL     1      86.597  49.798  44.207  0.00  0.00    -0.451 OA
ATOM      3  C   UNL     1      86.695  51.117  44.088  0.00  0.00    +0.147 A 
ATOM      4  C   UNL     1      86.298  51.913  45.163  0.00  0.00    +0.024 A 
ATOM      5  C   UNL     1      86.360  53.300  45.072  0.00  0.00    +0.136 A 
ATOM      6  O   UNL     1      85.936  54.087  46.148  0.00  0.00    -0.481 OA
ATOM      7  C   UNL     1      85.692  55.496  46.040  0.00  0.00    +0.124 C 
ATOM      8  C   UNL     1      84.201  55.716  45.758  0.00  0.00    -0.021 C 
ATOM      9  C   UNL     1      86.074  56.154  47.371  0.00  0.00    -0.021 C 
ATOM     10  C   UNL     1      86.503  56.117  44.919  0.00  0.00    -0.041 C 
ATOM     11  C   UNL     1      86.996  55.382  43.918  0.00  0.00    -0.048 C 
ATOM     12  C   UNL     1      86.873  53.910  43.922  0.00  0.00    +0.059 A 
ATOM     13  C   UNL     1      87.326  53.128  42.842  0.00  0.00    +0.142 A 
ATOM     14  C   UNL     1      87.183  51.707  42.895  0.00  0.00    +0.110 A 
ATOM     15  C   UNL     1      87.461  50.834  41.816  0.00  0.00    +0.238 A 
ATOM     16  O   UNL     1      87.774  51.275  40.678  0.00  0.00    -0.283 OA
ATOM     17  C   UNL     1      87.339  49.446  41.991  0.00  0.00    +0.208 A 
ENDROOT
BRANCH   1  21
ATOM     18  C   UNL     1      86.553  44.716  43.943  0.00  0.00    +0.203 A 
ATOM     19  C   UNL     1      85.658  45.619  44.568  0.00  0.00    +0.163 A 
ATOM     20  C   UNL     1      85.783  46.997  44.339  0.00  0.00    -0.005 A 
ATOM     21  C   UNL     1      86.793  47.500  43.505  0.00  0.00    +0.028 A 
ATOM     22  C   UNL     1      87.659  46.602  42.870  0.00  0.00    -0.005 A 
ATOM     23  C   UNL     1      87.550  45.226  43.089  0.00  0.00    +0.163 A 
BRANCH  18  25
ATOM     24  C   UNL     1      87.520  42.505  44.690  0.00  0.00    +0.079 C 
ATOM     25  O   UNL     1      86.502  43.321  44.123  0.00  0.00    -0.489 OA
ENDBRANCH  18  25
BRANCH  19  26
ATOM     26  O   UNL     1      84.642  45.167  45.409  0.00  0.00    -0.503 OA
ATOM     27  H   UNL     1      84.675  45.355  46.326  0.00  0.00    +0.000 HD
ENDBRANCH  19  26
BRANCH  23  28
ATOM     28  O   UNL     1      88.449  44.376  42.443  0.00  0.00    -0.503 OA
ATOM     29  H   UNL     1      88.143  43.786  41.782  0.00  0.00    +0.000 HD
ENDBRANCH  23  28
ENDBRANCH   1  21
BRANCH  17  30
ATOM     30  O   UNL     1      87.590  48.567  40.932  0.00  0.00    -0.501 OA
ATOM     31  H   UNL     1      87.200  47.715  40.928  0.00  0.00    +0.000 HD
ENDBRANCH  17  30
BRANCH  13  32
ATOM     32  O   UNL     1      87.931  53.793  41.769  0.00  0.00    -0.505 OA
ATOM     33  H   UNL     1      88.004  53.371  40.936  0.00  0.00    +0.000 HD
ENDBRANCH  13  32
TORSDOF 6
ENDMDL
MODEL 4
REMARK VINA RESULT:    -7.854      3.872      5.702
REMARK INTER + INTRA:         -10.144
REMARK INTER:                 -10.752
REMARK INTRA:                   0.609
REMARK UNBOUND:                -0.453
REMARK  Name = 
REMARK  9 active torsions:
REMARK  status: ('A' for Active; 'I' for Inactive)
REMARK    1  A    between atoms: C_1  and  O_2
REMARK    2  A    between atoms: O_2  and  C_3
REMARK    3  A    between atoms: C_4  and  O_5
REMARK    4  A    between atoms: C_7  and  C_11
REMARK    5  A    between atoms: C_9  and  O_10
REMARK    6  A    between atoms: C_17  and  C_18
REMARK    7  A    between atoms: C_17  and  C_19
REMARK    8  A    between atoms: C_23  and  O_29
REMARK    9  A    between atoms: C_27  and  O_28
REMARK                            x       y       z     vdW  Elec       q    Type
REMARK                         _______ _______ _______ _____ _____    ______ ____
ROOT
ATOM      1  C   UNL     1      83.040  47.612  43.566  0.00  0.00    +0.181 A 
ATOM      2  O   UNL     1      84.194  48.261  43.467  0.00  0.00    -0.451 OA
ATOM      3  C   UNL     1      85.370  47.652  43.371  0.00  0.00    +0.147 A 
ATOM      4  C   UNL     1      86.517  48.435  43.241  0.00  0.00    +0.024 A 
ATOM      5  C   UNL     1      87.766  47.837  43.112  0.00  0.00    +0.136 A 
ATOM      6  O   UNL     1      88.906  48.634  42.958  0.00  0.00    -0.481 OA
ATOM      7  C   UNL     1      90.173  48.116  42.532  0.00  0.00    +0.124 C 
ATOM      8  C   UNL     1      90.289  48.288  41.012  0.00  0.00    -0.021 C 
ATOM      9  C   UNL     1      91.279  48.913  43.233  0.00  0.00    -0.021 C 
ATOM     10  C   UNL     1      90.317  46.645  42.875  0.00  0.00    -0.041 C 
ATOM     11  C   UNL     1      89.253  45.872  43.111  0.00  0.00    -0.048 C 
ATOM     12  C   UNL     1      87.892  46.445  43.165  0.00  0.00    +0.059 A 
ATOM     13  C   UNL     1      86.755  45.633  43.344  0.00  0.00    +0.142 A 
ATOM     14  C   UNL     1      85.462  46.237  43.390  0.00  0.00    +0.110 A 
ATOM     15  C   UNL     1      84.243  45.517  43.415  0.00  0.00    +0.238 A 
ATOM     16  O   UNL     1      84.219  44.262  43.304  0.00  0.00    -0.283 OA
ATOM     17  C   UNL     1      83.024  46.208  43.514  0.00  0.00    +0.208 A 
ENDROOT
BRANCH   1  21
ATOM     18  C   UNL     1      79.471  49.993  43.966  0.00  0.00    +0.203 A 
ATOM     19  C   UNL     1      79.557  48.732  44.606  0.00  0.00    +0.163 A 
ATOM     20  C   UNL     1      80.719  47.958  44.471  0.00  0.00    -0.005 A 
ATOM     21  C   UNL     1      81.799  48.409  43.697  0.00  0.00    +0.028 A 
ATOM     22  C   UNL     1      81.719  49.667  43.087  0.00  0.00    -0.005 A 
ATOM     23  C   UNL     1      80.568  50.450  43.210  0.00  0.00    +0.163 A 
BRANCH  18  25
ATOM     24  C   UNL     1      77.304  50.760  45.015  0.00  0.00    +0.079 C 
ATOM     25  O   UNL     1      78.341  50.829  44.044  0.00  0.00    -0.489 OA
ENDBRANCH  18  25
BRANCH  19  26
ATOM     26  O   UNL     1      78.508  48.240  45.381  0.00  0.00    -0.503 OA
ATOM     27  H   UNL     1      78.544  47.366  45.716  0.00  0.00    +0.000 HD
ENDBRANCH  19  26
BRANCH  23  28
ATOM     28  O   UNL     1      80.534  51.688  42.568  0.00  0.00    -0.503 OA
ATOM     29  H   UNL     1      81.249  51.953  42.022  0.00  0.00    +0.000 HD
ENDBRANCH  23  28
ENDBRANCH   1  21
BRANCH  17  30
ATOM     30  O   UNL     1      81.809  45.517  43.521  0.00  0.00    -0.501 OA
ATOM     31  H   UNL     1      81.726  44.719  44.006  0.00  0.00    +0.000 HD
ENDBRANCH  17  30
BRANCH  13  32
ATOM     32  O   UNL     1      86.960  44.257  43.502  0.00  0.00    -0.505 OA
ATOM     33  H   UNL     1      87.495  43.790  42.892  0.00  0.00    +0.000 HD
ENDBRANCH  13  32
TORSDOF 6
ENDMDL
MODEL 5
REMARK VINA RESULT:    -7.629      2.167      8.850
REMARK INTER + INTRA:          -9.865
REMARK INTER:                  -9.410
REMARK INTRA:                  -0.456
REMARK UNBOUND:                -0.453
REMARK  Name = 
REMARK  9 active torsions:
REMARK  status: ('A' for Active; 'I' for Inactive)
REMARK    1  A    between atoms: C_1  and  O_2
REMARK    2  A    between atoms: O_2  and  C_3
REMARK    3  A    between atoms: C_4  and  O_5
REMARK    4  A    between atoms: C_7  and  C_11
REMARK    5  A    between atoms: C_9  and  O_10
REMARK    6  A    between atoms: C_17  and  C_18
REMARK    7  A    between atoms: C_17  and  C_19
REMARK    8  A    between atoms: C_23  and  O_29
REMARK    9  A    between atoms: C_27  and  O_28
REMARK                            x       y       z     vdW  Elec       q    Type
REMARK                         _______ _______ _______ _____ _____    ______ ____
ROOT
ATOM      1  C   UNL     1      86.368  49.466  43.753  0.00  0.00    +0.181 A 
ATOM      2  O   UNL     1      85.601  50.058  42.845  0.00  0.00    -0.451 OA
ATOM      3  C   UNL     1      85.418  51.372  42.786  0.00  0.00    +0.147 A 
ATOM      4  C   UNL     1      84.614  51.887  41.769  0.00  0.00    +0.024 A 
ATOM      5  C   UNL     1      84.416  53.259  41.656  0.00  0.00    +0.136 A 
ATOM      6  O   UNL     1      83.627  53.764  40.617  0.00  0.00    -0.481 OA
ATOM      7  C   UNL     1      83.605  55.151  40.253  0.00  0.00    +0.124 C 
ATOM      8  C   UNL     1      84.610  55.376  39.115  0.00  0.00    -0.021 C 
ATOM      9  C   UNL     1      82.191  55.501  39.775  0.00  0.00    -0.021 C 
ATOM     10  C   UNL     1      83.978  56.040  41.423  0.00  0.00    -0.041 C 
ATOM     11  C   UNL     1      84.659  55.571  42.473  0.00  0.00    -0.048 C 
ATOM     12  C   UNL     1      84.976  54.134  42.593  0.00  0.00    +0.059 A 
ATOM     13  C   UNL     1      85.752  53.635  43.658  0.00  0.00    +0.142 A 
ATOM     14  C   UNL     1      86.030  52.236  43.729  0.00  0.00    +0.110 A 
ATOM     15  C   UNL     1      86.916  51.642  44.661  0.00  0.00    +0.238 A 
ATOM     16  O   UNL     1      87.604  52.342  45.450  0.00  0.00    -0.283 OA
ATOM     17  C   UNL     1      87.079  50.247  44.680  0.00  0.00    +0.208 A 
ENDROOT
BRANCH   1  21
ATOM     18  C   UNL     1      86.658  45.170  43.606  0.00  0.00    +0.203 A 
ATOM     19  C   UNL     1      85.658  45.786  44.400  0.00  0.00    +0.163 A 
ATOM     20  C   UNL     1      85.569  47.185  44.448  0.00  0.00    -0.005 A 
ATOM     21  C   UNL     1      86.467  47.989  43.729  0.00  0.00    +0.028 A 
ATOM     22  C   UNL     1      87.436  47.375  42.927  0.00  0.00    -0.005 A 
ATOM     23  C   UNL     1      87.540  45.983  42.868  0.00  0.00    +0.163 A 
BRANCH  18  25
ATOM     24  C   UNL     1      87.590  42.950  44.373  0.00  0.00    +0.079 C 
ATOM     25  O   UNL     1      86.821  43.775  43.506  0.00  0.00    -0.489 OA
ENDBRANCH  18  25
BRANCH  19  26
ATOM     26  O   UNL     1      84.749  45.028  45.136  0.00  0.00    -0.503 OA
ATOM     27  H   UNL     1      84.053  44.579  44.699  0.00  0.00    +0.000 HD
ENDBRANCH  19  26
BRANCH  23  28
ATOM     28  O   UNL     1      88.534  45.423  42.066  0.00  0.00    -0.503 OA
ATOM     29  H   UNL     1      89.254  44.969  42.459  0.00  0.00    +0.000 HD
ENDBRANCH  23  28
ENDBRANCH   1  21
BRANCH  17  30
ATOM     30  O   UNL     1      87.962  49.643  45.579  0.00  0.00    -0.501 OA
ATOM     31  H   UNL     1      88.082  50.006  46.434  0.00  0.00    +0.000 HD
ENDBRANCH  17  30
BRANCH  13  32
ATOM     32  O   UNL     1      86.189  54.549  44.624  0.00  0.00    -0.505 OA
ATOM     33  H   UNL     1      85.728  54.631  45.435  0.00  0.00    +0.000 HD
ENDBRANCH  13  32
TORSDOF 6
ENDMDL
MODEL 6
REMARK VINA RESULT:    -7.533      3.269      5.557
REMARK INTER + INTRA:          -9.747
REMARK INTER:                  -9.530
REMARK INTRA:                  -0.218
REMARK UNBOUND:                -0.453
REMARK  Name = 
REMARK  9 active torsions:
REMARK  status: ('A' for Active; 'I' for Inactive)
REMARK    1  A    between atoms: C_1  and  O_2
REMARK    2  A    between atoms: O_2  and  C_3
REMARK    3  A    between atoms: C_4  and  O_5
REMARK    4  A    between atoms: C_7  and  C_11
REMARK    5  A    between atoms: C_9  and  O_10
REMARK    6  A    between atoms: C_17  and  C_18
REMARK    7  A    between atoms: C_17  and  C_19
REMARK    8  A    between atoms: C_23  and  O_29
REMARK    9  A    between atoms: C_27  and  O_28
REMARK                            x       y       z     vdW  Elec       q    Type
REMARK                         _______ _______ _______ _____ _____    ______ ____
ROOT
ATOM      1  C   UNL     1      83.089  48.613  44.006  0.00  0.00    +0.181 A 
ATOM      2  O   UNL     1      83.403  47.328  43.894  0.00  0.00    -0.451 OA
ATOM      3  C   UNL     1      84.634  46.894  43.650  0.00  0.00    +0.147 A 
ATOM      4  C   UNL     1      84.854  45.518  43.582  0.00  0.00    +0.024 A 
ATOM      5  C   UNL     1      86.132  45.020  43.354  0.00  0.00    +0.136 A 
ATOM      6  O   UNL     1      86.343  43.638  43.313  0.00  0.00    -0.481 OA
ATOM      7  C   UNL     1      87.646  43.042  43.374  0.00  0.00    +0.124 C 
ATOM      8  C   UNL     1      87.953  42.682  44.833  0.00  0.00    -0.021 C 
ATOM      9  C   UNL     1      87.635  41.772  42.515  0.00  0.00    -0.021 C 
ATOM     10  C   UNL     1      88.716  43.988  42.864  0.00  0.00    -0.041 C 
ATOM     11  C   UNL     1      88.519  45.308  42.810  0.00  0.00    -0.048 C 
ATOM     12  C   UNL     1      87.202  45.894  43.135  0.00  0.00    +0.059 A 
ATOM     13  C   UNL     1      86.998  47.289  43.149  0.00  0.00    +0.142 A 
ATOM     14  C   UNL     1      85.705  47.805  43.470  0.00  0.00    +0.110 A 
ATOM     15  C   UNL     1      85.418  49.178  43.662  0.00  0.00    +0.238 A 
ATOM     16  O   UNL     1      86.328  50.048  43.651  0.00  0.00    -0.283 OA
ATOM     17  C   UNL     1      84.099  49.586  43.922  0.00  0.00    +0.208 A 
ENDROOT
BRANCH   1  21
ATOM     18  C   UNL     1      78.957  49.578  44.756  0.00  0.00    +0.203 A 
ATOM     19  C   UNL     1      79.489  49.706  43.448  0.00  0.00    +0.163 A 
ATOM     20  C   UNL     1      80.835  49.394  43.209  0.00  0.00    -0.005 A 
ATOM     21  C   UNL     1      81.673  48.968  44.251  0.00  0.00    +0.028 A 
ATOM     22  C   UNL     1      81.136  48.819  45.536  0.00  0.00    -0.005 A 
ATOM     23  C   UNL     1      79.797  49.127  45.793  0.00  0.00    +0.163 A 
BRANCH  18  25
ATOM     24  C   UNL     1      76.915  51.066  44.754  0.00  0.00    +0.079 C 
ATOM     25  O   UNL     1      77.621  49.876  45.084  0.00  0.00    -0.489 OA
ENDBRANCH  18  25
BRANCH  19  26
ATOM     26  O   UNL     1      78.697  50.131  42.383  0.00  0.00    -0.503 OA
ATOM     27  H   UNL     1      78.180  50.908  42.466  0.00  0.00    +0.000 HD
ENDBRANCH  19  26
BRANCH  23  28
ATOM     28  O   UNL     1      79.317  48.977  47.094  0.00  0.00    -0.503 OA
ATOM     29  H   UNL     1      78.411  49.131  47.280  0.00  0.00    +0.000 HD
ENDBRANCH  23  28
ENDBRANCH   1  21
BRANCH  17  30
ATOM     30  O   UNL     1      83.796  50.935  44.133  0.00  0.00    -0.501 OA
ATOM     31  H   UNL     1      83.976  51.331  44.963  0.00  0.00    +0.000 HD
ENDBRANCH  17  30
BRANCH  13  32
ATOM     32  O   UNL     1      88.083  48.106  42.812  0.00  0.00    -0.505 OA
ATOM     33  H   UNL     1      88.022  48.690  42.082  0.00  0.00    +0.000 HD
ENDBRANCH  13  32
TORSDOF 6
ENDMDL
MODEL 7
REMARK VINA RESULT:    -7.470      3.206      6.323
REMARK INTER + INTRA:          -9.670
REMARK INTER:                 -10.181
REMARK INTRA:                   0.511
REMARK UNBOUND:                -0.453
REMARK  Name = 
REMARK  9 active torsions:
REMARK  status: ('A' for Active; 'I' for Inactive)
REMARK    1  A    between atoms: C_1  and  O_2
REMARK    2  A    between atoms: O_2  and  C_3
REMARK    3  A    between atoms: C_4  and  O_5
REMARK    4  A    between atoms: C_7  and  C_11
REMARK    5  A    between atoms: C_9  and  O_10
REMARK    6  A    between atoms: C_17  and  C_18
REMARK    7  A    between atoms: C_17  and  C_19
REMARK    8  A    between atoms: C_23  and  O_29
REMARK    9  A    between atoms: C_27  and  O_28
REMARK                            x       y       z     vdW  Elec       q    Type
REMARK                         _______ _______ _______ _____ _____    ______ ____
ROOT
ATOM      1  C   UNL     1      82.958  50.331  43.391  0.00  0.00    +0.181 A 
ATOM      2  O   UNL     1      83.951  49.456  43.494  0.00  0.00    -0.451 OA
ATOM      3  C   UNL     1      85.190  49.704  43.087  0.00  0.00    +0.147 A 
ATOM      4  C   UNL     1      86.162  48.720  43.273  0.00  0.00    +0.024 A 
ATOM      5  C   UNL     1      87.477  48.948  42.884  0.00  0.00    +0.136 A 
ATOM      6  O   UNL     1      88.447  47.962  43.098  0.00  0.00    -0.481 OA
ATOM      7  C   UNL     1      89.855  48.214  43.001  0.00  0.00    +0.124 C 
ATOM      8  C   UNL     1      90.394  48.539  44.400  0.00  0.00    -0.021 C 
ATOM      9  C   UNL     1      90.533  46.949  42.461  0.00  0.00    -0.021 C 
ATOM     10  C   UNL     1      90.150  49.379  42.076  0.00  0.00    -0.041 C 
ATOM     11  C   UNL     1      89.222  50.294  41.781  0.00  0.00    -0.048 C 
ATOM     12  C   UNL     1      87.830  50.145  42.251  0.00  0.00    +0.059 A 
ATOM     13  C   UNL     1      86.857  51.135  42.007  0.00  0.00    +0.142 A 
ATOM     14  C   UNL     1      85.525  50.942  42.483  0.00  0.00    +0.110 A 
ATOM     15  C   UNL     1      84.506  51.925  42.430  0.00  0.00    +0.238 A 
ATOM     16  O   UNL     1      84.744  53.096  42.032  0.00  0.00    -0.283 OA
ATOM     17  C   UNL     1      83.212  51.614  42.878  0.00  0.00    +0.208 A 
ENDROOT
BRANCH   1  21
ATOM     18  C   UNL     1      79.062  49.066  44.727  0.00  0.00    +0.203 A 
ATOM     19  C   UNL     1      79.188  50.186  43.867  0.00  0.00    +0.163 A 
ATOM     20  C   UNL     1      80.457  50.596  43.437  0.00  0.00    -0.005 A 
ATOM     21  C   UNL     1      81.614  49.921  43.857  0.00  0.00    +0.028 A 
ATOM     22  C   UNL     1      81.483  48.801  44.686  0.00  0.00    -0.005 A 
ATOM     23  C   UNL     1      80.225  48.379  45.126  0.00  0.00    +0.163 A 
BRANCH  18  25
ATOM     24  C   UNL     1      76.766  49.380  45.734  0.00  0.00    +0.079 C 
ATOM     25  O   UNL     1      77.828  48.591  45.210  0.00  0.00    -0.489 OA
ENDBRANCH  18  25
BRANCH  19  26
ATOM     26  O   UNL     1      78.068  50.891  43.429  0.00  0.00    -0.503 OA
ATOM     27  H   UNL     1      77.652  50.654  42.624  0.00  0.00    +0.000 HD
ENDBRANCH  19  26
BRANCH  23  28
ATOM     28  O   UNL     1      80.152  47.266  45.963  0.00  0.00    -0.503 OA
ATOM     29  H   UNL     1      80.915  46.975  46.424  0.00  0.00    +0.000 HD
ENDBRANCH  23  28
ENDBRANCH   1  21
BRANCH  17  30
ATOM     30  O   UNL     1      82.197  52.576  42.853  0.00  0.00    -0.501 OA
ATOM     31  H   UNL     1      81.397  52.424  43.316  0.00  0.00    +0.000 HD
ENDBRANCH  17  30
BRANCH  13  32
ATOM     32  O   UNL     1      87.249  52.259  41.271  0.00  0.00    -0.505 OA
ATOM     33  H   UNL     1      86.854  52.437  40.441  0.00  0.00    +0.000 HD
ENDBRANCH  13  32
TORSDOF 6
ENDMDL
MODEL 8
REMARK VINA RESULT:    -7.439      3.199      7.106
REMARK INTER + INTRA:          -9.631
REMARK INTER:                 -10.206
REMARK INTRA:                   0.575
REMARK UNBOUND:                -0.453
REMARK  Name = 
REMARK  9 active torsions:
REMARK  status: ('A' for Active; 'I' for Inactive)
REMARK    1  A    between atoms: C_1  and  O_2
REMARK    2  A    between atoms: O_2  and  C_3
REMARK    3  A    between atoms: C_4  and  O_5
REMARK    4  A    between atoms: C_7  and  C_11
REMARK    5  A    between atoms: C_9  and  O_10
REMARK    6  A    between atoms: C_17  and  C_18
REMARK    7  A    between atoms: C_17  and  C_19
REMARK    8  A    between atoms: C_23  and  O_29
REMARK    9  A    between atoms: C_27  and  O_28
REMARK                            x       y       z     vdW  Elec       q    Type
REMARK                         _______ _______ _______ _____ _____    ______ ____
ROOT
ATOM      1  C   UNL     1      83.347  48.242  43.840  0.00  0.00    +0.181 A 
ATOM      2  O   UNL     1      83.956  49.346  43.425  0.00  0.00    -0.451 OA
ATOM      3  C   UNL     1      85.251  49.403  43.138  0.00  0.00    +0.147 A 
ATOM      4  C   UNL     1      85.779  50.611  42.681  0.00  0.00    +0.024 A 
ATOM      5  C   UNL     1      87.125  50.708  42.344  0.00  0.00    +0.136 A 
ATOM      6  O   UNL     1      87.637  51.918  41.864  0.00  0.00    -0.481 OA
ATOM      7  C   UNL     1      88.917  52.030  41.228  0.00  0.00    +0.124 C 
ATOM      8  C   UNL     1      88.723  51.924  39.710  0.00  0.00    -0.021 C 
ATOM      9  C   UNL     1      89.512  53.398  41.584  0.00  0.00    -0.021 C 
ATOM     10  C   UNL     1      89.862  50.935  41.683  0.00  0.00    -0.041 C 
ATOM     11  C   UNL     1      89.413  49.799  42.224  0.00  0.00    -0.048 C 
ATOM     12  C   UNL     1      87.976  49.611  42.514  0.00  0.00    +0.059 A 
ATOM     13  C   UNL     1      87.478  48.394  43.021  0.00  0.00    +0.142 A 
ATOM     14  C   UNL     1      86.081  48.263  43.284  0.00  0.00    +0.110 A 
ATOM     15  C   UNL     1      85.446  47.051  43.649  0.00  0.00    +0.238 A 
ATOM     16  O   UNL     1      86.077  45.962  43.677  0.00  0.00    -0.283 OA
ATOM     17  C   UNL     1      84.071  47.042  43.939  0.00  0.00    +0.208 A 
ENDROOT
BRANCH   1  21
ATOM     18  C   UNL     1      79.133  48.391  44.727  0.00  0.00    +0.203 A 
ATOM     19  C   UNL     1      79.752  49.466  44.042  0.00  0.00    +0.163 A 
ATOM     20  C   UNL     1      81.124  49.415  43.758  0.00  0.00    -0.005 A 
ATOM     21  C   UNL     1      81.902  48.317  44.155  0.00  0.00    +0.028 A 
ATOM     22  C   UNL     1      81.281  47.246  44.809  0.00  0.00    -0.005 A 
ATOM     23  C   UNL     1      79.915  47.280  45.102  0.00  0.00    +0.163 A 
BRANCH  18  25
ATOM     24  C   UNL     1      77.041  49.375  45.747  0.00  0.00    +0.079 C 
ATOM     25  O   UNL     1      77.765  48.363  45.057  0.00  0.00    -0.489 OA
ENDBRANCH  18  25
BRANCH  19  26
ATOM     26  O   UNL     1      79.021  50.580  43.634  0.00  0.00    -0.503 OA
ATOM     27  H   UNL     1      78.229  50.809  44.079  0.00  0.00    +0.000 HD
ENDBRANCH  19  26
BRANCH  23  28
ATOM     28  O   UNL     1      79.350  46.194  45.769  0.00  0.00    -0.503 OA
ATOM     29  H   UNL     1      79.752  45.349  45.715  0.00  0.00    +0.000 HD
ENDBRANCH  23  28
ENDBRANCH   1  21
BRANCH  17  30
ATOM     30  O   UNL     1      83.421  45.854  44.283  0.00  0.00    -0.501 OA
ATOM     31  H   UNL     1      82.749  45.510  43.728  0.00  0.00    +0.000 HD
ENDBRANCH  17  30
BRANCH  13  32
ATOM     32  O   UNL     1      88.401  47.372  43.273  0.00  0.00    -0.505 OA
ATOM     33  H   UNL     1      89.295  47.582  43.457  0.00  0.00    +0.000 HD
ENDBRANCH  13  32
TORSDOF 6
ENDMDL
MODEL 9
REMARK VINA RESULT:    -7.270      2.413      2.923
REMARK INTER + INTRA:          -9.423
REMARK INTER:                  -8.971
REMARK INTRA:                  -0.453
REMARK UNBOUND:                -0.453
REMARK  Name = 
REMARK  9 active torsions:
REMARK  status: ('A' for Active; 'I' for Inactive)
REMARK    1  A    between atoms: C_1  and  O_2
REMARK    2  A    between atoms: O_2  and  C_3
REMARK    3  A    between atoms: C_4  and  O_5
REMARK    4  A    between atoms: C_7  and  C_11
REMARK    5  A    between atoms: C_9  and  O_10
REMARK    6  A    between atoms: C_17  and  C_18
REMARK    7  A    between atoms: C_17  and  C_19
REMARK    8  A    between atoms: C_23  and  O_29
REMARK    9  A    between atoms: C_27  and  O_28
REMARK                            x       y       z     vdW  Elec       q    Type
REMARK                         _______ _______ _______ _____ _____    ______ ____
ROOT
ATOM      1  C   UNL     1      85.011  52.217  44.221  0.00  0.00    +0.181 A 
ATOM      2  O   UNL     1      86.254  51.756  44.149  0.00  0.00    -0.451 OA
ATOM      3  C   UNL     1      86.552  50.493  43.869  0.00  0.00    +0.147 A 
ATOM      4  C   UNL     1      87.895  50.127  43.790  0.00  0.00    +0.024 A 
ATOM      5  C   UNL     1      88.251  48.820  43.474  0.00  0.00    +0.136 A 
ATOM      6  O   UNL     1      89.602  48.472  43.374  0.00  0.00    -0.481 OA
ATOM      7  C   UNL     1      90.054  47.248  42.779  0.00  0.00    +0.124 C 
ATOM      8  C   UNL     1      90.385  47.512  41.304  0.00  0.00    -0.021 C 
ATOM      9  C   UNL     1      91.314  46.788  43.522  0.00  0.00    -0.021 C 
ATOM     10  C   UNL     1      88.996  46.165  42.861  0.00  0.00    -0.041 C 
ATOM     11  C   UNL     1      87.705  46.456  43.041  0.00  0.00    -0.048 C 
ATOM     12  C   UNL     1      87.265  47.845  43.287  0.00  0.00    +0.059 A 
ATOM     13  C   UNL     1      85.902  48.178  43.409  0.00  0.00    +0.142 A 
ATOM     14  C   UNL     1      85.529  49.536  43.647  0.00  0.00    +0.110 A 
ATOM     15  C   UNL     1      84.196  50.013  43.639  0.00  0.00    +0.238 A 
ATOM     16  O   UNL     1      83.233  49.266  43.323  0.00  0.00    -0.283 OA
ATOM     17  C   UNL     1      83.934  51.361  43.938  0.00  0.00    +0.208 A 
ENDROOT
BRANCH   1  21
ATOM     18  C   UNL     1      84.493  56.383  45.193  0.00  0.00    +0.203 A 
ATOM     19  C   UNL     1      84.546  55.415  46.227  0.00  0.00    +0.163 A 
ATOM     20  C   UNL     1      84.711  54.059  45.907  0.00  0.00    -0.005 A 
ATOM     21  C   UNL     1      84.813  53.642  44.571  0.00  0.00    +0.028 A 
ATOM     22  C   UNL     1      84.785  54.605  43.554  0.00  0.00    -0.005 A 
ATOM     23  C   UNL     1      84.619  55.959  43.856  0.00  0.00    +0.163 A 
BRANCH  18  25
ATOM     24  C   UNL     1      85.351  58.701  45.714  0.00  0.00    +0.079 C 
ATOM     25  O   UNL     1      84.323  57.760  45.426  0.00  0.00    -0.489 OA
ENDBRANCH  18  25
BRANCH  19  26
ATOM     26  O   UNL     1      84.443  55.781  47.568  0.00  0.00    -0.503 OA
ATOM     27  H   UNL     1      85.112  56.305  47.962  0.00  0.00    +0.000 HD
ENDBRANCH  19  26
BRANCH  23  28
ATOM     28  O   UNL     1      84.583  56.875  42.804  0.00  0.00    -0.503 OA
ATOM     29  H   UNL     1      85.380  57.155  42.398  0.00  0.00    +0.000 HD
ENDBRANCH  23  28
ENDBRANCH   1  21
BRANCH  17  30
ATOM     30  O   UNL     1      82.627  51.856  43.916  0.00  0.00    -0.501 OA
ATOM     31  H   UNL     1      82.262  52.248  44.686  0.00  0.00    +0.000 HD
ENDBRANCH  17  30
BRANCH  13  32
ATOM     32  O   UNL     1      84.971  47.136  43.322  0.00  0.00    -0.505 OA
ATOM     33  H   UNL     1      84.600  46.907  42.493  0.00  0.00    +0.000 HD
ENDBRANCH  13  32
TORSDOF 6
ENDMDL
