MODEL 1
REMARK VINA RESULT:    -8.251      0.000      0.000
REMARK INTER + INTRA:         -11.722
REMARK INTER:                 -10.897
REMARK INTRA:                  -0.825
REMARK UNBOUND:                -0.818
REMARK  Name = 
REMARK  10 active torsions:
REMARK  status: ('A' for Active; 'I' for Inactive)
REMARK    1  A    between atoms: C_1  and  O_2
REMARK    2  A    between atoms: O_2  and  C_3
REMARK    3  A    between atoms: C_6  and  C_10
REMARK    4  A    between atoms: C_8  and  O_9
REMARK    5  A    between atoms: C_10  and  C_11
REMARK    6  A    between atoms: N_12  and  C_13
REMARK    7  A    between atoms: C_19  and  O_20
REMARK    8  A    between atoms: O_20  and  C_21
REMARK    9  A    between atoms: C_22  and  O_24
REMARK   10  A    between atoms: O_24  and  C_25
REMARK                            x       y       z     vdW  Elec       q    Type
REMARK                         _______ _______ _______ _____ _____    ______ ____
ROOT
ATOM      1  C   UNL     1      87.686  48.536  42.227  0.00  0.00    +0.040 C 
ATOM      2  N   UNL     1      88.721  47.461  42.355  0.00  0.00    -0.298 N 
ATOM      3  C   UNL     1      88.271  46.198  41.742  0.00  0.00    -0.012 C 
ATOM      4  C   UNL     1      90.070  47.796  41.852  0.00  0.00    +0.003 C 
ATOM      5  C   UNL     1      90.522  49.154  42.377  0.00  0.00    -0.014 C 
ATOM      6  C   UNL     1      89.583  50.193  41.857  0.00  0.00    -0.038 A 
ATOM      7  C   UNL     1      88.224  49.873  41.726  0.00  0.00    -0.023 A 
ATOM      8  C   UNL     1      87.340  50.830  41.200  0.00  0.00    -0.011 A 
ATOM      9  C   UNL     1      87.803  52.102  40.814  0.00  0.00    +0.162 A 
ATOM     10  C   UNL     1      89.161  52.421  40.964  0.00  0.00    +0.162 A 
ATOM     11  C   UNL     1      90.048  51.462  41.489  0.00  0.00    -0.013 A 
ATOM     12  H   UNL     1      88.822  47.355  43.364  0.00  0.00    +0.000 HD
ENDROOT
BRANCH   9  13
ATOM     13  O   UNL     1      86.945  53.078  40.285  0.00  0.00    -0.491 OA
ATOM     14  C   UNL     1      85.581  53.243  40.662  0.00  0.00    +0.079 C 
ENDBRANCH   9  13
BRANCH  10  15
ATOM     15  O   UNL     1      89.592  53.701  40.577  0.00  0.00    -0.491 OA
ATOM     16  C   UNL     1      90.747  53.959  39.786  0.00  0.00    +0.079 C 
ENDBRANCH  10  15
BRANCH   1  17
ATOM     17  C   UNL     1      87.035  48.772  43.607  0.00  0.00    -0.008 C 
BRANCH  17  21
ATOM     18  C   UNL     1      82.903  47.500  43.617  0.00  0.00    +0.161 A 
ATOM     19  C   UNL     1      83.939  46.552  43.523  0.00  0.00    -0.016 A 
ATOM     20  C   UNL     1      85.275  46.963  43.531  0.00  0.00    -0.055 A 
ATOM     21  C   UNL     1      85.597  48.323  43.640  0.00  0.00    -0.042 A 
ATOM     22  C   UNL     1      84.565  49.269  43.729  0.00  0.00    -0.013 A 
ATOM     23  C   UNL     1      83.224  48.862  43.720  0.00  0.00    +0.159 A 
BRANCH  18  25
ATOM     24  C   UNL     1      80.927  46.337  44.617  0.00  0.00    +0.079 C 
ATOM     25  O   UNL     1      81.548  47.131  43.613  0.00  0.00    -0.491 OA
ENDBRANCH  18  25
BRANCH  23  26
ATOM     26  O   UNL     1      82.203  49.805  43.810  0.00  0.00    -0.503 OA
ATOM     27  H   UNL     1      82.374  50.646  44.186  0.00  0.00    +0.000 HD
ENDBRANCH  23  26
ENDBRANCH  17  21
ENDBRANCH   1  17
TORSDOF 6
ENDMDL
MODEL 2
REMARK VINA RESULT:    -7.565      3.275      5.570
REMARK INTER + INTRA:         -10.815
REMARK INTER:                 -10.060
REMARK INTRA:                  -0.756
REMARK UNBOUND:                -0.818
REMARK  Name = 
REMARK  10 active torsions:
REMARK  status: ('A' for Active; 'I' for Inactive)
REMARK    1  A    between atoms: C_1  and  O_2
REMARK    2  A    between atoms: O_2  and  C_3
REMARK    3  A    between atoms: C_6  and  C_10
REMARK    4  A    between atoms: C_8  and  O_9
REMARK    5  A    between atoms: C_10  and  C_11
REMARK    6  A    between atoms: N_12  and  C_13
REMARK    7  A    between atoms: C_19  and  O_20
REMARK    8  A    between atoms: O_20  and  C_21
REMARK    9  A    between atoms: C_22  and  O_24
REMARK   10  A    between atoms: O_24  and  C_25
REMARK                            x       y       z     vdW  Elec       q    Type
REMARK                         _______ _______ _______ _____ _____    ______ ____
ROOT
ATOM      1  C   UNL     1      82.263  52.459  41.976  0.00  0.00    +0.040 C 
ATOM      2  N   UNL     1      81.941  53.540  40.991  0.00  0.00    -0.298 N 
ATOM      3  C   UNL     1      80.751  54.309  41.400  0.00  0.00    -0.012 C 
ATOM      4  C   UNL     1      83.041  54.472  40.669  0.00  0.00    +0.003 C 
ATOM      5  C   UNL     1      84.322  53.710  40.352  0.00  0.00    -0.014 C 
ATOM      6  C   UNL     1      84.728  52.948  41.571  0.00  0.00    -0.038 A 
ATOM      7  C   UNL     1      83.730  52.398  42.389  0.00  0.00    -0.023 A 
ATOM      8  C   UNL     1      84.101  51.715  43.560  0.00  0.00    -0.011 A 
ATOM      9  C   UNL     1      85.456  51.573  43.911  0.00  0.00    +0.162 A 
ATOM     10  C   UNL     1      86.450  52.111  43.080  0.00  0.00    +0.162 A 
ATOM     11  C   UNL     1      86.080  52.797  41.908  0.00  0.00    -0.013 A 
ATOM     12  H   UNL     1      81.757  53.022  40.132  0.00  0.00    +0.000 HD
ENDROOT
BRANCH   9  13
ATOM     13  O   UNL     1      85.857  50.896  45.075  0.00  0.00    -0.491 OA
ATOM     14  C   UNL     1      86.006  49.484  45.175  0.00  0.00    +0.079 C 
ENDBRANCH   9  13
BRANCH  10  15
ATOM     15  O   UNL     1      87.793  51.946  43.453  0.00  0.00    -0.491 OA
ATOM     16  C   UNL     1      88.664  50.955  42.918  0.00  0.00    +0.079 C 
ENDBRANCH  10  15
BRANCH   1  17
ATOM     17  C   UNL     1      81.884  51.093  41.365  0.00  0.00    -0.008 C 
BRANCH  17  21
ATOM     18  C   UNL     1      80.453  48.257  44.298  0.00  0.00    +0.161 A 
ATOM     19  C   UNL     1      81.700  48.067  43.674  0.00  0.00    -0.016 A 
ATOM     20  C   UNL     1      82.168  48.990  42.735  0.00  0.00    -0.055 A 
ATOM     21  C   UNL     1      81.402  50.118  42.408  0.00  0.00    -0.042 A 
ATOM     22  C   UNL     1      80.156  50.306  43.025  0.00  0.00    -0.013 A 
ATOM     23  C   UNL     1      79.683  49.382  43.967  0.00  0.00    +0.159 A 
BRANCH  18  25
ATOM     24  C   UNL     1      79.936  45.940  45.087  0.00  0.00    +0.079 C 
ATOM     25  O   UNL     1      79.946  47.355  45.247  0.00  0.00    -0.491 OA
ENDBRANCH  18  25
BRANCH  23  26
ATOM     26  O   UNL     1      78.446  49.573  44.578  0.00  0.00    -0.503 OA
ATOM     27  H   UNL     1      77.675  49.673  44.055  0.00  0.00    +0.000 HD
ENDBRANCH  23  26
ENDBRANCH  17  21
ENDBRANCH   1  17
TORSDOF 6
ENDMDL
MODEL 3
REMARK VINA RESULT:    -7.496      3.402      6.207
REMARK INTER + INTRA:         -10.724
REMARK INTER:                  -9.922
REMARK INTRA:                  -0.803
REMARK UNBOUND:                -0.818
REMARK  Name = 
REMARK  10 active torsions:
REMARK  status: ('A' for Active; 'I' for Inactive)
REMARK    1  A    between atoms: C_1  and  O_2
REMARK    2  A    between atoms: O_2  and  C_3
REMARK    3  A    between atoms: C_6  and  C_10
REMARK    4  A    between atoms: C_8  and  O_9
REMARK    5  A    between atoms: C_10  and  C_11
REMARK    6  A    between atoms: N_12  and  C_13
REMARK    7  A    between atoms: C_19  and  O_20
REMARK    8  A    between atoms: O_20  and  C_21
REMARK    9  A    between atoms: C_22  and  O_24
REMARK   10  A    between atoms: O_24  and  C_25
REMARK                            x       y       z     vdW  Elec       q    Type
REMARK                         _______ _______ _______ _____ _____    ______ ____
ROOT
ATOM      1  C   UNL     1      82.442  47.582  43.704  0.00  0.00    +0.040 C 
ATOM      2  N   UNL     1      80.980  47.324  43.904  0.00  0.00    -0.298 N 
ATOM      3  C   UNL     1      80.738  46.452  45.068  0.00  0.00    -0.012 C 
ATOM      4  C   UNL     1      80.119  48.521  44.001  0.00  0.00    +0.003 C 
ATOM      5  C   UNL     1      80.424  49.501  42.874  0.00  0.00    -0.014 C 
ATOM      6  C   UNL     1      81.839  49.959  43.022  0.00  0.00    -0.038 A 
ATOM      7  C   UNL     1      82.800  49.048  43.483  0.00  0.00    -0.023 A 
ATOM      8  C   UNL     1      84.124  49.481  43.665  0.00  0.00    -0.011 A 
ATOM      9  C   UNL     1      84.493  50.810  43.381  0.00  0.00    +0.162 A 
ATOM     10  C   UNL     1      83.529  51.711  42.905  0.00  0.00    +0.162 A 
ATOM     11  C   UNL     1      82.201  51.279  42.725  0.00  0.00    -0.013 A 
ATOM     12  H   UNL     1      80.707  46.857  43.040  0.00  0.00    +0.000 HD
ENDROOT
BRANCH   9  13
ATOM     13  O   UNL     1      85.807  51.271  43.553  0.00  0.00    -0.491 OA
ATOM     14  C   UNL     1      86.933  50.789  42.826  0.00  0.00    +0.079 C 
ENDBRANCH   9  13
BRANCH  10  15
ATOM     15  O   UNL     1      83.928  53.027  42.624  0.00  0.00    -0.491 OA
ATOM     16  C   UNL     1      84.099  53.558  41.314  0.00  0.00    +0.079 C 
ENDBRANCH  10  15
BRANCH   1  17
ATOM     17  C   UNL     1      82.929  46.784  42.475  0.00  0.00    -0.008 C 
BRANCH  17  21
ATOM     18  C   UNL     1      86.687  44.809  43.294  0.00  0.00    +0.161 A 
ATOM     19  C   UNL     1      85.482  44.287  43.803  0.00  0.00    -0.016 A 
ATOM     20  C   UNL     1      84.267  44.918  43.528  0.00  0.00    -0.055 A 
ATOM     21  C   UNL     1      84.233  46.077  42.738  0.00  0.00    -0.042 A 
ATOM     22  C   UNL     1      85.433  46.601  42.235  0.00  0.00    -0.013 A 
ATOM     23  C   UNL     1      86.654  45.971  42.509  0.00  0.00    +0.159 A 
BRANCH  18  25
ATOM     24  C   UNL     1      88.121  43.086  44.403  0.00  0.00    +0.079 C 
ATOM     25  O   UNL     1      87.929  44.205  43.546  0.00  0.00    -0.491 OA
ENDBRANCH  18  25
BRANCH  23  26
ATOM     26  O   UNL     1      87.843  46.494  42.006  0.00  0.00    -0.503 OA
ATOM     27  H   UNL     1      87.829  47.274  41.485  0.00  0.00    +0.000 HD
ENDBRANCH  23  26
ENDBRANCH  17  21
ENDBRANCH   1  17
TORSDOF 6
ENDMDL
MODEL 4
REMARK VINA RESULT:    -7.461      2.740      4.271
REMARK INTER + INTRA:         -10.678
REMARK INTER:                  -9.867
REMARK INTRA:                  -0.812
REMARK UNBOUND:                -0.818
REMARK  Name = 
REMARK  10 active torsions:
REMARK  status: ('A' for Active; 'I' for Inactive)
REMARK    1  A    between atoms: C_1  and  O_2
REMARK    2  A    between atoms: O_2  and  C_3
REMARK    3  A    between atoms: C_6  and  C_10
REMARK    4  A    between atoms: C_8  and  O_9
REMARK    5  A    between atoms: C_10  and  C_11
REMARK    6  A    between atoms: N_12  and  C_13
REMARK    7  A    between atoms: C_19  and  O_20
REMARK    8  A    between atoms: O_20  and  C_21
REMARK    9  A    between atoms: C_22  and  O_24
REMARK   10  A    between atoms: O_24  and  C_25
REMARK                            x       y       z     vdW  Elec       q    Type
REMARK                         _______ _______ _______ _____ _____    ______ ____
ROOT
ATOM      1  C   UNL     1      85.044  52.118  43.812  0.00  0.00    +0.040 C 
ATOM      2  N   UNL     1      84.899  53.280  44.746  0.00  0.00    -0.298 N 
ATOM      3  C   UNL     1      84.496  52.845  46.095  0.00  0.00    -0.012 C 
ATOM      4  C   UNL     1      86.068  54.178  44.849  0.00  0.00    +0.003 C 
ATOM      5  C   UNL     1      86.583  54.559  43.466  0.00  0.00    -0.014 C 
ATOM      6  C   UNL     1      87.040  53.313  42.777  0.00  0.00    -0.038 A 
ATOM      7  C   UNL     1      86.333  52.121  42.996  0.00  0.00    -0.023 A 
ATOM      8  C   UNL     1      86.779  50.937  42.385  0.00  0.00    -0.011 A 
ATOM      9  C   UNL     1      87.916  50.939  41.556  0.00  0.00    +0.162 A 
ATOM     10  C   UNL     1      88.609  52.137  41.330  0.00  0.00    +0.162 A 
ATOM     11  C   UNL     1      88.164  53.325  41.942  0.00  0.00    -0.013 A 
ATOM     12  H   UNL     1      84.162  53.835  44.311  0.00  0.00    +0.000 HD
ENDROOT
BRANCH   9  13
ATOM     13  O   UNL     1      88.386  49.772  40.933  0.00  0.00    -0.491 OA
ATOM     14  C   UNL     1      88.261  48.461  41.477  0.00  0.00    +0.079 C 
ENDBRANCH   9  13
BRANCH  10  15
ATOM     15  O   UNL     1      89.735  52.109  40.492  0.00  0.00    -0.491 OA
ATOM     16  C   UNL     1      90.418  53.265  40.016  0.00  0.00    +0.079 C 
ENDBRANCH  10  15
BRANCH   1  17
ATOM     17  C   UNL     1      83.857  52.114  42.826  0.00  0.00    -0.008 C 
BRANCH  17  21
ATOM     18  C   UNL     1      81.369  48.619  43.360  0.00  0.00    +0.161 A 
ATOM     19  C   UNL     1      80.810  49.827  42.904  0.00  0.00    -0.016 A 
ATOM     20  C   UNL     1      81.616  50.953  42.719  0.00  0.00    -0.055 A 
ATOM     21  C   UNL     1      82.992  50.890  42.983  0.00  0.00    -0.042 A 
ATOM     22  C   UNL     1      83.550  49.688  43.443  0.00  0.00    -0.013 A 
ATOM     23  C   UNL     1      82.744  48.557  43.630  0.00  0.00    +0.159 A 
BRANCH  18  25
ATOM     24  C   UNL     1      79.253  47.467  44.032  0.00  0.00    +0.079 C 
ATOM     25  O   UNL     1      80.595  47.464  43.559  0.00  0.00    -0.491 OA
ENDBRANCH  18  25
BRANCH  23  26
ATOM     26  O   UNL     1      83.303  47.364  44.086  0.00  0.00    -0.503 OA
ATOM     27  H   UNL     1      83.680  47.321  44.943  0.00  0.00    +0.000 HD
ENDBRANCH  23  26
ENDBRANCH  17  21
ENDBRANCH   1  17
TORSDOF 6
ENDMDL
MODEL 5
REMARK VINA RESULT:    -7.444      3.034      3.895
REMARK INTER + INTRA:         -10.655
REMARK INTER:                 -10.659
REMARK INTRA:                   0.004
REMARK UNBOUND:                -0.818
REMARK  Name = 
REMARK  10 active torsions:
REMARK  status: ('A' for Active; 'I' for Inactive)
REMARK    1  A    between atoms: C_1  and  O_2
REMARK    2  A    between atoms: O_2  and  C_3
REMARK    3  A    between atoms: C_6  and  C_10
REMARK    4  A    between atoms: C_8  and  O_9
REMARK    5  A    between atoms: C_10  and  C_11
REMARK    6  A    between atoms: N_12  and  C_13
REMARK    7  A    between atoms: C_19  and  O_20
REMARK    8  A    between atoms: O_20  and  C_21
REMARK    9  A    between atoms: C_22  and  O_24
REMARK   10  A    between atoms: O_24  and  C_25
REMARK                            x       y       z     vdW  Elec       q    Type
REMARK                         _______ _______ _______ _____ _____    ______ ____
ROOT
ATOM      1  C   UNL     1      87.722  49.442  43.430  0.00  0.00    +0.040 C 
ATOM      2  N   UNL     1      88.009  48.100  42.831  0.00  0.00    -0.298 N 
ATOM      3  C   UNL     1      86.806  47.247  42.810  0.00  0.00    -0.012 C 
ATOM      4  C   UNL     1      88.628  48.108  41.489  0.00  0.00    +0.003 C 
ATOM      5  C   UNL     1      89.809  49.069  41.442  0.00  0.00    -0.014 C 
ATOM      6  C   UNL     1      89.300  50.450  41.704  0.00  0.00    -0.038 A 
ATOM      7  C   UNL     1      88.249  50.621  42.617  0.00  0.00    -0.023 A 
ATOM      8  C   UNL     1      87.737  51.910  42.840  0.00  0.00    -0.011 A 
ATOM      9  C   UNL     1      88.271  53.024  42.164  0.00  0.00    +0.162 A 
ATOM     10  C   UNL     1      89.333  52.846  41.265  0.00  0.00    +0.162 A 
ATOM     11  C   UNL     1      89.846  51.555  41.040  0.00  0.00    -0.013 A 
ATOM     12  H   UNL     1      88.714  47.713  43.458  0.00  0.00    +0.000 HD
ENDROOT
BRANCH   9  13
ATOM     13  O   UNL     1      87.780  54.323  42.366  0.00  0.00    -0.491 OA
ATOM     14  C   UNL     1      86.759  54.664  43.298  0.00  0.00    +0.079 C 
ENDBRANCH   9  13
BRANCH  10  15
ATOM     15  O   UNL     1      89.850  53.977  40.612  0.00  0.00    -0.491 OA
ATOM     16  C   UNL     1      90.854  53.939  39.603  0.00  0.00    +0.079 C 
ENDBRANCH  10  15
BRANCH   1  17
ATOM     17  C   UNL     1      88.356  49.512  44.835  0.00  0.00    -0.008 C 
BRANCH  17  21
ATOM     18  C   UNL     1      85.891  51.739  47.602  0.00  0.00    +0.161 A 
ATOM     19  C   UNL     1      87.010  51.021  48.064  0.00  0.00    -0.016 A 
ATOM     20  C   UNL     1      87.814  50.311  47.169  0.00  0.00    -0.055 A 
ATOM     21  C   UNL     1      87.517  50.311  45.798  0.00  0.00    -0.042 A 
ATOM     22  C   UNL     1      86.399  51.021  45.336  0.00  0.00    -0.013 A 
ATOM     23  C   UNL     1      85.590  51.734  46.232  0.00  0.00    +0.159 A 
BRANCH  18  25
ATOM     24  C   UNL     1      85.241  53.838  48.798  0.00  0.00    +0.079 C 
ATOM     25  O   UNL     1      85.058  52.465  48.468  0.00  0.00    -0.491 OA
ENDBRANCH  18  25
BRANCH  23  26
ATOM     26  O   UNL     1      84.482  52.439  45.769  0.00  0.00    -0.503 OA
ATOM     27  H   UNL     1      83.906  52.860  46.377  0.00  0.00    +0.000 HD
ENDBRANCH  23  26
ENDBRANCH  17  21
ENDBRANCH   1  17
TORSDOF 6
ENDMDL
MODEL 6
REMARK VINA RESULT:    -7.388      4.113      6.638
REMARK INTER + INTRA:         -10.582
REMARK INTER:                  -9.731
REMARK INTRA:                  -0.850
REMARK UNBOUND:                -0.818
REMARK  Name = 
REMARK  10 active torsions:
REMARK  status: ('A' for Active; 'I' for Inactive)
REMARK    1  A    between atoms: C_1  and  O_2
REMARK    2  A    between atoms: O_2  and  C_3
REMARK    3  A    between atoms: C_6  and  C_10
REMARK    4  A    between atoms: C_8  and  O_9
REMARK    5  A    between atoms: C_10  and  C_11
REMARK    6  A    between atoms: N_12  and  C_13
REMARK    7  A    between atoms: C_19  and  O_20
REMARK    8  A    between atoms: O_20  and  C_21
REMARK    9  A    between atoms: C_22  and  O_24
REMARK   10  A    between atoms: O_24  and  C_25
REMARK                            x       y       z     vdW  Elec       q    Type
REMARK                         _______ _______ _______ _____ _____    ______ ____
ROOT
ATOM      1  C   UNL     1      86.162  51.952  44.139  0.00  0.00    +0.040 C 
ATOM      2  N   UNL     1      85.030  51.125  44.667  0.00  0.00    -0.298 N 
ATOM      3  C   UNL     1      83.723  51.667  44.252  0.00  0.00    -0.012 C 
ATOM      4  C   UNL     1      85.083  49.681  44.359  0.00  0.00    +0.003 C 
ATOM      5  C   UNL     1      86.462  49.110  44.670  0.00  0.00    -0.014 C 
ATOM      6  C   UNL     1      87.460  49.789  43.789  0.00  0.00    -0.038 A 
ATOM      7  C   UNL     1      87.279  51.146  43.482  0.00  0.00    -0.023 A 
ATOM      8  C   UNL     1      88.189  51.782  42.622  0.00  0.00    -0.011 A 
ATOM      9  C   UNL     1      89.278  51.076  42.076  0.00  0.00    +0.162 A 
ATOM     10  C   UNL     1      89.461  49.724  42.401  0.00  0.00    +0.162 A 
ATOM     11  C   UNL     1      88.549  49.085  43.261  0.00  0.00    -0.013 A 
ATOM     12  H   UNL     1      85.144  51.196  45.678  0.00  0.00    +0.000 HD
ENDROOT
BRANCH   9  13
ATOM     13  O   UNL     1      90.203  51.685  41.214  0.00  0.00    -0.491 OA
ATOM     14  C   UNL     1      89.968  52.897  40.504  0.00  0.00    +0.079 C 
ENDBRANCH   9  13
BRANCH  10  15
ATOM     15  O   UNL     1      90.561  49.049  41.847  0.00  0.00    -0.491 OA
ATOM     16  C   UNL     1      90.520  47.719  41.338  0.00  0.00    +0.079 C 
ENDBRANCH  10  15
BRANCH   1  17
ATOM     17  C   UNL     1      86.779  52.760  45.300  0.00  0.00    -0.008 C 
BRANCH  17  21
ATOM     18  C   UNL     1      85.554  56.905  45.174  0.00  0.00    +0.161 A 
ATOM     19  C   UNL     1      85.946  56.315  46.391  0.00  0.00    -0.016 A 
ATOM     20  C   UNL     1      86.354  54.979  46.429  0.00  0.00    -0.055 A 
ATOM     21  C   UNL     1      86.380  54.213  45.255  0.00  0.00    -0.042 A 
ATOM     22  C   UNL     1      85.985  54.797  44.043  0.00  0.00    -0.013 A 
ATOM     23  C   UNL     1      85.575  56.137  44.001  0.00  0.00    +0.159 A 
BRANCH  18  25
ATOM     24  C   UNL     1      84.445  58.936  46.124  0.00  0.00    +0.079 C 
ATOM     25  O   UNL     1      85.138  58.243  45.092  0.00  0.00    -0.491 OA
ENDBRANCH  18  25
BRANCH  23  26
ATOM     26  O   UNL     1      85.184  56.714  42.794  0.00  0.00    -0.503 OA
ATOM     27  H   UNL     1      85.554  57.531  42.524  0.00  0.00    +0.000 HD
ENDBRANCH  23  26
ENDBRANCH  17  21
ENDBRANCH   1  17
TORSDOF 6
ENDMDL
MODEL 7
REMARK VINA RESULT:    -7.213      4.154      6.114
REMARK INTER + INTRA:         -10.350
REMARK INTER:                  -9.533
REMARK INTRA:                  -0.818
REMARK UNBOUND:                -0.818
REMARK  Name = 
REMARK  10 active torsions:
REMARK  status: ('A' for Active; 'I' for Inactive)
REMARK    1  A    between atoms: C_1  and  O_2
REMARK    2  A    between atoms: O_2  and  C_3
REMARK    3  A    between atoms: C_6  and  C_10
REMARK    4  A    between atoms: C_8  and  O_9
REMARK    5  A    between atoms: C_10  and  C_11
REMARK    6  A    between atoms: N_12  and  C_13
REMARK    7  A    between atoms: C_19  and  O_20
REMARK    8  A    between atoms: O_20  and  C_21
REMARK    9  A    between atoms: C_22  and  O_24
REMARK   10  A    between atoms: O_24  and  C_25
REMARK                            x       y       z     vdW  Elec       q    Type
REMARK                         _______ _______ _______ _____ _____    ______ ____
ROOT
ATOM      1  C   UNL     1      84.119  52.799  42.711  0.00  0.00    +0.040 C 
ATOM      2  N   UNL     1      83.329  53.011  41.456  0.00  0.00    -0.298 N 
ATOM      3  C   UNL     1      82.154  52.122  41.399  0.00  0.00    -0.012 C 
ATOM      4  C   UNL     1      82.906  54.401  41.184  0.00  0.00    +0.003 C 
ATOM      5  C   UNL     1      84.075  55.365  41.346  0.00  0.00    -0.014 C 
ATOM      6  C   UNL     1      84.532  55.311  42.768  0.00  0.00    -0.038 A 
ATOM      7  C   UNL     1      84.493  54.083  43.445  0.00  0.00    -0.023 A 
ATOM      8  C   UNL     1      84.882  54.031  44.794  0.00  0.00    -0.011 A 
ATOM      9  C   UNL     1      85.314  55.191  45.464  0.00  0.00    +0.162 A 
ATOM     10  C   UNL     1      85.366  56.412  44.776  0.00  0.00    +0.162 A 
ATOM     11  C   UNL     1      84.976  56.466  43.425  0.00  0.00    -0.013 A 
ATOM     12  H   UNL     1      83.995  52.776  40.721  0.00  0.00    +0.000 HD
ENDROOT
BRANCH   9  13
ATOM     13  O   UNL     1      85.709  55.169  46.812  0.00  0.00    -0.491 OA
ATOM     14  C   UNL     1      85.490  54.077  47.699  0.00  0.00    +0.079 C 
ENDBRANCH   9  13
BRANCH  10  15
ATOM     15  O   UNL     1      85.810  57.550  45.469  0.00  0.00    -0.491 OA
ATOM     16  C   UNL     1      85.116  58.793  45.509  0.00  0.00    +0.079 C 
ENDBRANCH  10  15
BRANCH   1  17
ATOM     17  C   UNL     1      85.425  52.054  42.362  0.00  0.00    -0.008 C 
BRANCH  17  21
ATOM     18  C   UNL     1      85.532  48.056  44.006  0.00  0.00    +0.161 A 
ATOM     19  C   UNL     1      86.727  48.727  43.687  0.00  0.00    -0.016 A 
ATOM     20  C   UNL     1      86.693  50.023  43.168  0.00  0.00    -0.055 A 
ATOM     21  C   UNL     1      85.467  50.672  42.962  0.00  0.00    -0.042 A 
ATOM     22  C   UNL     1      84.274  50.003  43.274  0.00  0.00    -0.013 A 
ATOM     23  C   UNL     1      84.305  48.702  43.795  0.00  0.00    +0.159 A 
BRANCH  18  25
ATOM     24  C   UNL     1      85.856  45.585  43.789  0.00  0.00    +0.079 C 
ATOM     25  O   UNL     1      85.521  46.754  44.530  0.00  0.00    -0.491 OA
ENDBRANCH  18  25
BRANCH  23  26
ATOM     26  O   UNL     1      83.117  48.042  44.105  0.00  0.00    -0.503 OA
ATOM     27  H   UNL     1      82.803  47.357  43.548  0.00  0.00    +0.000 HD
ENDBRANCH  23  26
ENDBRANCH  17  21
ENDBRANCH   1  17
TORSDOF 6
ENDMDL
MODEL 8
REMARK VINA RESULT:    -7.211      4.504      6.352
REMARK INTER + INTRA:         -10.348
REMARK INTER:                  -9.502
REMARK INTRA:                  -0.846
REMARK UNBOUND:                -0.818
REMARK  Name = 
REMARK  10 active torsions:
REMARK  status: ('A' for Active; 'I' for Inactive)
REMARK    1  A    between atoms: C_1  and  O_2
REMARK    2  A    between atoms: O_2  and  C_3
REMARK    3  A    between atoms: C_6  and  C_10
REMARK    4  A    between atoms: C_8  and  O_9
REMARK    5  A    between atoms: C_10  and  C_11
REMARK    6  A    between atoms: N_12  and  C_13
REMARK    7  A    between atoms: C_19  and  O_20
REMARK    8  A    between atoms: O_20  and  C_21
REMARK    9  A    between atoms: C_22  and  O_24
REMARK   10  A    between atoms: O_24  and  C_25
REMARK                            x       y       z     vdW  Elec       q    Type
REMARK                         _______ _______ _______ _____ _____    ______ ____
ROOT
ATOM      1  C   UNL     1      86.596  51.334  46.296  0.00  0.00    +0.040 C 
ATOM      2  N   UNL     1      86.660  50.801  47.693  0.00  0.00    -0.298 N 
ATOM      3  C   UNL     1      87.983  50.222  47.992  0.00  0.00    -0.012 C 
ATOM      4  C   UNL     1      86.285  51.746  48.766  0.00  0.00    +0.003 C 
ATOM      5  C   UNL     1      84.974  52.449  48.435  0.00  0.00    -0.014 C 
ATOM      6  C   UNL     1      85.175  53.249  47.188  0.00  0.00    -0.038 A 
ATOM      7  C   UNL     1      86.008  52.738  46.183  0.00  0.00    -0.023 A 
ATOM      8  C   UNL     1      86.235  53.501  45.025  0.00  0.00    -0.011 A 
ATOM      9  C   UNL     1      85.630  54.762  44.864  0.00  0.00    +0.162 A 
ATOM     10  C   UNL     1      84.784  55.259  45.867  0.00  0.00    +0.162 A 
ATOM     11  C   UNL     1      84.558  54.496  47.028  0.00  0.00    -0.013 A 
ATOM     12  H   UNL     1      85.941  50.078  47.699  0.00  0.00    +0.000 HD
ENDROOT
BRANCH   9  13
ATOM     13  O   UNL     1      85.838  55.547  43.719  0.00  0.00    -0.491 OA
ATOM     14  C   UNL     1      85.122  55.397  42.497  0.00  0.00    +0.079 C 
ENDBRANCH   9  13
BRANCH  10  15
ATOM     15  O   UNL     1      84.189  56.517  45.674  0.00  0.00    -0.491 OA
ATOM     16  C   UNL     1      84.752  57.752  46.105  0.00  0.00    +0.079 C 
ENDBRANCH  10  15
BRANCH   1  17
ATOM     17  C   UNL     1      85.731  50.387  45.436  0.00  0.00    -0.008 C 
BRANCH  17  21
ATOM     18  C   UNL     1      88.068  48.157  42.561  0.00  0.00    +0.161 A 
ATOM     19  C   UNL     1      88.601  49.308  43.173  0.00  0.00    -0.016 A 
ATOM     20  C   UNL     1      87.850  50.022  44.110  0.00  0.00    -0.055 A 
ATOM     21  C   UNL     1      86.559  49.596  44.456  0.00  0.00    -0.042 A 
ATOM     22  C   UNL     1      86.025  48.453  43.845  0.00  0.00    -0.013 A 
ATOM     23  C   UNL     1      86.775  47.735  42.903  0.00  0.00    +0.159 A 
BRANCH  18  25
ATOM     24  C   UNL     1      90.206  47.418  41.495  0.00  0.00    +0.079 C 
ATOM     25  O   UNL     1      88.788  47.411  41.615  0.00  0.00    -0.491 OA
ENDBRANCH  18  25
BRANCH  23  26
ATOM     26  O   UNL     1      86.240  46.599  42.299  0.00  0.00    -0.503 OA
ATOM     27  H   UNL     1      86.787  46.043  41.778  0.00  0.00    +0.000 HD
ENDBRANCH  23  26
ENDBRANCH  17  21
ENDBRANCH   1  17
TORSDOF 6
ENDMDL
MODEL 9
REMARK VINA RESULT:    -7.170      4.220      6.963
REMARK INTER + INTRA:         -10.293
REMARK INTER:                  -9.436
REMARK INTRA:                  -0.857
REMARK UNBOUND:                -0.818
REMARK  Name = 
REMARK  10 active torsions:
REMARK  status: ('A' for Active; 'I' for Inactive)
REMARK    1  A    between atoms: C_1  and  O_2
REMARK    2  A    between atoms: O_2  and  C_3
REMARK    3  A    between atoms: C_6  and  C_10
REMARK    4  A    between atoms: C_8  and  O_9
REMARK    5  A    between atoms: C_10  and  C_11
REMARK    6  A    between atoms: N_12  and  C_13
REMARK    7  A    between atoms: C_19  and  O_20
REMARK    8  A    between atoms: O_20  and  C_21
REMARK    9  A    between atoms: C_22  and  O_24
REMARK   10  A    between atoms: O_24  and  C_25
REMARK                            x       y       z     vdW  Elec       q    Type
REMARK                         _______ _______ _______ _____ _____    ______ ____
ROOT
ATOM      1  C   UNL     1      86.308  52.987  42.704  0.00  0.00    +0.040 C 
ATOM      2  N   UNL     1      85.700  53.945  41.727  0.00  0.00    -0.298 N 
ATOM      3  C   UNL     1      84.941  53.241  40.677  0.00  0.00    -0.012 C 
ATOM      4  C   UNL     1      84.860  55.015  42.305  0.00  0.00    +0.003 C 
ATOM      5  C   UNL     1      85.570  55.691  43.472  0.00  0.00    -0.014 C 
ATOM      6  C   UNL     1      85.789  54.671  44.541  0.00  0.00    -0.038 A 
ATOM      7  C   UNL     1      86.083  53.352  44.168  0.00  0.00    -0.023 A 
ATOM      8  C   UNL     1      86.251  52.377  45.166  0.00  0.00    -0.011 A 
ATOM      9  C   UNL     1      86.134  52.714  46.528  0.00  0.00    +0.162 A 
ATOM     10  C   UNL     1      85.856  54.039  46.894  0.00  0.00    +0.162 A 
ATOM     11  C   UNL     1      85.687  55.016  45.895  0.00  0.00    -0.013 A 
ATOM     12  H   UNL     1      86.512  54.417  41.329  0.00  0.00    +0.000 HD
ENDROOT
BRANCH   9  13
ATOM     13  O   UNL     1      86.296  51.762  47.547  0.00  0.00    -0.491 OA
ATOM     14  C   UNL     1      86.903  50.486  47.370  0.00  0.00    +0.079 C 
ENDBRANCH   9  13
BRANCH  10  15
ATOM     15  O   UNL     1      85.753  54.345  48.261  0.00  0.00    -0.491 OA
ATOM     16  C   UNL     1      84.526  54.455  48.974  0.00  0.00    +0.079 C 
ENDBRANCH  10  15
BRANCH   1  17
ATOM     17  C   UNL     1      87.831  52.920  42.459  0.00  0.00    -0.008 C 
BRANCH  17  21
ATOM     18  C   UNL     1      89.143  48.889  41.605  0.00  0.00    +0.161 A 
ATOM     19  C   UNL     1      90.024  49.975  41.441  0.00  0.00    -0.016 A 
ATOM     20  C   UNL     1      89.604  51.276  41.729  0.00  0.00    -0.055 A 
ATOM     21  C   UNL     1      88.301  51.514  42.189  0.00  0.00    -0.042 A 
ATOM     22  C   UNL     1      87.420  50.434  42.348  0.00  0.00    -0.013 A 
ATOM     23  C   UNL     1      87.838  49.127  42.060  0.00  0.00    +0.159 A 
BRANCH  18  25
ATOM     24  C   UNL     1      90.255  46.736  42.223  0.00  0.00    +0.079 C 
ATOM     25  O   UNL     1      89.525  47.567  41.328  0.00  0.00    -0.491 OA
ENDBRANCH  18  25
BRANCH  23  26
ATOM     26  O   UNL     1      86.959  48.058  42.221  0.00  0.00    -0.503 OA
ATOM     27  H   UNL     1      86.034  48.203  42.198  0.00  0.00    +0.000 HD
ENDBRANCH  23  26
ENDBRANCH  17  21
ENDBRANCH   1  17
TORSDOF 6
ENDMDL
