MODEL 1
REMARK VINA RESULT:    -8.140      0.000      0.000
REMARK INTER + INTRA:         -10.187
REMARK INTER:                  -9.564
REMARK INTRA:                  -0.623
REMARK UNBOUND:                -0.619
REMARK  Name = 
REMARK  5 active torsions:
REMARK  status: ('A' for Active; 'I' for Inactive)
REMARK    1  A    between atoms: C_2  and  C_3
REMARK    2  A    between atoms: C_6  and  C_17
REMARK    3  A    between atoms: C_11  and  O_16
REMARK    4  A    between atoms: C_12  and  C_15
REMARK    5  A    between atoms: C_13  and  O_14
REMARK                            x       y       z     vdW  Elec       q    Type
REMARK                         _______ _______ _______ _____ _____    ______ ____
ROOT
ATOM      1  C   UNL     1      85.944  53.396  41.832  0.00  0.00    +0.098 A 
ATOM      2  C   UNL     1      86.184  52.895  43.124  0.00  0.00    +0.149 A 
ATOM      3  O   UNL     1      85.371  53.315  44.191  0.00  0.00    -0.482 OA
ATOM      4  C   UNL     1      85.358  52.671  45.467  0.00  0.00    +0.132 C 
ATOM      5  C   UNL     1      86.775  52.251  45.870  0.00  0.00    +0.052 C 
ATOM      6  C   UNL     1      87.383  51.474  44.745  0.00  0.00    +0.174 C 
ATOM      7  O   UNL     1      87.935  50.367  44.984  0.00  0.00    -0.292 OA
ATOM      8  C   UNL     1      87.237  51.989  43.359  0.00  0.00    +0.102 A 
ATOM      9  C   UNL     1      88.087  51.610  42.294  0.00  0.00    +0.137 A 
ATOM     10  C   UNL     1      87.812  52.058  40.984  0.00  0.00    +0.034 A 
ATOM     11  C   UNL     1      86.748  52.961  40.756  0.00  0.00    +0.137 A 
ATOM     12  C   UNL     1      88.681  51.609  39.831  0.00  0.00    -0.033 C 
ENDROOT
BRANCH   4  13
ATOM     13  C   UNL     1      84.758  53.590  46.503  0.00  0.00    -0.007 A 
ATOM     14  C   UNL     1      84.299  53.075  47.727  0.00  0.00    -0.055 A 
ATOM     15  C   UNL     1      83.770  53.928  48.700  0.00  0.00    -0.061 A 
ATOM     16  C   UNL     1      83.705  55.304  48.463  0.00  0.00    -0.062 A 
ATOM     17  C   UNL     1      84.172  55.829  47.256  0.00  0.00    -0.061 A 
ATOM     18  C   UNL     1      84.702  54.979  46.281  0.00  0.00    -0.055 A 
ENDBRANCH   4  13
BRANCH   1  20
ATOM     19  O   UNL     1      84.971  55.410  40.951  0.00  0.00    -0.295 OA
ATOM     20  C   UNL     1      84.830  54.360  41.634  0.00  0.00    +0.157 C 
ENDBRANCH   1  20
BRANCH  11  21
ATOM     21  O   UNL     1      86.480  53.442  39.469  0.00  0.00    -0.506 OA
ATOM     22  H   UNL     1      85.614  53.723  39.245  0.00  0.00    +0.000 HD
ENDBRANCH  11  21
BRANCH   9  23
ATOM     23  O   UNL     1      89.227  50.827  42.508  0.00  0.00    -0.506 OA
ATOM     24  H   UNL     1      89.850  50.708  41.818  0.00  0.00    +0.000 HD
ENDBRANCH   9  23
TORSDOF 4
ENDMDL
MODEL 2
REMARK VINA RESULT:    -7.990      2.550      7.136
REMARK INTER + INTRA:         -10.010
REMARK INTER:                  -9.407
REMARK INTRA:                  -0.603
REMARK UNBOUND:                -0.619
REMARK  Name = 
REMARK  5 active torsions:
REMARK  status: ('A' for Active; 'I' for Inactive)
REMARK    1  A    between atoms: C_2  and  C_3
REMARK    2  A    between atoms: C_6  and  C_17
REMARK    3  A    between atoms: C_11  and  O_16
REMARK    4  A    between atoms: C_12  and  C_15
REMARK    5  A    between atoms: C_13  and  O_14
REMARK                            x       y       z     vdW  Elec       q    Type
REMARK                         _______ _______ _______ _____ _____    ______ ____
ROOT
ATOM      1  C   UNL     1      86.712  51.559  46.527  0.00  0.00    +0.098 A 
ATOM      2  C   UNL     1      86.994  51.731  45.161  0.00  0.00    +0.149 A 
ATOM      3  O   UNL     1      87.445  50.634  44.405  0.00  0.00    -0.482 OA
ATOM      4  C   UNL     1      87.498  50.635  42.976  0.00  0.00    +0.132 C 
ATOM      5  C   UNL     1      87.960  52.001  42.459  0.00  0.00    +0.052 C 
ATOM      6  C   UNL     1      87.115  53.064  43.089  0.00  0.00    +0.174 C 
ATOM      7  O   UNL     1      86.591  53.950  42.363  0.00  0.00    -0.292 OA
ATOM      8  C   UNL     1      86.843  52.990  44.547  0.00  0.00    +0.102 A 
ATOM      9  C   UNL     1      86.442  54.103  45.322  0.00  0.00    +0.137 A 
ATOM     10  C   UNL     1      86.094  53.926  46.678  0.00  0.00    +0.034 A 
ATOM     11  C   UNL     1      86.242  52.656  47.284  0.00  0.00    +0.137 A 
ATOM     12  C   UNL     1      85.608  55.099  47.497  0.00  0.00    -0.033 C 
ENDROOT
BRANCH   4  13
ATOM     13  C   UNL     1      88.419  49.541  42.494  0.00  0.00    -0.007 A 
ATOM     14  C   UNL     1      89.810  49.742  42.480  0.00  0.00    -0.055 A 
ATOM     15  C   UNL     1      90.667  48.720  42.061  0.00  0.00    -0.061 A 
ATOM     16  C   UNL     1      90.145  47.487  41.663  0.00  0.00    -0.062 A 
ATOM     17  C   UNL     1      88.764  47.271  41.688  0.00  0.00    -0.061 A 
ATOM     18  C   UNL     1      87.904  48.291  42.107  0.00  0.00    -0.055 A 
ENDBRANCH   4  13
BRANCH   1  20
ATOM     19  O   UNL     1      87.648  50.034  48.131  0.00  0.00    -0.295 OA
ATOM     20  C   UNL     1      86.899  50.216  47.134  0.00  0.00    +0.157 C 
ENDBRANCH   1  20
BRANCH  11  21
ATOM     21  O   UNL     1      85.933  52.467  48.636  0.00  0.00    -0.506 OA
ATOM     22  H   UNL     1      85.046  52.543  48.929  0.00  0.00    +0.000 HD
ENDBRANCH  11  21
BRANCH   9  23
ATOM     23  O   UNL     1      86.415  55.397  44.789  0.00  0.00    -0.506 OA
ATOM     24  H   UNL     1      86.503  55.525  43.865  0.00  0.00    +0.000 HD
ENDBRANCH   9  23
TORSDOF 4
ENDMDL
MODEL 3
REMARK VINA RESULT:    -7.902      4.684      7.135
REMARK INTER + INTRA:          -9.907
REMARK INTER:                  -9.331
REMARK INTRA:                  -0.576
REMARK UNBOUND:                -0.619
REMARK  Name = 
REMARK  5 active torsions:
REMARK  status: ('A' for Active; 'I' for Inactive)
REMARK    1  A    between atoms: C_2  and  C_3
REMARK    2  A    between atoms: C_6  and  C_17
REMARK    3  A    between atoms: C_11  and  O_16
REMARK    4  A    between atoms: C_12  and  C_15
REMARK    5  A    between atoms: C_13  and  O_14
REMARK                            x       y       z     vdW  Elec       q    Type
REMARK                         _______ _______ _______ _____ _____    ______ ____
ROOT
ATOM      1  C   UNL     1      85.115  47.512  43.931  0.00  0.00    +0.098 A 
ATOM      2  C   UNL     1      86.405  47.614  43.381  0.00  0.00    +0.149 A 
ATOM      3  O   UNL     1      87.020  48.875  43.289  0.00  0.00    -0.482 OA
ATOM      4  C   UNL     1      88.410  49.050  43.003  0.00  0.00    +0.132 C 
ATOM      5  C   UNL     1      88.874  48.034  41.955  0.00  0.00    +0.052 C 
ATOM      6  C   UNL     1      88.458  46.665  42.396  0.00  0.00    +0.174 C 
ATOM      7  O   UNL     1      89.303  45.731  42.394  0.00  0.00    -0.292 OA
ATOM      8  C   UNL     1      87.079  46.469  42.912  0.00  0.00    +0.102 A 
ATOM      9  C   UNL     1      86.437  45.210  42.957  0.00  0.00    +0.137 A 
ATOM     10  C   UNL     1      85.169  45.090  43.567  0.00  0.00    +0.034 A 
ATOM     11  C   UNL     1      84.503  46.244  44.042  0.00  0.00    +0.137 A 
ATOM     12  C   UNL     1      84.503  43.738  43.671  0.00  0.00    -0.033 C 
ENDROOT
BRANCH   4  13
ATOM     13  C   UNL     1      88.665  50.460  42.530  0.00  0.00    -0.007 A 
ATOM     14  C   UNL     1      89.729  50.731  41.654  0.00  0.00    -0.055 A 
ATOM     15  C   UNL     1      89.950  52.032  41.191  0.00  0.00    -0.061 A 
ATOM     16  C   UNL     1      89.105  53.070  41.591  0.00  0.00    -0.062 A 
ATOM     17  C   UNL     1      88.035  52.810  42.450  0.00  0.00    -0.061 A 
ATOM     18  C   UNL     1      87.810  51.510  42.914  0.00  0.00    -0.055 A 
ENDBRANCH   4  13
BRANCH   1  20
ATOM     19  O   UNL     1      83.182  48.843  44.450  0.00  0.00    -0.295 OA
ATOM     20  C   UNL     1      84.437  48.749  44.400  0.00  0.00    +0.157 C 
ENDBRANCH   1  20
BRANCH  11  21
ATOM     21  O   UNL     1      83.232  46.151  44.619  0.00  0.00    -0.506 OA
ATOM     22  H   UNL     1      83.025  45.430  45.182  0.00  0.00    +0.000 HD
ENDBRANCH  11  21
BRANCH   9  23
ATOM     23  O   UNL     1      87.009  44.073  42.376  0.00  0.00    -0.506 OA
ATOM     24  H   UNL     1      87.937  44.025  42.255  0.00  0.00    +0.000 HD
ENDBRANCH   9  23
TORSDOF 4
ENDMDL
MODEL 4
REMARK VINA RESULT:    -7.898      3.770      6.175
REMARK INTER + INTRA:          -9.903
REMARK INTER:                  -9.286
REMARK INTRA:                  -0.616
REMARK UNBOUND:                -0.619
REMARK  Name = 
REMARK  5 active torsions:
REMARK  status: ('A' for Active; 'I' for Inactive)
REMARK    1  A    between atoms: C_2  and  C_3
REMARK    2  A    between atoms: C_6  and  C_17
REMARK    3  A    between atoms: C_11  and  O_16
REMARK    4  A    between atoms: C_12  and  C_15
REMARK    5  A    between atoms: C_13  and  O_14
REMARK                            x       y       z     vdW  Elec       q    Type
REMARK                         _______ _______ _______ _____ _____    ______ ____
ROOT
ATOM      1  C   UNL     1      82.866  51.210  42.907  0.00  0.00    +0.098 A 
ATOM      2  C   UNL     1      84.032  50.501  43.247  0.00  0.00    +0.149 A 
ATOM      3  O   UNL     1      85.289  51.088  43.016  0.00  0.00    -0.482 OA
ATOM      4  C   UNL     1      86.506  50.575  43.565  0.00  0.00    +0.132 C 
ATOM      5  C   UNL     1      86.501  49.043  43.542  0.00  0.00    +0.052 C 
ATOM      6  C   UNL     1      85.234  48.558  44.175  0.00  0.00    +0.174 C 
ATOM      7  O   UNL     1      85.288  47.667  45.064  0.00  0.00    -0.292 OA
ATOM      8  C   UNL     1      83.953  49.208  43.801  0.00  0.00    +0.102 A 
ATOM      9  C   UNL     1      82.689  48.600  43.981  0.00  0.00    +0.137 A 
ATOM     10  C   UNL     1      81.513  49.330  43.703  0.00  0.00    +0.034 A 
ATOM     11  C   UNL     1      81.603  50.630  43.155  0.00  0.00    +0.137 A 
ATOM     12  C   UNL     1      80.158  48.707  43.950  0.00  0.00    -0.033 C 
ENDROOT
BRANCH   4  13
ATOM     13  C   UNL     1      87.687  51.117  42.798  0.00  0.00    -0.007 A 
ATOM     14  C   UNL     1      88.688  50.248  42.332  0.00  0.00    -0.055 A 
ATOM     15  C   UNL     1      89.768  50.744  41.596  0.00  0.00    -0.061 A 
ATOM     16  C   UNL     1      89.852  52.109  41.310  0.00  0.00    -0.062 A 
ATOM     17  C   UNL     1      88.855  52.980  41.756  0.00  0.00    -0.061 A 
ATOM     18  C   UNL     1      87.773  52.488  42.492  0.00  0.00    -0.055 A 
ENDBRANCH   4  13
BRANCH   1  20
ATOM     19  O   UNL     1      82.314  52.928  41.320  0.00  0.00    -0.295 OA
ATOM     20  C   UNL     1      83.000  52.565  42.312  0.00  0.00    +0.157 C 
ENDBRANCH   1  20
BRANCH  11  21
ATOM     21  O   UNL     1      80.448  51.357  42.842  0.00  0.00    -0.506 OA
ATOM     22  H   UNL     1      80.487  52.049  42.211  0.00  0.00    +0.000 HD
ENDBRANCH  11  21
BRANCH   9  23
ATOM     23  O   UNL     1      82.567  47.268  44.394  0.00  0.00    -0.506 OA
ATOM     24  H   UNL     1      82.840  47.019  45.255  0.00  0.00    +0.000 HD
ENDBRANCH   9  23
TORSDOF 4
ENDMDL
MODEL 5
REMARK VINA RESULT:    -7.871      1.960      3.115
REMARK INTER + INTRA:          -9.871
REMARK INTER:                  -9.251
REMARK INTRA:                  -0.620
REMARK UNBOUND:                -0.619
REMARK  Name = 
REMARK  5 active torsions:
REMARK  status: ('A' for Active; 'I' for Inactive)
REMARK    1  A    between atoms: C_2  and  C_3
REMARK    2  A    between atoms: C_6  and  C_17
REMARK    3  A    between atoms: C_11  and  O_16
REMARK    4  A    between atoms: C_12  and  C_15
REMARK    5  A    between atoms: C_13  and  O_14
REMARK                            x       y       z     vdW  Elec       q    Type
REMARK                         _______ _______ _______ _____ _____    ______ ____
ROOT
ATOM      1  C   UNL     1      86.859  52.001  42.470  0.00  0.00    +0.098 A 
ATOM      2  C   UNL     1      86.707  52.482  43.782  0.00  0.00    +0.149 A 
ATOM      3  O   UNL     1      86.129  53.747  43.992  0.00  0.00    -0.482 OA
ATOM      4  C   UNL     1      85.688  54.204  45.273  0.00  0.00    +0.132 C 
ATOM      5  C   UNL     1      86.663  53.757  46.367  0.00  0.00    +0.052 C 
ATOM      6  C   UNL     1      86.890  52.283  46.234  0.00  0.00    +0.174 C 
ATOM      7  O   UNL     1      86.790  51.547  47.251  0.00  0.00    -0.292 OA
ATOM      8  C   UNL     1      87.139  51.717  44.884  0.00  0.00    +0.102 A 
ATOM      9  C   UNL     1      87.769  50.470  44.666  0.00  0.00    +0.137 A 
ATOM     10  C   UNL     1      87.866  49.952  43.356  0.00  0.00    +0.034 A 
ATOM     11  C   UNL     1      87.422  50.724  42.258  0.00  0.00    +0.137 A 
ATOM     12  C   UNL     1      88.484  48.593  43.123  0.00  0.00    -0.033 C 
ENDROOT
BRANCH   4  13
ATOM     13  C   UNL     1      85.547  55.707  45.264  0.00  0.00    -0.007 A 
ATOM     14  C   UNL     1      86.208  56.473  44.289  0.00  0.00    -0.055 A 
ATOM     15  C   UNL     1      86.056  57.863  44.261  0.00  0.00    -0.061 A 
ATOM     16  C   UNL     1      85.236  58.497  45.198  0.00  0.00    -0.062 A 
ATOM     17  C   UNL     1      84.562  57.743  46.161  0.00  0.00    -0.061 A 
ATOM     18  C   UNL     1      84.711  56.353  46.193  0.00  0.00    -0.055 A 
ENDBRANCH   4  13
BRANCH   1  20
ATOM     19  O   UNL     1      87.117  53.045  40.320  0.00  0.00    -0.295 OA
ATOM     20  C   UNL     1      86.402  52.850  41.339  0.00  0.00    +0.157 C 
ENDBRANCH   1  20
BRANCH  11  21
ATOM     21  O   UNL     1      87.540  50.242  40.949  0.00  0.00    -0.506 OA
ATOM     22  H   UNL     1      87.727  49.335  40.799  0.00  0.00    +0.000 HD
ENDBRANCH  11  21
BRANCH   9  23
ATOM     23  O   UNL     1      88.339  49.742  45.717  0.00  0.00    -0.506 OA
ATOM     24  H   UNL     1      89.216  49.925  45.992  0.00  0.00    +0.000 HD
ENDBRANCH   9  23
TORSDOF 4
ENDMDL
MODEL 6
REMARK VINA RESULT:    -7.660      5.118      6.565
REMARK INTER + INTRA:          -9.622
REMARK INTER:                  -9.027
REMARK INTRA:                  -0.595
REMARK UNBOUND:                -0.619
REMARK  Name = 
REMARK  5 active torsions:
REMARK  status: ('A' for Active; 'I' for Inactive)
REMARK    1  A    between atoms: C_2  and  C_3
REMARK    2  A    between atoms: C_6  and  C_17
REMARK    3  A    between atoms: C_11  and  O_16
REMARK    4  A    between atoms: C_12  and  C_15
REMARK    5  A    between atoms: C_13  and  O_14
REMARK                            x       y       z     vdW  Elec       q    Type
REMARK                         _______ _______ _______ _____ _____    ______ ____
ROOT
ATOM      1  C   UNL     1      86.063  46.105  43.082  0.00  0.00    +0.098 A 
ATOM      2  C   UNL     1      85.690  47.434  43.350  0.00  0.00    +0.149 A 
ATOM      3  O   UNL     1      84.351  47.726  43.662  0.00  0.00    -0.482 OA
ATOM      4  C   UNL     1      83.928  48.979  44.207  0.00  0.00    +0.132 C 
ATOM      5  C   UNL     1      84.701  50.133  43.559  0.00  0.00    +0.052 C 
ATOM      6  C   UNL     1      86.166  49.837  43.643  0.00  0.00    +0.174 C 
ATOM      7  O   UNL     1      86.952  50.719  44.078  0.00  0.00    -0.292 OA
ATOM      8  C   UNL     1      86.640  48.473  43.295  0.00  0.00    +0.102 A 
ATOM      9  C   UNL     1      87.975  48.183  42.928  0.00  0.00    +0.137 A 
ATOM     10  C   UNL     1      88.371  46.844  42.722  0.00  0.00    +0.034 A 
ATOM     11  C   UNL     1      87.411  45.807  42.787  0.00  0.00    +0.137 A 
ATOM     12  C   UNL     1      89.809  46.521  42.388  0.00  0.00    -0.033 C 
ENDROOT
BRANCH   4  13
ATOM     13  C   UNL     1      82.442  49.153  44.008  0.00  0.00    -0.007 A 
ATOM     14  C   UNL     1      81.939  50.324  43.417  0.00  0.00    -0.055 A 
ATOM     15  C   UNL     1      80.566  50.475  43.205  0.00  0.00    -0.061 A 
ATOM     16  C   UNL     1      79.684  49.455  43.572  0.00  0.00    -0.062 A 
ATOM     17  C   UNL     1      80.175  48.280  44.147  0.00  0.00    -0.061 A 
ATOM     18  C   UNL     1      81.548  48.125  44.360  0.00  0.00    -0.055 A 
ENDBRANCH   4  13
BRANCH   1  20
ATOM     19  O   UNL     1      85.041  44.053  42.361  0.00  0.00    -0.295 OA
ATOM     20  C   UNL     1      85.024  45.044  43.138  0.00  0.00    +0.157 C 
ENDBRANCH   1  20
BRANCH  11  21
ATOM     21  O   UNL     1      87.778  44.476  42.553  0.00  0.00    -0.506 OA
ATOM     22  H   UNL     1      87.687  43.838  43.235  0.00  0.00    +0.000 HD
ENDBRANCH  11  21
BRANCH   9  23
ATOM     23  O   UNL     1      88.917  49.198  42.724  0.00  0.00    -0.506 OA
ATOM     24  H   UNL     1      89.800  48.979  42.502  0.00  0.00    +0.000 HD
ENDBRANCH   9  23
TORSDOF 4
ENDMDL
MODEL 7
REMARK VINA RESULT:    -7.465      2.199      4.372
REMARK INTER + INTRA:          -9.393
REMARK INTER:                  -8.801
REMARK INTRA:                  -0.593
REMARK UNBOUND:                -0.619
REMARK  Name = 
REMARK  5 active torsions:
REMARK  status: ('A' for Active; 'I' for Inactive)
REMARK    1  A    between atoms: C_2  and  C_3
REMARK    2  A    between atoms: C_6  and  C_17
REMARK    3  A    between atoms: C_11  and  O_16
REMARK    4  A    between atoms: C_12  and  C_15
REMARK    5  A    between atoms: C_13  and  O_14
REMARK                            x       y       z     vdW  Elec       q    Type
REMARK                         _______ _______ _______ _____ _____    ______ ____
ROOT
ATOM      1  C   UNL     1      86.516  51.661  46.164  0.00  0.00    +0.098 A 
ATOM      2  C   UNL     1      86.577  52.736  45.260  0.00  0.00    +0.149 A 
ATOM      3  O   UNL     1      86.248  54.029  45.702  0.00  0.00    -0.482 OA
ATOM      4  C   UNL     1      86.534  55.211  44.949  0.00  0.00    +0.132 C 
ATOM      5  C   UNL     1      86.296  54.966  43.456  0.00  0.00    +0.052 C 
ATOM      6  C   UNL     1      87.035  53.729  43.049  0.00  0.00    +0.174 C 
ATOM      7  O   UNL     1      87.772  53.755  42.028  0.00  0.00    -0.292 OA
ATOM      8  C   UNL     1      86.949  52.527  43.917  0.00  0.00    +0.102 A 
ATOM      9  C   UNL     1      87.227  51.217  43.463  0.00  0.00    +0.137 A 
ATOM     10  C   UNL     1      87.232  50.143  44.379  0.00  0.00    +0.034 A 
ATOM     11  C   UNL     1      86.864  50.364  45.727  0.00  0.00    +0.137 A 
ATOM     12  C   UNL     1      87.585  48.750  43.913  0.00  0.00    -0.033 C 
ENDROOT
BRANCH   4  13
ATOM     13  C   UNL     1      85.685  56.356  45.444  0.00  0.00    -0.007 A 
ATOM     14  C   UNL     1      84.803  56.169  46.522  0.00  0.00    -0.055 A 
ATOM     15  C   UNL     1      84.036  57.235  47.002  0.00  0.00    -0.061 A 
ATOM     16  C   UNL     1      84.152  58.499  46.417  0.00  0.00    -0.062 A 
ATOM     17  C   UNL     1      85.037  58.700  45.355  0.00  0.00    -0.061 A 
ATOM     18  C   UNL     1      85.806  57.636  44.873  0.00  0.00    -0.055 A 
ENDBRANCH   4  13
BRANCH   1  20
ATOM     19  O   UNL     1      86.586  51.282  48.536  0.00  0.00    -0.295 OA
ATOM     20  C   UNL     1      86.105  51.927  47.567  0.00  0.00    +0.157 C 
ENDBRANCH   1  20
BRANCH  11  21
ATOM     21  O   UNL     1      86.831  49.306  46.643  0.00  0.00    -0.506 OA
ATOM     22  H   UNL     1      86.020  48.873  46.831  0.00  0.00    +0.000 HD
ENDBRANCH  11  21
BRANCH   9  23
ATOM     23  O   UNL     1      87.462  50.943  42.111  0.00  0.00    -0.506 OA
ATOM     24  H   UNL     1      88.312  51.089  41.745  0.00  0.00    +0.000 HD
ENDBRANCH   9  23
TORSDOF 4
ENDMDL
MODEL 8
REMARK VINA RESULT:    -7.272      3.456      6.030
REMARK INTER + INTRA:          -9.167
REMARK INTER:                  -8.553
REMARK INTRA:                  -0.614
REMARK UNBOUND:                -0.619
REMARK  Name = 
REMARK  5 active torsions:
REMARK  status: ('A' for Active; 'I' for Inactive)
REMARK    1  A    between atoms: C_2  and  C_3
REMARK    2  A    between atoms: C_6  and  C_17
REMARK    3  A    between atoms: C_11  and  O_16
REMARK    4  A    between atoms: C_12  and  C_15
REMARK    5  A    between atoms: C_13  and  O_14
REMARK                            x       y       z     vdW  Elec       q    Type
REMARK                         _______ _______ _______ _____ _____    ______ ____
ROOT
ATOM      1  C   UNL     1      85.298  53.610  45.561  0.00  0.00    +0.098 A 
ATOM      2  C   UNL     1      84.477  53.208  44.493  0.00  0.00    +0.149 A 
ATOM      3  O   UNL     1      83.823  51.965  44.554  0.00  0.00    -0.482 OA
ATOM      4  C   UNL     1      82.771  51.588  43.662  0.00  0.00    +0.132 C 
ATOM      5  C   UNL     1      83.067  52.086  42.243  0.00  0.00    +0.052 C 
ATOM      6  C   UNL     1      83.389  53.547  42.305  0.00  0.00    +0.174 C 
ATOM      7  O   UNL     1      82.812  54.342  41.517  0.00  0.00    -0.292 OA
ATOM      8  C   UNL     1      84.315  54.031  43.361  0.00  0.00    +0.102 A 
ATOM      9  C   UNL     1      85.017  55.256  43.279  0.00  0.00    +0.137 A 
ATOM     10  C   UNL     1      85.791  55.696  44.374  0.00  0.00    +0.034 A 
ATOM     11  C   UNL     1      85.941  54.866  45.510  0.00  0.00    +0.137 A 
ATOM     12  C   UNL     1      86.496  57.031  44.317  0.00  0.00    -0.033 C 
ENDROOT
BRANCH   4  13
ATOM     13  C   UNL     1      82.595  50.089  43.676  0.00  0.00    -0.007 A 
ATOM     14  C   UNL     1      83.698  49.249  43.904  0.00  0.00    -0.055 A 
ATOM     15  C   UNL     1      83.532  47.861  43.946  0.00  0.00    -0.061 A 
ATOM     16  C   UNL     1      82.263  47.302  43.773  0.00  0.00    -0.062 A 
ATOM     17  C   UNL     1      81.157  48.129  43.561  0.00  0.00    -0.061 A 
ATOM     18  C   UNL     1      81.319  49.517  43.518  0.00  0.00    -0.055 A 
ENDBRANCH   4  13
BRANCH   1  20
ATOM     19  O   UNL     1      86.577  52.291  47.110  0.00  0.00    -0.295 OA
ATOM     20  C   UNL     1      85.449  52.703  46.728  0.00  0.00    +0.157 C 
ENDBRANCH   1  20
BRANCH  11  21
ATOM     21  O   UNL     1      86.730  55.270  46.593  0.00  0.00    -0.506 OA
ATOM     22  H   UNL     1      87.666  55.245  46.526  0.00  0.00    +0.000 HD
ENDBRANCH  11  21
BRANCH   9  23
ATOM     23  O   UNL     1      84.998  56.036  42.117  0.00  0.00    -0.506 OA
ATOM     24  H   UNL     1      84.950  56.970  42.181  0.00  0.00    +0.000 HD
ENDBRANCH   9  23
TORSDOF 4
ENDMDL
MODEL 9
REMARK VINA RESULT:    -7.268      2.178      6.559
REMARK INTER + INTRA:          -9.161
REMARK INTER:                  -8.542
REMARK INTRA:                  -0.619
REMARK UNBOUND:                -0.619
REMARK  Name = 
REMARK  5 active torsions:
REMARK  status: ('A' for Active; 'I' for Inactive)
REMARK    1  A    between atoms: C_2  and  C_3
REMARK    2  A    between atoms: C_6  and  C_17
REMARK    3  A    between atoms: C_11  and  O_16
REMARK    4  A    between atoms: C_12  and  C_15
REMARK    5  A    between atoms: C_13  and  O_14
REMARK                            x       y       z     vdW  Elec       q    Type
REMARK                         _______ _______ _______ _____ _____    ______ ____
ROOT
ATOM      1  C   UNL     1      85.742  54.317  46.413  0.00  0.00    +0.098 A 
ATOM      2  C   UNL     1      86.028  54.047  45.063  0.00  0.00    +0.149 A 
ATOM      3  O   UNL     1      86.617  52.819  44.714  0.00  0.00    -0.482 OA
ATOM      4  C   UNL     1      86.696  52.343  43.368  0.00  0.00    +0.132 C 
ATOM      5  C   UNL     1      87.006  53.496  42.408  0.00  0.00    +0.052 C 
ATOM      6  C   UNL     1      86.031  54.604  42.660  0.00  0.00    +0.174 C 
ATOM      7  O   UNL     1      85.421  55.125  41.689  0.00  0.00    -0.292 OA
ATOM      8  C   UNL     1      85.742  54.998  44.063  0.00  0.00    +0.102 A 
ATOM      9  C   UNL     1      85.200  56.253  44.424  0.00  0.00    +0.137 A 
ATOM     10  C   UNL     1      84.850  56.506  45.768  0.00  0.00    +0.034 A 
ATOM     11  C   UNL     1      85.133  55.543  46.764  0.00  0.00    +0.137 A 
ATOM     12  C   UNL     1      84.216  57.823  46.151  0.00  0.00    -0.033 C 
ENDROOT
BRANCH   4  13
ATOM     13  C   UNL     1      87.747  51.265  43.264  0.00  0.00    -0.007 A 
ATOM     14  C   UNL     1      87.845  50.273  44.255  0.00  0.00    -0.055 A 
ATOM     15  C   UNL     1      88.798  49.257  44.147  0.00  0.00    -0.061 A 
ATOM     16  C   UNL     1      89.654  49.215  43.043  0.00  0.00    -0.062 A 
ATOM     17  C   UNL     1      89.555  50.186  42.044  0.00  0.00    -0.061 A 
ATOM     18  C   UNL     1      88.603  51.204  42.149  0.00  0.00    -0.055 A 
ENDBRANCH   4  13
BRANCH   1  20
ATOM     19  O   UNL     1      85.196  52.797  48.192  0.00  0.00    -0.295 OA
ATOM     20  C   UNL     1      86.073  53.291  47.434  0.00  0.00    +0.157 C 
ENDBRANCH   1  20
BRANCH  11  21
ATOM     21  O   UNL     1      84.824  55.788  48.106  0.00  0.00    -0.506 OA
ATOM     22  H   UNL     1      84.053  55.414  48.486  0.00  0.00    +0.000 HD
ENDBRANCH  11  21
BRANCH   9  23
ATOM     23  O   UNL     1      85.033  57.277  43.485  0.00  0.00    -0.506 OA
ATOM     24  H   UNL     1      85.201  57.113  42.578  0.00  0.00    +0.000 HD
ENDBRANCH   9  23
TORSDOF 4
ENDMDL
