MODEL 1
REMARK VINA RESULT:    -9.735      0.000      0.000
REMARK INTER + INTRA:          -9.735
REMARK INTER:                  -9.735
REMARK INTRA:                   0.000
REMARK UNBOUND:                 0.000
REMARK  Name = 
REMARK  0 active torsions:
REMARK  status: ('A' for Active; 'I' for Inactive)
REMARK                            x       y       z     vdW  Elec       q    Type
REMARK                         _______ _______ _______ _____ _____    ______ ____
ROOT
ATOM      1  O   UNL     1      86.005  51.474  48.160  0.00  0.00    -0.266 OA
ATOM      2  C   UNL     1      85.689  52.303  47.267  0.00  0.00    +0.291 C 
ATOM      3  C   UNL     1      85.696  53.756  47.407  0.00  0.00    +0.250 C 
ATOM      4  O   UNL     1      85.979  54.404  48.447  0.00  0.00    -0.282 OA
ATOM      5  C   UNL     1      85.365  54.289  46.078  0.00  0.00    +0.057 A 
ATOM      6  C   UNL     1      85.170  53.194  45.271  0.00  0.00    +0.056 A 
ATOM      7  N   UNL     1      85.309  51.951  45.940  0.00  0.00    -0.263 N 
ATOM      8  C   UNL     1      85.625  50.733  45.203  0.00  0.00    +0.024 C 
ATOM      9  C   UNL     1      84.885  50.734  43.844  0.00  0.00    -0.011 C 
ATOM     10  C   UNL     1      84.908  52.093  43.151  0.00  0.00    -0.033 A 
ATOM     11  C   UNL     1      85.000  53.292  43.907  0.00  0.00    +0.012 A 
ATOM     12  C   UNL     1      84.963  54.586  43.306  0.00  0.00    +0.037 A 
ATOM     13  C   UNL     1      85.109  55.754  44.140  0.00  0.00    -0.006 A 
ATOM     14  C   UNL     1      85.330  55.590  45.551  0.00  0.00    -0.004 A 
ATOM     15  C   UNL     1      85.509  56.713  46.374  0.00  0.00    -0.053 A 
ATOM     16  C   UNL     1      85.460  57.997  45.834  0.00  0.00    -0.061 A 
ATOM     17  C   UNL     1      85.232  58.175  44.474  0.00  0.00    -0.061 A 
ATOM     18  C   UNL     1      85.057  57.073  43.634  0.00  0.00    -0.053 A 
ATOM     19  C   UNL     1      84.803  54.592  41.901  0.00  0.00    +0.175 A 
ATOM     20  C   UNL     1      84.693  53.438  41.177  0.00  0.00    +0.167 A 
ATOM     21  C   UNL     1      84.733  52.176  41.761  0.00  0.00    -0.012 A 
ATOM     22  O   UNL     1      84.545  53.733  39.836  0.00  0.00    -0.453 OA
ATOM     23  C   UNL     1      84.567  55.155  39.691  0.00  0.00    +0.233 C 
ATOM     24  O   UNL     1      84.733  55.657  41.020  0.00  0.00    -0.452 OA
ENDROOT
TORSDOF 0
ENDMDL
MODEL 2
REMARK VINA RESULT:    -9.690      3.248      5.955
REMARK INTER + INTRA:          -9.690
REMARK INTER:                  -9.690
REMARK INTRA:                   0.000
REMARK UNBOUND:                 0.000
REMARK  Name = 
REMARK  0 active torsions:
REMARK  status: ('A' for Active; 'I' for Inactive)
REMARK                            x       y       z     vdW  Elec       q    Type
REMARK                         _______ _______ _______ _____ _____    ______ ____
ROOT
ATOM      1  O   UNL     1      84.863  56.114  41.704  0.00  0.00    -0.266 OA
ATOM      2  C   UNL     1      84.874  54.889  41.997  0.00  0.00    +0.291 C 
ATOM      3  C   UNL     1      85.974  54.170  42.631  0.00  0.00    +0.250 C 
ATOM      4  O   UNL     1      87.095  54.649  42.946  0.00  0.00    -0.282 OA
ATOM      5  C   UNL     1      85.479  52.808  42.871  0.00  0.00    +0.057 A 
ATOM      6  C   UNL     1      84.196  52.782  42.380  0.00  0.00    +0.056 A 
ATOM      7  N   UNL     1      83.777  54.004  41.795  0.00  0.00    -0.263 N 
ATOM      8  C   UNL     1      82.361  54.332  41.675  0.00  0.00    +0.024 C 
ATOM      9  C   UNL     1      81.554  53.058  41.327  0.00  0.00    -0.011 C 
ATOM     10  C   UNL     1      82.006  51.830  42.110  0.00  0.00    -0.033 A 
ATOM     11  C   UNL     1      83.346  51.715  42.571  0.00  0.00    +0.012 A 
ATOM     12  C   UNL     1      83.828  50.558  43.253  0.00  0.00    +0.037 A 
ATOM     13  C   UNL     1      85.190  50.539  43.728  0.00  0.00    -0.006 A 
ATOM     14  C   UNL     1      86.018  51.699  43.543  0.00  0.00    -0.004 A 
ATOM     15  C   UNL     1      87.336  51.712  44.029  0.00  0.00    -0.053 A 
ATOM     16  C   UNL     1      87.856  50.598  44.684  0.00  0.00    -0.061 A 
ATOM     17  C   UNL     1      87.074  49.461  44.858  0.00  0.00    -0.061 A 
ATOM     18  C   UNL     1      85.759  49.426  44.388  0.00  0.00    -0.053 A 
ATOM     19  C   UNL     1      82.883  49.519  43.419  0.00  0.00    +0.175 A 
ATOM     20  C   UNL     1      81.601  49.623  42.956  0.00  0.00    +0.167 A 
ATOM     21  C   UNL     1      81.128  50.751  42.296  0.00  0.00    -0.012 A 
ATOM     22  O   UNL     1      80.898  48.470  43.250  0.00  0.00    -0.453 OA
ATOM     23  C   UNL     1      81.776  47.580  43.944  0.00  0.00    +0.233 C 
ATOM     24  O   UNL     1      83.019  48.285  44.029  0.00  0.00    -0.452 OA
ENDROOT
TORSDOF 0
ENDMDL
MODEL 3
REMARK VINA RESULT:    -9.555      3.200      7.167
REMARK INTER + INTRA:          -9.555
REMARK INTER:                  -9.555
REMARK INTRA:                   0.000
REMARK UNBOUND:                 0.000
REMARK  Name = 
REMARK  0 active torsions:
REMARK  status: ('A' for Active; 'I' for Inactive)
REMARK                            x       y       z     vdW  Elec       q    Type
REMARK                         _______ _______ _______ _____ _____    ______ ____
ROOT
ATOM      1  O   UNL     1      85.975  53.952  39.457  0.00  0.00    -0.266 OA
ATOM      2  C   UNL     1      86.376  53.140  40.331  0.00  0.00    +0.291 C 
ATOM      3  C   UNL     1      87.474  52.191  40.179  0.00  0.00    +0.250 C 
ATOM      4  O   UNL     1      88.163  52.007  39.142  0.00  0.00    -0.282 OA
ATOM      5  C   UNL     1      87.637  51.550  41.491  0.00  0.00    +0.057 A 
ATOM      6  C   UNL     1      86.675  52.102  42.302  0.00  0.00    +0.056 A 
ATOM      7  N   UNL     1      85.843  53.048  41.649  0.00  0.00    -0.263 N 
ATOM      8  C   UNL     1      85.126  54.067  42.407  0.00  0.00    +0.024 C 
ATOM      9  C   UNL     1      84.620  53.470  43.742  0.00  0.00    -0.011 C 
ATOM     10  C   UNL     1      85.645  52.569  44.422  0.00  0.00    -0.033 A 
ATOM     11  C   UNL     1      86.618  51.869  43.658  0.00  0.00    +0.012 A 
ATOM     12  C   UNL     1      87.556  50.969  44.246  0.00  0.00    +0.037 A 
ATOM     13  C   UNL     1      88.541  50.333  43.406  0.00  0.00    -0.006 A 
ATOM     14  C   UNL     1      88.584  50.650  42.004  0.00  0.00    -0.004 A 
ATOM     15  C   UNL     1      89.558  50.067  41.177  0.00  0.00    -0.053 A 
ATOM     16  C   UNL     1      90.482  49.167  41.703  0.00  0.00    -0.061 A 
ATOM     17  C   UNL     1      90.445  48.837  43.054  0.00  0.00    -0.061 A 
ATOM     18  C   UNL     1      89.491  49.408  43.898  0.00  0.00    -0.053 A 
ATOM     19  C   UNL     1      87.436  50.803  45.645  0.00  0.00    +0.175 A 
ATOM     20  C   UNL     1      86.486  51.460  46.376  0.00  0.00    +0.167 A 
ATOM     21  C   UNL     1      85.574  52.341  45.806  0.00  0.00    -0.012 A 
ATOM     22  O   UNL     1      86.592  51.114  47.709  0.00  0.00    -0.453 OA
ATOM     23  C   UNL     1      87.672  50.187  47.842  0.00  0.00    +0.233 C 
ATOM     24  O   UNL     1      88.177  50.021  46.513  0.00  0.00    -0.452 OA
ENDROOT
TORSDOF 0
ENDMDL
MODEL 4
REMARK VINA RESULT:    -9.524      1.985      4.248
REMARK INTER + INTRA:          -9.524
REMARK INTER:                  -9.524
REMARK INTRA:                   0.000
REMARK UNBOUND:                 0.000
REMARK  Name = 
REMARK  0 active torsions:
REMARK  status: ('A' for Active; 'I' for Inactive)
REMARK                            x       y       z     vdW  Elec       q    Type
REMARK                         _______ _______ _______ _____ _____    ______ ____
ROOT
ATOM      1  O   UNL     1      85.794  49.411  42.835  0.00  0.00    -0.266 OA
ATOM      2  C   UNL     1      85.579  50.441  43.527  0.00  0.00    +0.291 C 
ATOM      3  C   UNL     1      85.682  50.534  44.980  0.00  0.00    +0.250 C 
ATOM      4  O   UNL     1      85.960  49.595  45.769  0.00  0.00    -0.282 OA
ATOM      5  C   UNL     1      85.452  51.948  45.310  0.00  0.00    +0.057 A 
ATOM      6  C   UNL     1      85.219  52.580  44.113  0.00  0.00    +0.056 A 
ATOM      7  N   UNL     1      85.239  51.716  42.989  0.00  0.00    -0.263 N 
ATOM      8  C   UNL     1      85.504  52.231  41.650  0.00  0.00    +0.024 C 
ATOM      9  C   UNL     1      84.831  53.613  41.477  0.00  0.00    -0.011 C 
ATOM     10  C   UNL     1      84.982  54.511  42.701  0.00  0.00    -0.033 A 
ATOM     11  C   UNL     1      85.122  53.950  43.999  0.00  0.00    +0.012 A 
ATOM     12  C   UNL     1      85.204  54.750  45.178  0.00  0.00    +0.037 A 
ATOM     13  C   UNL     1      85.392  54.105  46.454  0.00  0.00    -0.006 A 
ATOM     14  C   UNL     1      85.534  52.675  46.508  0.00  0.00    -0.004 A 
ATOM     15  C   UNL     1      85.752  52.032  47.737  0.00  0.00    -0.053 A 
ATOM     16  C   UNL     1      85.819  52.770  48.916  0.00  0.00    -0.061 A 
ATOM     17  C   UNL     1      85.668  54.153  48.885  0.00  0.00    -0.061 A 
ATOM     18  C   UNL     1      85.457  54.816  47.674  0.00  0.00    -0.053 A 
ATOM     19  C   UNL     1      85.112  56.145  44.966  0.00  0.00    +0.175 A 
ATOM     20  C   UNL     1      84.956  56.682  43.719  0.00  0.00    +0.167 A 
ATOM     21  C   UNL     1      84.880  55.905  42.569  0.00  0.00    -0.012 A 
ATOM     22  O   UNL     1      84.893  58.059  43.801  0.00  0.00    -0.453 OA
ATOM     23  C   UNL     1      85.022  58.427  45.177  0.00  0.00    +0.233 C 
ATOM     24  O   UNL     1      85.159  57.186  45.876  0.00  0.00    -0.452 OA
ENDROOT
TORSDOF 0
ENDMDL
MODEL 5
REMARK VINA RESULT:    -9.465      2.020      5.216
REMARK INTER + INTRA:          -9.465
REMARK INTER:                  -9.465
REMARK INTRA:                   0.000
REMARK UNBOUND:                 0.000
REMARK  Name = 
REMARK  0 active torsions:
REMARK  status: ('A' for Active; 'I' for Inactive)
REMARK                            x       y       z     vdW  Elec       q    Type
REMARK                         _______ _______ _______ _____ _____    ______ ____
ROOT
ATOM      1  O   UNL     1      84.715  55.434  40.699  0.00  0.00    -0.266 OA
ATOM      2  C   UNL     1      85.054  55.090  41.862  0.00  0.00    +0.291 C 
ATOM      3  C   UNL     1      84.541  55.655  43.106  0.00  0.00    +0.250 C 
ATOM      4  O   UNL     1      83.715  56.599  43.212  0.00  0.00    -0.282 OA
ATOM      5  C   UNL     1      85.143  54.861  44.186  0.00  0.00    +0.057 A 
ATOM      6  C   UNL     1      85.947  53.934  43.569  0.00  0.00    +0.056 A 
ATOM      7  N   UNL     1      85.974  54.043  42.154  0.00  0.00    -0.263 N 
ATOM      8  C   UNL     1      86.343  52.904  41.321  0.00  0.00    +0.024 C 
ATOM      9  C   UNL     1      87.481  52.104  41.999  0.00  0.00    -0.011 C 
ATOM     10  C   UNL     1      87.284  51.938  43.502  0.00  0.00    -0.033 A 
ATOM     11  C   UNL     1      86.555  52.902  44.249  0.00  0.00    +0.012 A 
ATOM     12  C   UNL     1      86.398  52.820  45.666  0.00  0.00    +0.037 A 
ATOM     13  C   UNL     1      85.604  53.814  46.344  0.00  0.00    -0.006 A 
ATOM     14  C   UNL     1      84.954  54.842  45.577  0.00  0.00    -0.004 A 
ATOM     15  C   UNL     1      84.149  55.799  46.216  0.00  0.00    -0.053 A 
ATOM     16  C   UNL     1      83.983  55.770  47.599  0.00  0.00    -0.061 A 
ATOM     17  C   UNL     1      84.617  54.792  48.359  0.00  0.00    -0.061 A 
ATOM     18  C   UNL     1      85.418  53.826  47.746  0.00  0.00    -0.053 A 
ATOM     19  C   UNL     1      87.041  51.720  46.279  0.00  0.00    +0.175 A 
ATOM     20  C   UNL     1      87.760  50.805  45.561  0.00  0.00    +0.167 A 
ATOM     21  C   UNL     1      87.910  50.881  44.181  0.00  0.00    -0.012 A 
ATOM     22  O   UNL     1      88.279  49.843  46.406  0.00  0.00    -0.453 OA
ATOM     23  C   UNL     1      87.866  50.155  47.739  0.00  0.00    +0.233 C 
ATOM     24  O   UNL     1      87.085  51.347  47.611  0.00  0.00    -0.452 OA
ENDROOT
TORSDOF 0
ENDMDL
MODEL 6
REMARK VINA RESULT:    -9.434      2.555      4.762
REMARK INTER + INTRA:          -9.434
REMARK INTER:                  -9.434
REMARK INTRA:                   0.000
REMARK UNBOUND:                 0.000
REMARK  Name = 
REMARK  0 active torsions:
REMARK  status: ('A' for Active; 'I' for Inactive)
REMARK                            x       y       z     vdW  Elec       q    Type
REMARK                         _______ _______ _______ _____ _____    ______ ____
ROOT
ATOM      1  O   UNL     1      83.367  57.139  46.593  0.00  0.00    -0.266 OA
ATOM      2  C   UNL     1      84.172  56.178  46.470  0.00  0.00    +0.291 C 
ATOM      3  C   UNL     1      84.504  55.202  47.504  0.00  0.00    +0.250 C 
ATOM      4  O   UNL     1      84.073  55.191  48.686  0.00  0.00    -0.282 OA
ATOM      5  C   UNL     1      85.388  54.221  46.860  0.00  0.00    +0.057 A 
ATOM      6  C   UNL     1      85.542  54.647  45.563  0.00  0.00    +0.056 A 
ATOM      7  N   UNL     1      84.863  55.857  45.268  0.00  0.00    -0.263 N 
ATOM      8  C   UNL     1      84.500  56.199  43.897  0.00  0.00    +0.024 C 
ATOM      9  C   UNL     1      85.622  55.754  42.929  0.00  0.00    -0.011 C 
ATOM     10  C   UNL     1      86.194  54.381  43.265  0.00  0.00    -0.033 A 
ATOM     11  C   UNL     1      86.176  53.893  44.599  0.00  0.00    +0.012 A 
ATOM     12  C   UNL     1      86.754  52.642  44.969  0.00  0.00    +0.037 A 
ATOM     13  C   UNL     1      86.654  52.198  46.338  0.00  0.00    -0.006 A 
ATOM     14  C   UNL     1      85.940  53.004  47.291  0.00  0.00    -0.004 A 
ATOM     15  C   UNL     1      85.803  52.573  48.620  0.00  0.00    -0.053 A 
ATOM     16  C   UNL     1      86.367  51.367  49.031  0.00  0.00    -0.061 A 
ATOM     17  C   UNL     1      87.074  50.582  48.127  0.00  0.00    -0.061 A 
ATOM     18  C   UNL     1      87.220  50.987  46.798  0.00  0.00    -0.053 A 
ATOM     19  C   UNL     1      87.368  51.927  43.914  0.00  0.00    +0.175 A 
ATOM     20  C   UNL     1      87.403  52.407  42.635  0.00  0.00    +0.167 A 
ATOM     21  C   UNL     1      86.837  53.624  42.272  0.00  0.00    -0.012 A 
ATOM     22  O   UNL     1      88.062  51.514  41.813  0.00  0.00    -0.453 OA
ATOM     23  C   UNL     1      88.468  50.397  42.608  0.00  0.00    +0.233 C 
ATOM     24  O   UNL     1      88.008  50.701  43.928  0.00  0.00    -0.452 OA
ENDROOT
TORSDOF 0
ENDMDL
MODEL 7
REMARK VINA RESULT:    -9.432      3.945      7.025
REMARK INTER + INTRA:          -9.432
REMARK INTER:                  -9.432
REMARK INTRA:                   0.000
REMARK UNBOUND:                 0.000
REMARK  Name = 
REMARK  0 active torsions:
REMARK  status: ('A' for Active; 'I' for Inactive)
REMARK                            x       y       z     vdW  Elec       q    Type
REMARK                         _______ _______ _______ _____ _____    ______ ____
ROOT
ATOM      1  O   UNL     1      86.118  54.726  42.362  0.00  0.00    -0.266 OA
ATOM      2  C   UNL     1      86.371  53.493  42.318  0.00  0.00    +0.291 C 
ATOM      3  C   UNL     1      87.667  52.896  42.013  0.00  0.00    +0.250 C 
ATOM      4  O   UNL     1      88.720  53.513  41.707  0.00  0.00    -0.282 OA
ATOM      5  C   UNL     1      87.495  51.447  42.193  0.00  0.00    +0.057 A 
ATOM      6  C   UNL     1      86.181  51.267  42.554  0.00  0.00    +0.056 A 
ATOM      7  N   UNL     1      85.427  52.467  42.609  0.00  0.00    -0.263 N 
ATOM      8  C   UNL     1      84.216  52.556  43.416  0.00  0.00    +0.024 C 
ATOM      9  C   UNL     1      83.434  51.223  43.339  0.00  0.00    -0.011 C 
ATOM     10  C   UNL     1      84.334  49.995  43.418  0.00  0.00    -0.033 A 
ATOM     11  C   UNL     1      85.681  50.052  42.969  0.00  0.00    +0.012 A 
ATOM     12  C   UNL     1      86.541  48.913  42.967  0.00  0.00    +0.037 A 
ATOM     13  C   UNL     1      87.909  49.065  42.537  0.00  0.00    -0.006 A 
ATOM     14  C   UNL     1      88.390  50.367  42.160  0.00  0.00    -0.004 A 
ATOM     15  C   UNL     1      89.728  50.542  41.772  0.00  0.00    -0.053 A 
ATOM     16  C   UNL     1      90.599  49.454  41.737  0.00  0.00    -0.061 A 
ATOM     17  C   UNL     1      90.147  48.185  42.083  0.00  0.00    -0.061 A 
ATOM     18  C   UNL     1      88.822  47.987  42.478  0.00  0.00    -0.053 A 
ATOM     19  C   UNL     1      85.950  47.712  43.424  0.00  0.00    +0.175 A 
ATOM     20  C   UNL     1      84.648  47.654  43.835  0.00  0.00    +0.167 A 
ATOM     21  C   UNL     1      83.810  48.764  43.842  0.00  0.00    -0.012 A 
ATOM     22  O   UNL     1      84.332  46.367  44.225  0.00  0.00    -0.453 OA
ATOM     23  C   UNL     1      85.498  45.556  44.059  0.00  0.00    +0.233 C 
ATOM     24  O   UNL     1      86.495  46.447  43.552  0.00  0.00    -0.452 OA
ENDROOT
TORSDOF 0
ENDMDL
MODEL 8
REMARK VINA RESULT:    -9.382      2.103      5.302
REMARK INTER + INTRA:          -9.382
REMARK INTER:                  -9.382
REMARK INTRA:                   0.000
REMARK UNBOUND:                 0.000
REMARK  Name = 
REMARK  0 active torsions:
REMARK  status: ('A' for Active; 'I' for Inactive)
REMARK                            x       y       z     vdW  Elec       q    Type
REMARK                         _______ _______ _______ _____ _____    ______ ____
ROOT
ATOM      1  O   UNL     1      87.978  50.660  40.416  0.00  0.00    -0.266 OA
ATOM      2  C   UNL     1      87.576  51.422  41.335  0.00  0.00    +0.291 C 
ATOM      3  C   UNL     1      86.845  52.673  41.152  0.00  0.00    +0.250 C 
ATOM      4  O   UNL     1      86.539  53.203  40.053  0.00  0.00    -0.282 OA
ATOM      5  C   UNL     1      86.501  53.138  42.502  0.00  0.00    +0.057 A 
ATOM      6  C   UNL     1      87.029  52.210  43.366  0.00  0.00    +0.056 A 
ATOM      7  N   UNL     1      87.734  51.159  42.725  0.00  0.00    -0.263 N 
ATOM      8  C   UNL     1      87.928  49.873  43.385  0.00  0.00    +0.024 C 
ATOM      9  C   UNL     1      88.187  50.091  44.895  0.00  0.00    -0.011 C 
ATOM     10  C   UNL     1      87.283  51.155  45.511  0.00  0.00    -0.033 A 
ATOM     11  C   UNL     1      86.771  52.218  44.720  0.00  0.00    +0.012 A 
ATOM     12  C   UNL     1      85.973  53.268  45.266  0.00  0.00    +0.037 A 
ATOM     13  C   UNL     1      85.455  54.287  44.387  0.00  0.00    -0.006 A 
ATOM     14  C   UNL     1      85.716  54.201  42.975  0.00  0.00    -0.004 A 
ATOM     15  C   UNL     1      85.191  55.165  42.099  0.00  0.00    -0.053 A 
ATOM     16  C   UNL     1      84.423  56.219  42.589  0.00  0.00    -0.061 A 
ATOM     17  C   UNL     1      84.172  56.326  43.953  0.00  0.00    -0.061 A 
ATOM     18  C   UNL     1      84.679  55.377  44.844  0.00  0.00    -0.053 A 
ATOM     19  C   UNL     1      85.746  53.189  46.659  0.00  0.00    +0.175 A 
ATOM     20  C   UNL     1      86.257  52.176  47.422  0.00  0.00    +0.167 A 
ATOM     21  C   UNL     1      87.030  51.150  46.892  0.00  0.00    -0.012 A 
ATOM     22  O   UNL     1      85.884  52.344  48.742  0.00  0.00    -0.453 OA
ATOM     23  C   UNL     1      85.085  53.527  48.829  0.00  0.00    +0.233 C 
ATOM     24  O   UNL     1      85.024  54.027  47.490  0.00  0.00    -0.452 OA
ENDROOT
TORSDOF 0
ENDMDL
MODEL 9
REMARK VINA RESULT:    -9.355      4.748      8.150
REMARK INTER + INTRA:          -9.355
REMARK INTER:                  -9.355
REMARK INTRA:                   0.000
REMARK UNBOUND:                 0.000
REMARK  Name = 
REMARK  0 active torsions:
REMARK  status: ('A' for Active; 'I' for Inactive)
REMARK                            x       y       z     vdW  Elec       q    Type
REMARK                         _______ _______ _______ _____ _____    ______ ____
ROOT
ATOM      1  O   UNL     1      88.224  51.355  43.738  0.00  0.00    -0.266 OA
ATOM      2  C   UNL     1      87.439  50.401  43.493  0.00  0.00    +0.291 C 
ATOM      3  C   UNL     1      87.829  49.037  43.148  0.00  0.00    +0.250 C 
ATOM      4  O   UNL     1      89.004  48.613  43.001  0.00  0.00    -0.282 OA
ATOM      5  C   UNL     1      86.578  48.270  43.068  0.00  0.00    +0.057 A 
ATOM      6  C   UNL     1      85.570  49.164  43.334  0.00  0.00    +0.056 A 
ATOM      7  N   UNL     1      86.019  50.490  43.560  0.00  0.00    -0.263 N 
ATOM      8  C   UNL     1      85.208  51.439  44.315  0.00  0.00    +0.024 C 
ATOM      9  C   UNL     1      83.711  51.238  43.974  0.00  0.00    -0.011 C 
ATOM     10  C   UNL     1      83.310  49.770  43.881  0.00  0.00    -0.033 A 
ATOM     11  C   UNL     1      84.259  48.780  43.510  0.00  0.00    +0.012 A 
ATOM     12  C   UNL     1      83.913  47.404  43.351  0.00  0.00    +0.037 A 
ATOM     13  C   UNL     1      84.945  46.454  43.015  0.00  0.00    -0.006 A 
ATOM     14  C   UNL     1      86.305  46.904  42.890  0.00  0.00    -0.004 A 
ATOM     15  C   UNL     1      87.329  45.989  42.598  0.00  0.00    -0.053 A 
ATOM     16  C   UNL     1      87.036  44.639  42.415  0.00  0.00    -0.061 A 
ATOM     17  C   UNL     1      85.724  44.188  42.517  0.00  0.00    -0.061 A 
ATOM     18  C   UNL     1      84.689  45.078  42.812  0.00  0.00    -0.053 A 
ATOM     19  C   UNL     1      82.550  47.097  43.567  0.00  0.00    +0.175 A 
ATOM     20  C   UNL     1      81.634  48.054  43.903  0.00  0.00    +0.167 A 
ATOM     21  C   UNL     1      81.969  49.394  44.063  0.00  0.00    -0.012 A 
ATOM     22  O   UNL     1      80.385  47.483  44.051  0.00  0.00    -0.453 OA
ATOM     23  C   UNL     1      80.508  46.080  43.800  0.00  0.00    +0.233 C 
ATOM     24  O   UNL     1      81.892  45.882  43.499  0.00  0.00    -0.452 OA
ENDROOT
TORSDOF 0
ENDMDL
