MODEL 1
REMARK VINA RESULT:    -9.896      0.000      0.000
REMARK INTER + INTRA:          -9.896
REMARK INTER:                  -9.896
REMARK INTRA:                   0.000
REMARK UNBOUND:                 0.000
REMARK  Name = 
REMARK  0 active torsions:
REMARK  status: ('A' for Active; 'I' for Inactive)
REMARK                            x       y       z     vdW  Elec       q    Type
REMARK                         _______ _______ _______ _____ _____    ______ ____
ROOT
ATOM      1  O   UNL     1      84.907  55.701  41.367  0.00  0.00    -0.266 OA
ATOM      2  C   UNL     1      85.172  55.302  42.532  0.00  0.00    +0.291 C 
ATOM      3  C   UNL     1      84.597  55.823  43.768  0.00  0.00    +0.250 C 
ATOM      4  O   UNL     1      83.780  56.775  43.866  0.00  0.00    -0.282 OA
ATOM      5  C   UNL     1      85.122  54.974  44.845  0.00  0.00    +0.057 A 
ATOM      6  C   UNL     1      85.948  54.060  44.236  0.00  0.00    +0.056 A 
ATOM      7  N   UNL     1      86.058  54.228  42.832  0.00  0.00    -0.263 N 
ATOM      8  C   UNL     1      86.458  53.119  41.973  0.00  0.00    +0.024 C 
ATOM      9  C   UNL     1      87.543  52.272  42.679  0.00  0.00    -0.011 C 
ATOM     10  C   UNL     1      87.257  52.046  44.160  0.00  0.00    -0.033 A 
ATOM     11  C   UNL     1      86.500  52.990  44.905  0.00  0.00    +0.012 A 
ATOM     12  C   UNL     1      86.259  52.851  46.305  0.00  0.00    +0.037 A 
ATOM     13  C   UNL     1      85.442  53.829  46.979  0.00  0.00    -0.006 A 
ATOM     14  C   UNL     1      84.853  54.899  46.221  0.00  0.00    -0.004 A 
ATOM     15  C   UNL     1      84.027  55.842  46.853  0.00  0.00    -0.053 A 
ATOM     16  C   UNL     1      83.780  55.757  48.222  0.00  0.00    -0.061 A 
ATOM     17  C   UNL     1      84.354  54.738  48.974  0.00  0.00    -0.061 A 
ATOM     18  C   UNL     1      85.175  53.785  48.367  0.00  0.00    -0.053 A 
ATOM     19  C   UNL     1      86.850  51.715  46.907  0.00  0.00    +0.175 A 
ATOM     20  C   UNL     1      87.595  50.819  46.192  0.00  0.00    +0.167 A 
ATOM     21  C   UNL     1      87.827  50.951  44.828  0.00  0.00    -0.012 A 
ATOM     22  O   UNL     1      88.050  49.814  47.024  0.00  0.00    -0.453 OA
ATOM     23  C   UNL     1      87.565  50.076  48.343  0.00  0.00    +0.233 C 
ATOM     24  O   UNL     1      86.810  51.286  48.221  0.00  0.00    -0.452 OA
ENDROOT
TORSDOF 0
ENDMDL
MODEL 2
REMARK VINA RESULT:    -9.730      2.424      5.461
REMARK INTER + INTRA:          -9.730
REMARK INTER:                  -9.730
REMARK INTRA:                   0.000
REMARK UNBOUND:                 0.000
REMARK  Name = 
REMARK  0 active torsions:
REMARK  status: ('A' for Active; 'I' for Inactive)
REMARK                            x       y       z     vdW  Elec       q    Type
REMARK                         _______ _______ _______ _____ _____    ______ ____
ROOT
ATOM      1  O   UNL     1      86.496  53.665  39.535  0.00  0.00    -0.266 OA
ATOM      2  C   UNL     1      86.817  52.858  40.447  0.00  0.00    +0.291 C 
ATOM      3  C   UNL     1      87.843  51.824  40.353  0.00  0.00    +0.250 C 
ATOM      4  O   UNL     1      88.537  51.552  39.339  0.00  0.00    -0.282 OA
ATOM      5  C   UNL     1      87.930  51.221  41.690  0.00  0.00    +0.057 A 
ATOM      6  C   UNL     1      86.995  51.873  42.458  0.00  0.00    +0.056 A 
ATOM      7  N   UNL     1      86.251  52.854  41.754  0.00  0.00    -0.263 N 
ATOM      8  C   UNL     1      85.598  53.951  42.459  0.00  0.00    +0.024 C 
ATOM      9  C   UNL     1      85.020  53.442  43.802  0.00  0.00    -0.011 C 
ATOM     10  C   UNL     1      85.960  52.493  44.537  0.00  0.00    -0.033 A 
ATOM     11  C   UNL     1      86.893  51.695  43.821  0.00  0.00    +0.012 A 
ATOM     12  C   UNL     1      87.748  50.749  44.461  0.00  0.00    +0.037 A 
ATOM     13  C   UNL     1      88.699  50.010  43.667  0.00  0.00    -0.006 A 
ATOM     14  C   UNL     1      88.795  50.272  42.256  0.00  0.00    -0.004 A 
ATOM     15  C   UNL     1      89.739  49.588  41.473  0.00  0.00    -0.053 A 
ATOM     16  C   UNL     1      90.581  48.641  42.052  0.00  0.00    -0.061 A 
ATOM     17  C   UNL     1      90.492  48.364  43.412  0.00  0.00    -0.061 A 
ATOM     18  C   UNL     1      89.566  49.035  44.213  0.00  0.00    -0.053 A 
ATOM     19  C   UNL     1      87.586  50.643  45.862  0.00  0.00    +0.175 A 
ATOM     20  C   UNL     1      86.674  51.396  46.547  0.00  0.00    +0.167 A 
ATOM     21  C   UNL     1      85.843  52.321  45.925  0.00  0.00    -0.012 A 
ATOM     22  O   UNL     1      86.726  51.092  47.893  0.00  0.00    -0.453 OA
ATOM     23  C   UNL     1      87.730  50.092  48.083  0.00  0.00    +0.233 C 
ATOM     24  O   UNL     1      88.248  49.840  46.774  0.00  0.00    -0.452 OA
ENDROOT
TORSDOF 0
ENDMDL
MODEL 3
REMARK VINA RESULT:    -9.698      2.035      3.992
REMARK INTER + INTRA:          -9.698
REMARK INTER:                  -9.698
REMARK INTRA:                   0.000
REMARK UNBOUND:                 0.000
REMARK  Name = 
REMARK  0 active torsions:
REMARK  status: ('A' for Active; 'I' for Inactive)
REMARK                            x       y       z     vdW  Elec       q    Type
REMARK                         _______ _______ _______ _____ _____    ______ ____
ROOT
ATOM      1  O   UNL     1      83.356  56.962  46.966  0.00  0.00    -0.266 OA
ATOM      2  C   UNL     1      84.182  56.024  46.818  0.00  0.00    +0.291 C 
ATOM      3  C   UNL     1      84.527  55.020  47.820  0.00  0.00    +0.250 C 
ATOM      4  O   UNL     1      84.087  54.960  48.998  0.00  0.00    -0.282 OA
ATOM      5  C   UNL     1      85.437  54.081  47.152  0.00  0.00    +0.057 A 
ATOM      6  C   UNL     1      85.593  54.554  45.871  0.00  0.00    +0.056 A 
ATOM      7  N   UNL     1      84.890  55.758  45.611  0.00  0.00    -0.263 N 
ATOM      8  C   UNL     1      84.530  56.138  44.250  0.00  0.00    +0.024 C 
ATOM      9  C   UNL     1      85.670  55.750  43.277  0.00  0.00    -0.011 C 
ATOM     10  C   UNL     1      86.268  54.379  43.571  0.00  0.00    -0.033 A 
ATOM     11  C   UNL     1      86.251  53.847  44.889  0.00  0.00    +0.012 A 
ATOM     12  C   UNL     1      86.853  52.596  45.222  0.00  0.00    +0.037 A 
ATOM     13  C   UNL     1      86.752  52.104  46.574  0.00  0.00    -0.006 A 
ATOM     14  C   UNL     1      86.012  52.862  47.547  0.00  0.00    -0.004 A 
ATOM     15  C   UNL     1      85.873  52.383  48.860  0.00  0.00    -0.053 A 
ATOM     16  C   UNL     1      86.461  51.177  49.235  0.00  0.00    -0.061 A 
ATOM     17  C   UNL     1      87.192  50.438  48.311  0.00  0.00    -0.061 A 
ATOM     18  C   UNL     1      87.340  50.891  46.998  0.00  0.00    -0.053 A 
ATOM     19  C   UNL     1      87.491  51.931  44.149  0.00  0.00    +0.175 A 
ATOM     20  C   UNL     1      87.525  52.455  42.887  0.00  0.00    +0.167 A 
ATOM     21  C   UNL     1      86.936  53.670  42.560  0.00  0.00    -0.012 A 
ATOM     22  O   UNL     1      88.210  51.604  42.041  0.00  0.00    -0.453 OA
ATOM     23  C   UNL     1      88.634  50.470  42.801  0.00  0.00    +0.233 C 
ATOM     24  O   UNL     1      88.157  50.719  44.127  0.00  0.00    -0.452 OA
ENDROOT
TORSDOF 0
ENDMDL
MODEL 4
REMARK VINA RESULT:    -9.689      3.970      5.319
REMARK INTER + INTRA:          -9.689
REMARK INTER:                  -9.689
REMARK INTRA:                   0.000
REMARK UNBOUND:                 0.000
REMARK  Name = 
REMARK  0 active torsions:
REMARK  status: ('A' for Active; 'I' for Inactive)
REMARK                            x       y       z     vdW  Elec       q    Type
REMARK                         _______ _______ _______ _____ _____    ______ ____
ROOT
ATOM      1  O   UNL     1      84.955  56.058  41.985  0.00  0.00    -0.266 OA
ATOM      2  C   UNL     1      84.921  54.833  42.275  0.00  0.00    +0.291 C 
ATOM      3  C   UNL     1      86.005  54.066  42.881  0.00  0.00    +0.250 C 
ATOM      4  O   UNL     1      87.151  54.496  43.170  0.00  0.00    -0.282 OA
ATOM      5  C   UNL     1      85.458  52.725  43.130  0.00  0.00    +0.057 A 
ATOM      6  C   UNL     1      84.163  52.755  42.670  0.00  0.00    +0.056 A 
ATOM      7  N   UNL     1      83.782  53.996  42.098  0.00  0.00    -0.263 N 
ATOM      8  C   UNL     1      82.379  54.384  42.013  0.00  0.00    +0.024 C 
ATOM      9  C   UNL     1      81.511  53.147  41.682  0.00  0.00    -0.011 C 
ATOM     10  C   UNL     1      81.929  51.898  42.452  0.00  0.00    -0.033 A 
ATOM     11  C   UNL     1      83.273  51.725  42.880  0.00  0.00    +0.012 A 
ATOM     12  C   UNL     1      83.722  50.547  43.548  0.00  0.00    +0.037 A 
ATOM     13  C   UNL     1      85.092  50.468  43.990  0.00  0.00    -0.006 A 
ATOM     14  C   UNL     1      85.965  51.593  43.787  0.00  0.00    -0.004 A 
ATOM     15  C   UNL     1      87.293  51.549  44.241  0.00  0.00    -0.053 A 
ATOM     16  C   UNL     1      87.781  50.411  44.881  0.00  0.00    -0.061 A 
ATOM     17  C   UNL     1      86.955  49.309  45.073  0.00  0.00    -0.061 A 
ATOM     18  C   UNL     1      85.630  49.330  44.635  0.00  0.00    -0.053 A 
ATOM     19  C   UNL     1      82.737  49.549  43.735  0.00  0.00    +0.175 A 
ATOM     20  C   UNL     1      81.450  49.708  43.304  0.00  0.00    +0.167 A 
ATOM     21  C   UNL     1      81.010  50.857  42.657  0.00  0.00    -0.012 A 
ATOM     22  O   UNL     1      80.706  48.586  43.613  0.00  0.00    -0.453 OA
ATOM     23  C   UNL     1      81.562  47.658  44.284  0.00  0.00    +0.233 C 
ATOM     24  O   UNL     1      82.835  48.308  44.340  0.00  0.00    -0.452 OA
ENDROOT
TORSDOF 0
ENDMDL
MODEL 5
REMARK VINA RESULT:    -9.563      1.870      5.261
REMARK INTER + INTRA:          -9.563
REMARK INTER:                  -9.563
REMARK INTRA:                   0.000
REMARK UNBOUND:                 0.000
REMARK  Name = 
REMARK  0 active torsions:
REMARK  status: ('A' for Active; 'I' for Inactive)
REMARK                            x       y       z     vdW  Elec       q    Type
REMARK                         _______ _______ _______ _____ _____    ______ ____
ROOT
ATOM      1  O   UNL     1      86.329  51.449  48.088  0.00  0.00    -0.266 OA
ATOM      2  C   UNL     1      85.940  52.278  47.224  0.00  0.00    +0.291 C 
ATOM      3  C   UNL     1      85.808  53.719  47.417  0.00  0.00    +0.250 C 
ATOM      4  O   UNL     1      86.023  54.351  48.484  0.00  0.00    -0.282 OA
ATOM      5  C   UNL     1      85.434  54.268  46.106  0.00  0.00    +0.057 A 
ATOM      6  C   UNL     1      85.349  53.191  45.258  0.00  0.00    +0.056 A 
ATOM      7  N   UNL     1      85.603  51.943  45.881  0.00  0.00    -0.263 N 
ATOM      8  C   UNL     1      86.037  50.789  45.102  0.00  0.00    +0.024 C 
ATOM      9  C   UNL     1      85.308  50.772  43.737  0.00  0.00    -0.011 C 
ATOM     10  C   UNL     1      85.204  52.152  43.096  0.00  0.00    -0.033 A 
ATOM     11  C   UNL     1      85.178  53.325  43.897  0.00  0.00    +0.012 A 
ATOM     12  C   UNL     1      85.021  54.631  43.344  0.00  0.00    +0.037 A 
ATOM     13  C   UNL     1      85.050  55.775  44.222  0.00  0.00    -0.006 A 
ATOM     14  C   UNL     1      85.279  55.579  45.628  0.00  0.00    -0.004 A 
ATOM     15  C   UNL     1      85.345  56.683  46.494  0.00  0.00    -0.053 A 
ATOM     16  C   UNL     1      85.178  57.975  46.002  0.00  0.00    -0.061 A 
ATOM     17  C   UNL     1      84.940  58.182  44.647  0.00  0.00    -0.061 A 
ATOM     18  C   UNL     1      84.875  57.101  43.766  0.00  0.00    -0.053 A 
ATOM     19  C   UNL     1      84.868  54.675  41.939  0.00  0.00    +0.175 A 
ATOM     20  C   UNL     1      84.873  53.544  41.172  0.00  0.00    +0.167 A 
ATOM     21  C   UNL     1      85.030  52.271  41.708  0.00  0.00    -0.012 A 
ATOM     22  O   UNL     1      84.705  53.875  39.841  0.00  0.00    -0.453 OA
ATOM     23  C   UNL     1      84.591  55.297  39.749  0.00  0.00    +0.233 C 
ATOM     24  O   UNL     1      84.702  55.761  41.098  0.00  0.00    -0.452 OA
ENDROOT
TORSDOF 0
ENDMDL
MODEL 6
REMARK VINA RESULT:    -9.402      2.097      3.574
REMARK INTER + INTRA:          -9.402
REMARK INTER:                  -9.402
REMARK INTRA:                   0.000
REMARK UNBOUND:                 0.000
REMARK  Name = 
REMARK  0 active torsions:
REMARK  status: ('A' for Active; 'I' for Inactive)
REMARK                            x       y       z     vdW  Elec       q    Type
REMARK                         _______ _______ _______ _____ _____    ______ ____
ROOT
ATOM      1  O   UNL     1      88.248  50.777  40.150  0.00  0.00    -0.266 OA
ATOM      2  C   UNL     1      87.883  51.379  41.195  0.00  0.00    +0.291 C 
ATOM      3  C   UNL     1      87.115  52.619  41.245  0.00  0.00    +0.250 C 
ATOM      4  O   UNL     1      86.732  53.299  40.258  0.00  0.00    -0.282 OA
ATOM      5  C   UNL     1      86.839  52.864  42.667  0.00  0.00    +0.057 A 
ATOM      6  C   UNL     1      87.438  51.832  43.349  0.00  0.00    +0.056 A 
ATOM      7  N   UNL     1      88.128  50.913  42.518  0.00  0.00    -0.263 N 
ATOM      8  C   UNL     1      88.390  49.549  42.963  0.00  0.00    +0.024 C 
ATOM      9  C   UNL     1      88.731  49.545  44.472  0.00  0.00    -0.011 C 
ATOM     10  C   UNL     1      87.841  50.474  45.290  0.00  0.00    -0.033 A 
ATOM     11  C   UNL     1      87.260  51.628  44.700  0.00  0.00    +0.012 A 
ATOM     12  C   UNL     1      86.471  52.558  45.443  0.00  0.00    +0.037 A 
ATOM     13  C   UNL     1      85.879  53.681  44.759  0.00  0.00    -0.006 A 
ATOM     14  C   UNL     1      86.059  53.818  43.339  0.00  0.00    -0.004 A 
ATOM     15  C   UNL     1      85.461  54.886  42.650  0.00  0.00    -0.053 A 
ATOM     16  C   UNL     1      84.699  55.829  43.336  0.00  0.00    -0.061 A 
ATOM     17  C   UNL     1      84.527  55.720  44.712  0.00  0.00    -0.061 A 
ATOM     18  C   UNL     1      85.107  54.665  45.419  0.00  0.00    -0.053 A 
ATOM     19  C   UNL     1      86.327  52.261  46.818  0.00  0.00    +0.175 A 
ATOM     20  C   UNL     1      86.905  51.162  47.388  0.00  0.00    +0.167 A 
ATOM     21  C   UNL     1      87.670  50.253  46.666  0.00  0.00    -0.012 A 
ATOM     22  O   UNL     1      86.606  51.117  48.736  0.00  0.00    -0.453 OA
ATOM     23  C   UNL     1      85.787  52.247  49.047  0.00  0.00    +0.233 C 
ATOM     24  O   UNL     1      85.636  52.941  47.805  0.00  0.00    -0.452 OA
ENDROOT
TORSDOF 0
ENDMDL
MODEL 7
REMARK VINA RESULT:    -9.256      4.247      7.525
REMARK INTER + INTRA:          -9.256
REMARK INTER:                  -9.256
REMARK INTRA:                   0.000
REMARK UNBOUND:                 0.000
REMARK  Name = 
REMARK  0 active torsions:
REMARK  status: ('A' for Active; 'I' for Inactive)
REMARK                            x       y       z     vdW  Elec       q    Type
REMARK                         _______ _______ _______ _____ _____    ______ ____
ROOT
ATOM      1  O   UNL     1      83.016  47.584  44.299  0.00  0.00    -0.266 OA
ATOM      2  C   UNL     1      84.178  47.968  44.001  0.00  0.00    +0.291 C 
ATOM      3  C   UNL     1      85.301  47.105  43.649  0.00  0.00    +0.250 C 
ATOM      4  O   UNL     1      85.296  45.847  43.627  0.00  0.00    -0.282 OA
ATOM      5  C   UNL     1      86.399  48.007  43.276  0.00  0.00    +0.057 A 
ATOM      6  C   UNL     1      85.911  49.281  43.434  0.00  0.00    +0.056 A 
ATOM      7  N   UNL     1      84.577  49.333  43.914  0.00  0.00    -0.263 N 
ATOM      8  C   UNL     1      83.741  50.506  43.685  0.00  0.00    +0.024 C 
ATOM      9  C   UNL     1      84.595  51.791  43.806  0.00  0.00    -0.011 C 
ATOM     10  C   UNL     1      85.963  51.666  43.142  0.00  0.00    -0.033 A 
ATOM     11  C   UNL     1      86.600  50.401  43.025  0.00  0.00    +0.012 A 
ATOM     12  C   UNL     1      87.905  50.246  42.468  0.00  0.00    +0.037 A 
ATOM     13  C   UNL     1      88.463  48.922  42.343  0.00  0.00    -0.006 A 
ATOM     14  C   UNL     1      87.679  47.785  42.743  0.00  0.00    -0.004 A 
ATOM     15  C   UNL     1      88.192  46.486  42.598  0.00  0.00    -0.053 A 
ATOM     16  C   UNL     1      89.469  46.287  42.076  0.00  0.00    -0.061 A 
ATOM     17  C   UNL     1      90.247  47.376  41.699  0.00  0.00    -0.061 A 
ATOM     18  C   UNL     1      89.757  48.677  41.829  0.00  0.00    -0.053 A 
ATOM     19  C   UNL     1      88.531  51.446  42.059  0.00  0.00    +0.175 A 
ATOM     20  C   UNL     1      87.925  52.664  42.192  0.00  0.00    +0.167 A 
ATOM     21  C   UNL     1      86.653  52.817  42.731  0.00  0.00    -0.012 A 
ATOM     22  O   UNL     1      88.757  53.660  41.718  0.00  0.00    -0.453 OA
ATOM     23  C   UNL     1      89.961  53.046  41.251  0.00  0.00    +0.233 C 
ATOM     24  O   UNL     1      89.774  51.647  41.485  0.00  0.00    -0.452 OA
ENDROOT
TORSDOF 0
ENDMDL
MODEL 8
REMARK VINA RESULT:    -9.227      2.337      3.984
REMARK INTER + INTRA:          -9.227
REMARK INTER:                  -9.227
REMARK INTRA:                   0.000
REMARK UNBOUND:                 0.000
REMARK  Name = 
REMARK  0 active torsions:
REMARK  status: ('A' for Active; 'I' for Inactive)
REMARK                            x       y       z     vdW  Elec       q    Type
REMARK                         _______ _______ _______ _____ _____    ______ ____
ROOT
ATOM      1  O   UNL     1      84.626  54.975  42.141  0.00  0.00    -0.266 OA
ATOM      2  C   UNL     1      85.414  54.160  42.687  0.00  0.00    +0.291 C 
ATOM      3  C   UNL     1      85.429  53.799  44.102  0.00  0.00    +0.250 C 
ATOM      4  O   UNL     1      84.686  54.274  45.000  0.00  0.00    -0.282 OA
ATOM      5  C   UNL     1      86.438  52.739  44.236  0.00  0.00    +0.057 A 
ATOM      6  C   UNL     1      86.954  52.549  42.977  0.00  0.00    +0.056 A 
ATOM      7  N   UNL     1      86.406  53.411  41.992  0.00  0.00    -0.263 N 
ATOM      8  C   UNL     1      86.444  53.054  40.579  0.00  0.00    +0.024 C 
ATOM      9  C   UNL     1      87.782  52.351  40.249  0.00  0.00    -0.011 C 
ATOM     10  C   UNL     1      88.212  51.350  41.317  0.00  0.00    -0.033 A 
ATOM     11  C   UNL     1      87.816  51.519  42.671  0.00  0.00    +0.012 A 
ATOM     12  C   UNL     1      88.244  50.643  43.713  0.00  0.00    +0.037 A 
ATOM     13  C   UNL     1      87.761  50.856  45.055  0.00  0.00    -0.006 A 
ATOM     14  C   UNL     1      86.825  51.919  45.307  0.00  0.00    -0.004 A 
ATOM     15  C   UNL     1      86.317  52.121  46.600  0.00  0.00    -0.053 A 
ATOM     16  C   UNL     1      86.722  51.302  47.652  0.00  0.00    -0.061 A 
ATOM     17  C   UNL     1      87.637  50.279  47.430  0.00  0.00    -0.061 A 
ATOM     18  C   UNL     1      88.154  50.055  46.152  0.00  0.00    -0.053 A 
ATOM     19  C   UNL     1      89.114  49.604  43.306  0.00  0.00    +0.175 A 
ATOM     20  C   UNL     1      89.511  49.456  42.007  0.00  0.00    +0.167 A 
ATOM     21  C   UNL     1      89.091  50.306  40.990  0.00  0.00    -0.012 A 
ATOM     22  O   UNL     1      90.355  48.369  41.891  0.00  0.00    -0.453 OA
ATOM     23  C   UNL     1      90.504  47.784  43.187  0.00  0.00    +0.233 C 
ATOM     24  O   UNL     1      89.701  48.596  44.050  0.00  0.00    -0.452 OA
ENDROOT
TORSDOF 0
ENDMDL
MODEL 9
REMARK VINA RESULT:    -9.150      2.022      4.862
REMARK INTER + INTRA:          -9.150
REMARK INTER:                  -9.150
REMARK INTRA:                   0.000
REMARK UNBOUND:                 0.000
REMARK  Name = 
REMARK  0 active torsions:
REMARK  status: ('A' for Active; 'I' for Inactive)
REMARK                            x       y       z     vdW  Elec       q    Type
REMARK                         _______ _______ _______ _____ _____    ______ ____
ROOT
ATOM      1  O   UNL     1      87.638  50.297  40.936  0.00  0.00    -0.266 OA
ATOM      2  C   UNL     1      87.186  50.735  42.026  0.00  0.00    +0.291 C 
ATOM      3  C   UNL     1      87.433  50.165  43.347  0.00  0.00    +0.250 C 
ATOM      4  O   UNL     1      88.101  49.129  43.599  0.00  0.00    -0.282 OA
ATOM      5  C   UNL     1      86.795  51.078  44.305  0.00  0.00    +0.057 A 
ATOM      6  C   UNL     1      86.220  52.072  43.551  0.00  0.00    +0.056 A 
ATOM      7  N   UNL     1      86.382  51.904  42.152  0.00  0.00    -0.263 N 
ATOM      8  C   UNL     1      86.292  53.041  41.244  0.00  0.00    +0.024 C 
ATOM      9  C   UNL     1      85.187  54.012  41.724  0.00  0.00    -0.011 C 
ATOM     10  C   UNL     1      85.187  54.219  43.235  0.00  0.00    -0.033 A 
ATOM     11  C   UNL     1      85.665  53.204  44.107  0.00  0.00    +0.012 A 
ATOM     12  C   UNL     1      85.627  53.330  45.528  0.00  0.00    +0.037 A 
ATOM     13  C   UNL     1      86.174  52.274  46.343  0.00  0.00    -0.006 A 
ATOM     14  C   UNL     1      86.783  51.136  45.708  0.00  0.00    -0.004 A 
ATOM     15  C   UNL     1      87.352  50.114  46.484  0.00  0.00    -0.053 A 
ATOM     16  C   UNL     1      87.321  50.184  47.875  0.00  0.00    -0.061 A 
ATOM     17  C   UNL     1      86.722  51.269  48.506  0.00  0.00    -0.061 A 
ATOM     18  C   UNL     1      86.154  52.302  47.756  0.00  0.00    -0.053 A 
ATOM     19  C   UNL     1      85.056  54.531  46.011  0.00  0.00    +0.175 A 
ATOM     20  C   UNL     1      84.577  55.497  45.170  0.00  0.00    +0.167 A 
ATOM     21  C   UNL     1      84.617  55.378  43.786  0.00  0.00    -0.012 A 
ATOM     22  O   UNL     1      84.076  56.555  45.904  0.00  0.00    -0.453 OA
ATOM     23  C   UNL     1      84.248  56.253  47.291  0.00  0.00    +0.233 C 
ATOM     24  O   UNL     1      84.872  54.966  47.311  0.00  0.00    -0.452 OA
ENDROOT
TORSDOF 0
ENDMDL
