MODEL 1
REMARK VINA RESULT:    -8.931      0.000      0.000
REMARK INTER + INTRA:          -8.931
REMARK INTER:                  -8.931
REMARK INTRA:                   0.000
REMARK UNBOUND:                 0.000
REMARK  Name = 
REMARK  0 active torsions:
REMARK  status: ('A' for Active; 'I' for Inactive)
REMARK                            x       y       z     vdW  Elec       q    Type
REMARK                         _______ _______ _______ _____ _____    ______ ____
ROOT
ATOM      1  O   UNL     1      87.828  53.055  40.851  0.00  0.00    -0.285 OA
ATOM      2  C   UNL     1      87.739  52.593  42.021  0.00  0.00    +0.212 C 
ATOM      3  C   UNL     1      88.347  51.291  42.366  0.00  0.00    +0.032 A 
ATOM      4  C   UNL     1      89.033  50.557  41.380  0.00  0.00    -0.050 A 
ATOM      5  C   UNL     1      89.610  49.329  41.689  0.00  0.00    -0.061 A 
ATOM      6  C   UNL     1      89.511  48.820  42.980  0.00  0.00    -0.061 A 
ATOM      7  C   UNL     1      88.834  49.535  43.971  0.00  0.00    -0.053 A 
ATOM      8  C   UNL     1      88.237  50.786  43.686  0.00  0.00    -0.003 A 
ATOM      9  C   UNL     1      87.496  51.596  44.722  0.00  0.00    +0.038 A 
ATOM     10  C   UNL     1      86.917  52.853  44.362  0.00  0.00    +0.023 A 
ATOM     11  C   UNL     1      87.025  53.355  43.051  0.00  0.00    +0.119 A 
ATOM     12  N   UNL     1      86.467  54.554  42.730  0.00  0.00    -0.251 NA
ATOM     13  C   UNL     1      85.794  55.307  43.636  0.00  0.00    +0.029 A 
ATOM     14  C   UNL     1      85.654  54.862  44.949  0.00  0.00    -0.036 A 
ATOM     15  C   UNL     1      86.211  53.635  45.325  0.00  0.00    -0.010 A 
ATOM     16  C   UNL     1      86.076  53.177  46.646  0.00  0.00    -0.008 A 
ATOM     17  C   UNL     1      86.644  51.957  46.973  0.00  0.00    +0.167 A 
ATOM     18  C   UNL     1      87.321  51.196  46.066  0.00  0.00    +0.175 A 
ATOM     19  O   UNL     1      87.756  50.051  46.712  0.00  0.00    -0.452 OA
ATOM     20  C   UNL     1      87.334  50.095  48.080  0.00  0.00    +0.233 C 
ATOM     21  O   UNL     1      86.627  51.330  48.203  0.00  0.00    -0.453 OA
ENDROOT
TORSDOF 0
ENDMDL
MODEL 2
REMARK VINA RESULT:    -8.833      2.401      6.400
REMARK INTER + INTRA:          -8.833
REMARK INTER:                  -8.833
REMARK INTRA:                   0.000
REMARK UNBOUND:                 0.000
REMARK  Name = 
REMARK  0 active torsions:
REMARK  status: ('A' for Active; 'I' for Inactive)
REMARK                            x       y       z     vdW  Elec       q    Type
REMARK                         _______ _______ _______ _____ _____    ______ ____
ROOT
ATOM      1  O   UNL     1      86.583  51.077  48.159  0.00  0.00    -0.285 OA
ATOM      2  C   UNL     1      86.253  51.939  47.299  0.00  0.00    +0.212 C 
ATOM      3  C   UNL     1      85.398  53.084  47.669  0.00  0.00    +0.032 A 
ATOM      4  C   UNL     1      84.945  53.219  48.995  0.00  0.00    -0.050 A 
ATOM      5  C   UNL     1      84.138  54.293  49.360  0.00  0.00    -0.061 A 
ATOM      6  C   UNL     1      83.775  55.242  48.410  0.00  0.00    -0.061 A 
ATOM      7  C   UNL     1      84.216  55.125  47.090  0.00  0.00    -0.053 A 
ATOM      8  C   UNL     1      85.037  54.044  46.690  0.00  0.00    -0.003 A 
ATOM      9  C   UNL     1      85.538  53.874  45.277  0.00  0.00    +0.038 A 
ATOM     10  C   UNL     1      86.365  52.756  44.945  0.00  0.00    +0.023 A 
ATOM     11  C   UNL     1      86.724  51.802  45.916  0.00  0.00    +0.119 A 
ATOM     12  N   UNL     1      87.512  50.745  45.579  0.00  0.00    -0.251 NA
ATOM     13  C   UNL     1      87.979  50.562  44.318  0.00  0.00    +0.029 A 
ATOM     14  C   UNL     1      87.658  51.472  43.313  0.00  0.00    -0.036 A 
ATOM     15  C   UNL     1      86.850  52.574  43.614  0.00  0.00    -0.010 A 
ATOM     16  C   UNL     1      86.519  53.499  42.610  0.00  0.00    -0.008 A 
ATOM     17  C   UNL     1      85.718  54.575  42.953  0.00  0.00    +0.167 A 
ATOM     18  C   UNL     1      85.245  54.763  44.218  0.00  0.00    +0.175 A 
ATOM     19  O   UNL     1      84.484  55.920  44.219  0.00  0.00    -0.452 OA
ATOM     20  C   UNL     1      84.479  56.480  42.902  0.00  0.00    +0.233 C 
ATOM     21  O   UNL     1      85.279  55.589  42.124  0.00  0.00    -0.453 OA
ENDROOT
TORSDOF 0
ENDMDL
MODEL 3
REMARK VINA RESULT:    -8.786      2.415      5.097
REMARK INTER + INTRA:          -8.786
REMARK INTER:                  -8.786
REMARK INTRA:                   0.000
REMARK UNBOUND:                 0.000
REMARK  Name = 
REMARK  0 active torsions:
REMARK  status: ('A' for Active; 'I' for Inactive)
REMARK                            x       y       z     vdW  Elec       q    Type
REMARK                         _______ _______ _______ _____ _____    ______ ____
ROOT
ATOM      1  O   UNL     1      85.045  53.933  49.181  0.00  0.00    -0.285 OA
ATOM      2  C   UNL     1      85.421  53.732  47.994  0.00  0.00    +0.212 C 
ATOM      3  C   UNL     1      86.181  52.517  47.639  0.00  0.00    +0.032 A 
ATOM      4  C   UNL     1      86.490  51.570  48.634  0.00  0.00    -0.050 A 
ATOM      5  C   UNL     1      87.205  50.419  48.316  0.00  0.00    -0.061 A 
ATOM      6  C   UNL     1      87.620  50.200  47.006  0.00  0.00    -0.061 A 
ATOM      7  C   UNL     1      87.323  51.128  46.006  0.00  0.00    -0.053 A 
ATOM      8  C   UNL     1      86.597  52.307  46.300  0.00  0.00    -0.003 A 
ATOM      9  C   UNL     1      86.251  53.339  45.255  0.00  0.00    +0.038 A 
ATOM     10  C   UNL     1      85.515  54.507  45.625  0.00  0.00    +0.023 A 
ATOM     11  C   UNL     1      85.102  54.716  46.954  0.00  0.00    +0.119 A 
ATOM     12  N   UNL     1      84.401  55.835  47.285  0.00  0.00    -0.251 NA
ATOM     13  C   UNL     1      84.074  56.783  46.371  0.00  0.00    +0.029 A 
ATOM     14  C   UNL     1      84.455  56.632  45.039  0.00  0.00    -0.036 A 
ATOM     15  C   UNL     1      85.177  55.497  44.653  0.00  0.00    -0.010 A 
ATOM     16  C   UNL     1      85.567  55.334  43.314  0.00  0.00    -0.008 A 
ATOM     17  C   UNL     1      86.279  54.195  42.977  0.00  0.00    +0.167 A 
ATOM     18  C   UNL     1      86.611  53.240  43.892  0.00  0.00    +0.175 A 
ATOM     19  O   UNL     1      87.315  52.246  43.232  0.00  0.00    -0.452 OA
ATOM     20  C   UNL     1      87.429  52.591  41.848  0.00  0.00    +0.233 C 
ATOM     21  O   UNL     1      86.754  53.845  41.728  0.00  0.00    -0.453 OA
ENDROOT
TORSDOF 0
ENDMDL
MODEL 4
REMARK VINA RESULT:    -8.599      2.246      5.961
REMARK INTER + INTRA:          -8.599
REMARK INTER:                  -8.599
REMARK INTRA:                   0.000
REMARK UNBOUND:                 0.000
REMARK  Name = 
REMARK  0 active torsions:
REMARK  status: ('A' for Active; 'I' for Inactive)
REMARK                            x       y       z     vdW  Elec       q    Type
REMARK                         _______ _______ _______ _____ _____    ______ ____
ROOT
ATOM      1  O   UNL     1      85.707  54.248  48.497  0.00  0.00    -0.285 OA
ATOM      2  C   UNL     1      86.085  53.960  47.329  0.00  0.00    +0.212 C 
ATOM      3  C   UNL     1      86.067  54.978  46.258  0.00  0.00    +0.032 A 
ATOM      4  C   UNL     1      85.625  56.283  46.542  0.00  0.00    -0.050 A 
ATOM      5  C   UNL     1      85.602  57.254  45.544  0.00  0.00    -0.061 A 
ATOM      6  C   UNL     1      86.019  56.934  44.255  0.00  0.00    -0.061 A 
ATOM      7  C   UNL     1      86.461  55.643  43.956  0.00  0.00    -0.053 A 
ATOM      8  C   UNL     1      86.495  54.636  44.950  0.00  0.00    -0.003 A 
ATOM      9  C   UNL     1      86.965  53.229  44.676  0.00  0.00    +0.038 A 
ATOM     10  C   UNL     1      86.971  52.263  45.730  0.00  0.00    +0.023 A 
ATOM     11  C   UNL     1      86.547  52.601  47.029  0.00  0.00    +0.119 A 
ATOM     12  N   UNL     1      86.562  51.666  48.018  0.00  0.00    -0.251 NA
ATOM     13  C   UNL     1      86.977  50.392  47.806  0.00  0.00    +0.029 A 
ATOM     14  C   UNL     1      87.409  49.998  46.541  0.00  0.00    -0.036 A 
ATOM     15  C   UNL     1      87.411  50.925  45.494  0.00  0.00    -0.010 A 
ATOM     16  C   UNL     1      87.844  50.540  44.214  0.00  0.00    -0.008 A 
ATOM     17  C   UNL     1      87.829  51.491  43.208  0.00  0.00    +0.167 A 
ATOM     18  C   UNL     1      87.413  52.773  43.416  0.00  0.00    +0.175 A 
ATOM     19  O   UNL     1      87.522  53.455  42.216  0.00  0.00    -0.452 OA
ATOM     20  C   UNL     1      88.029  52.566  41.214  0.00  0.00    +0.233 C 
ATOM     21  O   UNL     1      88.210  51.321  41.891  0.00  0.00    -0.453 OA
ENDROOT
TORSDOF 0
ENDMDL
MODEL 5
REMARK VINA RESULT:    -8.550      3.381      5.874
REMARK INTER + INTRA:          -8.550
REMARK INTER:                  -8.550
REMARK INTRA:                   0.000
REMARK UNBOUND:                 0.000
REMARK  Name = 
REMARK  0 active torsions:
REMARK  status: ('A' for Active; 'I' for Inactive)
REMARK                            x       y       z     vdW  Elec       q    Type
REMARK                         _______ _______ _______ _____ _____    ______ ____
ROOT
ATOM      1  O   UNL     1      85.476  51.042  44.652  0.00  0.00    -0.285 OA
ATOM      2  C   UNL     1      85.345  52.275  44.882  0.00  0.00    +0.212 C 
ATOM      3  C   UNL     1      85.461  52.803  46.256  0.00  0.00    +0.032 A 
ATOM      4  C   UNL     1      85.720  51.922  47.323  0.00  0.00    -0.050 A 
ATOM      5  C   UNL     1      85.833  52.404  48.625  0.00  0.00    -0.061 A 
ATOM      6  C   UNL     1      85.688  53.764  48.876  0.00  0.00    -0.061 A 
ATOM      7  C   UNL     1      85.430  54.652  47.830  0.00  0.00    -0.053 A 
ATOM      8  C   UNL     1      85.311  54.192  46.497  0.00  0.00    -0.003 A 
ATOM      9  C   UNL     1      85.034  55.112  45.333  0.00  0.00    +0.038 A 
ATOM     10  C   UNL     1      84.926  54.575  44.013  0.00  0.00    +0.023 A 
ATOM     11  C   UNL     1      85.074  53.196  43.773  0.00  0.00    +0.119 A 
ATOM     12  N   UNL     1      84.968  52.707  42.507  0.00  0.00    -0.251 NA
ATOM     13  C   UNL     1      84.719  53.505  41.439  0.00  0.00    +0.029 A 
ATOM     14  C   UNL     1      84.563  54.879  41.613  0.00  0.00    -0.036 A 
ATOM     15  C   UNL     1      84.663  55.427  42.896  0.00  0.00    -0.010 A 
ATOM     16  C   UNL     1      84.507  56.810  43.085  0.00  0.00    -0.008 A 
ATOM     17  C   UNL     1      84.616  57.308  44.372  0.00  0.00    +0.167 A 
ATOM     18  C   UNL     1      84.866  56.510  45.449  0.00  0.00    +0.175 A 
ATOM     19  O   UNL     1      84.911  57.316  46.574  0.00  0.00    -0.452 OA
ATOM     20  C   UNL     1      84.681  58.676  46.188  0.00  0.00    +0.233 C 
ATOM     21  O   UNL     1      84.497  58.625  44.772  0.00  0.00    -0.453 OA
ENDROOT
TORSDOF 0
ENDMDL
MODEL 6
REMARK VINA RESULT:    -8.540      2.617      4.349
REMARK INTER + INTRA:          -8.540
REMARK INTER:                  -8.540
REMARK INTRA:                   0.000
REMARK UNBOUND:                 0.000
REMARK  Name = 
REMARK  0 active torsions:
REMARK  status: ('A' for Active; 'I' for Inactive)
REMARK                            x       y       z     vdW  Elec       q    Type
REMARK                         _______ _______ _______ _____ _____    ______ ____
ROOT
ATOM      1  O   UNL     1      86.723  51.149  41.485  0.00  0.00    -0.285 OA
ATOM      2  C   UNL     1      86.397  52.064  42.289  0.00  0.00    +0.212 C 
ATOM      3  C   UNL     1      86.744  51.969  43.721  0.00  0.00    +0.032 A 
ATOM      4  C   UNL     1      87.445  50.845  44.197  0.00  0.00    -0.050 A 
ATOM      5  C   UNL     1      87.779  50.739  45.544  0.00  0.00    -0.061 A 
ATOM      6  C   UNL     1      87.419  51.751  46.429  0.00  0.00    -0.061 A 
ATOM      7  C   UNL     1      86.724  52.873  45.975  0.00  0.00    -0.053 A 
ATOM      8  C   UNL     1      86.371  53.008  44.611  0.00  0.00    -0.003 A 
ATOM      9  C   UNL     1      85.620  54.201  44.072  0.00  0.00    +0.038 A 
ATOM     10  C   UNL     1      85.297  54.268  42.681  0.00  0.00    +0.023 A 
ATOM     11  C   UNL     1      85.667  53.237  41.796  0.00  0.00    +0.119 A 
ATOM     12  N   UNL     1      85.350  53.322  40.476  0.00  0.00    -0.251 NA
ATOM     13  C   UNL     1      84.676  54.380  39.958  0.00  0.00    +0.029 A 
ATOM     14  C   UNL     1      84.282  55.431  40.784  0.00  0.00    -0.036 A 
ATOM     15  C   UNL     1      84.587  55.387  42.148  0.00  0.00    -0.010 A 
ATOM     16  C   UNL     1      84.196  56.441  42.991  0.00  0.00    -0.008 A 
ATOM     17  C   UNL     1      84.520  56.355  44.334  0.00  0.00    +0.167 A 
ATOM     18  C   UNL     1      85.197  55.294  44.860  0.00  0.00    +0.175 A 
ATOM     19  O   UNL     1      85.354  55.521  46.217  0.00  0.00    -0.452 OA
ATOM     20  C   UNL     1      84.753  56.774  46.557  0.00  0.00    +0.233 C 
ATOM     21  O   UNL     1      84.231  57.274  45.324  0.00  0.00    -0.453 OA
ENDROOT
TORSDOF 0
ENDMDL
MODEL 7
REMARK VINA RESULT:    -8.526      4.834      6.178
REMARK INTER + INTRA:          -8.526
REMARK INTER:                  -8.526
REMARK INTRA:                   0.000
REMARK UNBOUND:                 0.000
REMARK  Name = 
REMARK  0 active torsions:
REMARK  status: ('A' for Active; 'I' for Inactive)
REMARK                            x       y       z     vdW  Elec       q    Type
REMARK                         _______ _______ _______ _____ _____    ______ ____
ROOT
ATOM      1  O   UNL     1      85.276  47.659  44.851  0.00  0.00    -0.285 OA
ATOM      2  C   UNL     1      84.822  48.716  44.333  0.00  0.00    +0.212 C 
ATOM      3  C   UNL     1      85.720  49.844  44.014  0.00  0.00    +0.032 A 
ATOM      4  C   UNL     1      87.097  49.742  44.288  0.00  0.00    -0.050 A 
ATOM      5  C   UNL     1      87.956  50.796  43.992  0.00  0.00    -0.061 A 
ATOM      6  C   UNL     1      87.454  51.962  43.422  0.00  0.00    -0.061 A 
ATOM      7  C   UNL     1      86.091  52.081  43.142  0.00  0.00    -0.053 A 
ATOM      8  C   UNL     1      85.193  51.025  43.432  0.00  0.00    -0.003 A 
ATOM      9  C   UNL     1      83.713  51.106  43.149  0.00  0.00    +0.038 A 
ATOM     10  C   UNL     1      82.867  50.000  43.468  0.00  0.00    +0.023 A 
ATOM     11  C   UNL     1      83.388  48.827  44.046  0.00  0.00    +0.119 A 
ATOM     12  N   UNL     1      82.564  47.785  44.342  0.00  0.00    -0.251 NA
ATOM     13  C   UNL     1      81.229  47.825  44.101  0.00  0.00    +0.029 A 
ATOM     14  C   UNL     1      80.654  48.959  43.530  0.00  0.00    -0.036 A 
ATOM     15  C   UNL     1      81.463  50.054  43.210  0.00  0.00    -0.010 A 
ATOM     16  C   UNL     1      80.895  51.203  42.635  0.00  0.00    -0.008 A 
ATOM     17  C   UNL     1      81.734  52.263  42.332  0.00  0.00    +0.167 A 
ATOM     18  C   UNL     1      83.076  52.228  42.573  0.00  0.00    +0.175 A 
ATOM     19  O   UNL     1      83.613  53.436  42.160  0.00  0.00    -0.452 OA
ATOM     20  C   UNL     1      82.566  54.262  41.638  0.00  0.00    +0.233 C 
ATOM     21  O   UNL     1      81.382  53.473  41.768  0.00  0.00    -0.453 OA
ENDROOT
TORSDOF 0
ENDMDL
MODEL 8
REMARK VINA RESULT:    -8.483      1.613      2.519
REMARK INTER + INTRA:          -8.483
REMARK INTER:                  -8.483
REMARK INTRA:                   0.000
REMARK UNBOUND:                 0.000
REMARK  Name = 
REMARK  0 active torsions:
REMARK  status: ('A' for Active; 'I' for Inactive)
REMARK                            x       y       z     vdW  Elec       q    Type
REMARK                         _______ _______ _______ _____ _____    ______ ____
ROOT
ATOM      1  O   UNL     1      85.660  55.438  42.585  0.00  0.00    -0.285 OA
ATOM      2  C   UNL     1      85.889  54.649  43.541  0.00  0.00    +0.212 C 
ATOM      3  C   UNL     1      86.649  53.401  43.324  0.00  0.00    +0.032 A 
ATOM      4  C   UNL     1      87.125  53.088  42.037  0.00  0.00    -0.050 A 
ATOM      5  C   UNL     1      87.843  51.916  41.815  0.00  0.00    -0.061 A 
ATOM      6  C   UNL     1      88.094  51.046  42.872  0.00  0.00    -0.061 A 
ATOM      7  C   UNL     1      87.629  51.341  44.155  0.00  0.00    -0.053 A 
ATOM      8  C   UNL     1      86.896  52.524  44.410  0.00  0.00    -0.003 A 
ATOM      9  C   UNL     1      86.374  52.887  45.779  0.00  0.00    +0.038 A 
ATOM     10  C   UNL     1      85.641  54.100  45.962  0.00  0.00    +0.023 A 
ATOM     11  C   UNL     1      85.394  54.971  44.884  0.00  0.00    +0.119 A 
ATOM     12  N   UNL     1      84.694  56.122  45.081  0.00  0.00    -0.251 NA
ATOM     13  C   UNL     1      84.210  56.477  46.297  0.00  0.00    +0.029 A 
ATOM     14  C   UNL     1      84.422  55.656  47.403  0.00  0.00    -0.036 A 
ATOM     15  C   UNL     1      85.136  54.463  47.248  0.00  0.00    -0.010 A 
ATOM     16  C   UNL     1      85.356  53.626  48.354  0.00  0.00    -0.008 A 
ATOM     17  C   UNL     1      86.069  52.456  48.154  0.00  0.00    +0.167 A 
ATOM     18  C   UNL     1      86.557  52.094  46.934  0.00  0.00    +0.175 A 
ATOM     19  O   UNL     1      87.212  50.882  47.081  0.00  0.00    -0.452 OA
ATOM     20  C   UNL     1      87.132  50.468  48.449  0.00  0.00    +0.233 C 
ATOM     21  O   UNL     1      86.393  51.502  49.100  0.00  0.00    -0.453 OA
ENDROOT
TORSDOF 0
ENDMDL
MODEL 9
REMARK VINA RESULT:    -8.437      4.481      6.402
REMARK INTER + INTRA:          -8.437
REMARK INTER:                  -8.437
REMARK INTRA:                   0.000
REMARK UNBOUND:                 0.000
REMARK  Name = 
REMARK  0 active torsions:
REMARK  status: ('A' for Active; 'I' for Inactive)
REMARK                            x       y       z     vdW  Elec       q    Type
REMARK                         _______ _______ _______ _____ _____    ______ ____
ROOT
ATOM      1  O   UNL     1      90.211  46.583  41.852  0.00  0.00    -0.285 OA
ATOM      2  C   UNL     1      89.086  46.998  42.242  0.00  0.00    +0.212 C 
ATOM      3  C   UNL     1      88.806  48.445  42.330  0.00  0.00    +0.032 A 
ATOM      4  C   UNL     1      89.803  49.373  41.976  0.00  0.00    -0.050 A 
ATOM      5  C   UNL     1      89.555  50.741  42.054  0.00  0.00    -0.061 A 
ATOM      6  C   UNL     1      88.313  51.197  42.485  0.00  0.00    -0.061 A 
ATOM      7  C   UNL     1      87.312  50.291  42.840  0.00  0.00    -0.053 A 
ATOM      8  C   UNL     1      87.535  48.895  42.771  0.00  0.00    -0.003 A 
ATOM      9  C   UNL     1      86.485  47.877  43.143  0.00  0.00    +0.038 A 
ATOM     10  C   UNL     1      86.782  46.482  43.048  0.00  0.00    +0.023 A 
ATOM     11  C   UNL     1      88.043  46.034  42.612  0.00  0.00    +0.119 A 
ATOM     12  N   UNL     1      88.305  44.701  42.529  0.00  0.00    -0.251 NA
ATOM     13  C   UNL     1      87.385  43.760  42.856  0.00  0.00    +0.029 A 
ATOM     14  C   UNL     1      86.118  44.141  43.295  0.00  0.00    -0.036 A 
ATOM     15  C   UNL     1      85.805  45.501  43.396  0.00  0.00    -0.010 A 
ATOM     16  C   UNL     1      84.532  45.898  43.837  0.00  0.00    -0.008 A 
ATOM     17  C   UNL     1      84.265  47.254  43.921  0.00  0.00    +0.167 A 
ATOM     18  C   UNL     1      85.187  48.205  43.594  0.00  0.00    +0.175 A 
ATOM     19  O   UNL     1      84.605  49.446  43.789  0.00  0.00    -0.452 OA
ATOM     20  C   UNL     1      83.264  49.268  44.258  0.00  0.00    +0.233 C 
ATOM     21  O   UNL     1      83.088  47.852  44.328  0.00  0.00    -0.453 OA
ENDROOT
TORSDOF 0
ENDMDL
