MODEL 1
REMARK VINA RESULT:    -8.926      0.000      0.000
REMARK INTER + INTRA:          -8.926
REMARK INTER:                  -8.926
REMARK INTRA:                   0.000
REMARK UNBOUND:                 0.000
REMARK  Name = 
REMARK  0 active torsions:
REMARK  status: ('A' for Active; 'I' for Inactive)
REMARK                            x       y       z     vdW  Elec       q    Type
REMARK                         _______ _______ _______ _____ _____    ______ ____
ROOT
ATOM      1  O   UNL     1      85.346  50.881  44.810  0.00  0.00    -0.285 OA
ATOM      2  C   UNL     1      85.282  52.132  44.954  0.00  0.00    +0.212 C 
ATOM      3  C   UNL     1      85.432  52.747  46.288  0.00  0.00    +0.032 A 
ATOM      4  C   UNL     1      85.650  51.930  47.414  0.00  0.00    -0.050 A 
ATOM      5  C   UNL     1      85.793  52.494  48.679  0.00  0.00    -0.061 A 
ATOM      6  C   UNL     1      85.721  53.874  48.835  0.00  0.00    -0.061 A 
ATOM      7  C   UNL     1      85.506  54.700  47.730  0.00  0.00    -0.053 A 
ATOM      8  C   UNL     1      85.356  54.155  46.432  0.00  0.00    -0.003 A 
ATOM      9  C   UNL     1      85.122  55.006  45.208  0.00  0.00    +0.038 A 
ATOM     10  C   UNL     1      84.980  54.385  43.928  0.00  0.00    +0.023 A 
ATOM     11  C   UNL     1      85.055  52.987  43.784  0.00  0.00    +0.119 A 
ATOM     12  N   UNL     1      84.917  52.417  42.555  0.00  0.00    -0.251 NA
ATOM     13  C   UNL     1      84.706  53.152  41.434  0.00  0.00    +0.029 A 
ATOM     14  C   UNL     1      84.622  54.541  41.513  0.00  0.00    -0.036 A 
ATOM     15  C   UNL     1      84.758  55.170  42.755  0.00  0.00    -0.010 A 
ATOM     16  C   UNL     1      84.675  56.569  42.847  0.00  0.00    -0.008 A 
ATOM     17  C   UNL     1      84.816  57.149  44.097  0.00  0.00    +0.167 A 
ATOM     18  C   UNL     1      85.028  56.416  45.226  0.00  0.00    +0.175 A 
ATOM     19  O   UNL     1      85.121  57.294  46.293  0.00  0.00    -0.452 OA
ATOM     20  C   UNL     1      84.961  58.634  45.813  0.00  0.00    +0.233 C 
ATOM     21  O   UNL     1      84.768  58.495  44.404  0.00  0.00    -0.453 OA
ENDROOT
TORSDOF 0
ENDMDL
MODEL 2
REMARK VINA RESULT:    -8.917      2.168      2.959
REMARK INTER + INTRA:          -8.917
REMARK INTER:                  -8.917
REMARK INTRA:                   0.000
REMARK UNBOUND:                 0.000
REMARK  Name = 
REMARK  0 active torsions:
REMARK  status: ('A' for Active; 'I' for Inactive)
REMARK                            x       y       z     vdW  Elec       q    Type
REMARK                         _______ _______ _______ _____ _____    ______ ____
ROOT
ATOM      1  O   UNL     1      86.977  50.919  47.760  0.00  0.00    -0.285 OA
ATOM      2  C   UNL     1      86.565  51.799  46.956  0.00  0.00    +0.212 C 
ATOM      3  C   UNL     1      85.675  52.884  47.417  0.00  0.00    +0.032 A 
ATOM      4  C   UNL     1      85.281  52.938  48.767  0.00  0.00    -0.050 A 
ATOM      5  C   UNL     1      84.442  53.954  49.218  0.00  0.00    -0.061 A 
ATOM      6  C   UNL     1      83.989  54.924  48.329  0.00  0.00    -0.061 A 
ATOM      7  C   UNL     1      84.370  54.886  46.987  0.00  0.00    -0.053 A 
ATOM      8  C   UNL     1      85.221  53.865  46.500  0.00  0.00    -0.003 A 
ATOM      9  C   UNL     1      85.661  53.781  45.059  0.00  0.00    +0.038 A 
ATOM     10  C   UNL     1      86.523  52.721  44.639  0.00  0.00    +0.023 A 
ATOM     11  C   UNL     1      86.974  51.746  45.548  0.00  0.00    +0.119 A 
ATOM     12  N   UNL     1      87.794  50.745  45.127  0.00  0.00    -0.251 NA
ATOM     13  C   UNL     1      88.208  50.640  43.839  0.00  0.00    +0.029 A 
ATOM     14  C   UNL     1      87.795  51.575  42.892  0.00  0.00    -0.036 A 
ATOM     15  C   UNL     1      86.951  52.621  43.280  0.00  0.00    -0.010 A 
ATOM     16  C   UNL     1      86.527  53.570  42.335  0.00  0.00    -0.008 A 
ATOM     17  C   UNL     1      85.694  54.589  42.764  0.00  0.00    +0.167 A 
ATOM     18  C   UNL     1      85.274  54.699  44.057  0.00  0.00    +0.175 A 
ATOM     19  O   UNL     1      84.459  55.815  44.146  0.00  0.00    -0.452 OA
ATOM     20  C   UNL     1      84.363  56.431  42.857  0.00  0.00    +0.233 C 
ATOM     21  O   UNL     1      85.167  55.614  42.003  0.00  0.00    -0.453 OA
ENDROOT
TORSDOF 0
ENDMDL
MODEL 3
REMARK VINA RESULT:    -8.886      3.413      5.898
REMARK INTER + INTRA:          -8.886
REMARK INTER:                  -8.886
REMARK INTRA:                   0.000
REMARK UNBOUND:                 0.000
REMARK  Name = 
REMARK  0 active torsions:
REMARK  status: ('A' for Active; 'I' for Inactive)
REMARK                            x       y       z     vdW  Elec       q    Type
REMARK                         _______ _______ _______ _____ _____    ______ ____
ROOT
ATOM      1  O   UNL     1      87.586  53.173  40.516  0.00  0.00    -0.285 OA
ATOM      2  C   UNL     1      87.578  52.704  41.687  0.00  0.00    +0.212 C 
ATOM      3  C   UNL     1      88.344  51.486  42.016  0.00  0.00    +0.032 A 
ATOM      4  C   UNL     1      89.092  50.839  41.016  0.00  0.00    -0.050 A 
ATOM      5  C   UNL     1      89.820  49.689  41.310  0.00  0.00    -0.061 A 
ATOM      6  C   UNL     1      89.809  49.172  42.602  0.00  0.00    -0.061 A 
ATOM      7  C   UNL     1      89.072  49.801  43.607  0.00  0.00    -0.053 A 
ATOM      8  C   UNL     1      88.322  50.972  43.338  0.00  0.00    -0.003 A 
ATOM      9  C   UNL     1      87.511  51.687  44.390  0.00  0.00    +0.038 A 
ATOM     10  C   UNL     1      86.779  52.865  44.044  0.00  0.00    +0.023 A 
ATOM     11  C   UNL     1      86.799  53.376  42.733  0.00  0.00    +0.119 A 
ATOM     12  N   UNL     1      86.094  54.499  42.425  0.00  0.00    -0.251 NA
ATOM     13  C   UNL     1      85.354  55.166  43.346  0.00  0.00    +0.029 A 
ATOM     14  C   UNL     1      85.295  54.709  44.661  0.00  0.00    -0.036 A 
ATOM     15  C   UNL     1      86.003  53.558  45.023  0.00  0.00    -0.010 A 
ATOM     16  C   UNL     1      85.951  53.087  46.345  0.00  0.00    -0.008 A 
ATOM     17  C   UNL     1      86.669  51.945  46.659  0.00  0.00    +0.167 A 
ATOM     18  C   UNL     1      87.414  51.270  45.737  0.00  0.00    +0.175 A 
ATOM     19  O   UNL     1      87.996  50.186  46.371  0.00  0.00    -0.452 OA
ATOM     20  C   UNL     1      87.600  50.179  47.747  0.00  0.00    +0.233 C 
ATOM     21  O   UNL     1      86.753  51.320  47.888  0.00  0.00    -0.453 OA
ENDROOT
TORSDOF 0
ENDMDL
MODEL 4
REMARK VINA RESULT:    -8.738      2.289      4.879
REMARK INTER + INTRA:          -8.738
REMARK INTER:                  -8.738
REMARK INTRA:                   0.000
REMARK UNBOUND:                 0.000
REMARK  Name = 
REMARK  0 active torsions:
REMARK  status: ('A' for Active; 'I' for Inactive)
REMARK                            x       y       z     vdW  Elec       q    Type
REMARK                         _______ _______ _______ _____ _____    ______ ____
ROOT
ATOM      1  O   UNL     1      85.603  55.848  42.457  0.00  0.00    -0.285 OA
ATOM      2  C   UNL     1      85.869  54.993  43.346  0.00  0.00    +0.212 C 
ATOM      3  C   UNL     1      85.441  55.203  44.743  0.00  0.00    +0.032 A 
ATOM      4  C   UNL     1      84.730  56.366  45.090  0.00  0.00    -0.050 A 
ATOM      5  C   UNL     1      84.320  56.578  46.404  0.00  0.00    -0.061 A 
ATOM      6  C   UNL     1      84.613  55.635  47.383  0.00  0.00    -0.061 A 
ATOM      7  C   UNL     1      85.318  54.474  47.057  0.00  0.00    -0.053 A 
ATOM      8  C   UNL     1      85.748  54.232  45.730  0.00  0.00    -0.003 A 
ATOM      9  C   UNL     1      86.511  52.993  45.329  0.00  0.00    +0.038 A 
ATOM     10  C   UNL     1      86.913  52.816  43.969  0.00  0.00    +0.023 A 
ATOM     11  C   UNL     1      86.610  53.779  42.988  0.00  0.00    +0.119 A 
ATOM     12  N   UNL     1      87.002  53.590  41.699  0.00  0.00    -0.251 NA
ATOM     13  C   UNL     1      87.690  52.489  41.304  0.00  0.00    +0.029 A 
ATOM     14  C   UNL     1      88.020  51.500  42.229  0.00  0.00    -0.036 A 
ATOM     15  C   UNL     1      87.637  51.653  43.566  0.00  0.00    -0.010 A 
ATOM     16  C   UNL     1      87.964  50.663  44.508  0.00  0.00    -0.008 A 
ATOM     17  C   UNL     1      87.564  50.855  45.820  0.00  0.00    +0.167 A 
ATOM     18  C   UNL     1      86.873  51.960  46.222  0.00  0.00    +0.175 A 
ATOM     19  O   UNL     1      86.634  51.840  47.581  0.00  0.00    -0.452 OA
ATOM     20  C   UNL     1      87.197  50.611  48.050  0.00  0.00    +0.233 C 
ATOM     21  O   UNL     1      87.783  50.013  46.892  0.00  0.00    -0.453 OA
ENDROOT
TORSDOF 0
ENDMDL
MODEL 5
REMARK VINA RESULT:    -8.679      2.422      4.554
REMARK INTER + INTRA:          -8.679
REMARK INTER:                  -8.679
REMARK INTRA:                   0.000
REMARK UNBOUND:                 0.000
REMARK  Name = 
REMARK  0 active torsions:
REMARK  status: ('A' for Active; 'I' for Inactive)
REMARK                            x       y       z     vdW  Elec       q    Type
REMARK                         _______ _______ _______ _____ _____    ______ ____
ROOT
ATOM      1  O   UNL     1      87.407  49.859  45.848  0.00  0.00    -0.285 OA
ATOM      2  C   UNL     1      87.183  51.077  45.605  0.00  0.00    +0.212 C 
ATOM      3  C   UNL     1      87.484  51.648  44.277  0.00  0.00    +0.032 A 
ATOM      4  C   UNL     1      88.026  50.828  43.270  0.00  0.00    -0.050 A 
ATOM      5  C   UNL     1      88.315  51.352  42.013  0.00  0.00    -0.061 A 
ATOM      6  C   UNL     1      88.068  52.695  41.747  0.00  0.00    -0.061 A 
ATOM      7  C   UNL     1      87.531  53.523  42.735  0.00  0.00    -0.053 A 
ATOM      8  C   UNL     1      87.227  53.019  44.022  0.00  0.00    -0.003 A 
ATOM      9  C   UNL     1      86.646  53.874  45.121  0.00  0.00    +0.038 A 
ATOM     10  C   UNL     1      86.364  53.295  46.398  0.00  0.00    +0.023 A 
ATOM     11  C   UNL     1      86.619  51.935  46.653  0.00  0.00    +0.119 A 
ATOM     12  N   UNL     1      86.343  51.404  47.875  0.00  0.00    -0.251 NA
ATOM     13  C   UNL     1      85.821  52.144  48.886  0.00  0.00    +0.029 A 
ATOM     14  C   UNL     1      85.546  53.496  48.694  0.00  0.00    -0.036 A 
ATOM     15  C   UNL     1      85.814  54.085  47.453  0.00  0.00    -0.010 A 
ATOM     16  C   UNL     1      85.542  55.447  47.248  0.00  0.00    -0.008 A 
ATOM     17  C   UNL     1      85.822  55.987  46.004  0.00  0.00    +0.167 A 
ATOM     18  C   UNL     1      86.348  55.248  44.985  0.00  0.00    +0.175 A 
ATOM     19  O   UNL     1      86.505  56.083  43.892  0.00  0.00    -0.452 OA
ATOM     20  C   UNL     1      86.060  57.399  44.238  0.00  0.00    +0.233 C 
ATOM     21  O   UNL     1      85.633  57.293  45.597  0.00  0.00    -0.453 OA
ENDROOT
TORSDOF 0
ENDMDL
MODEL 6
REMARK VINA RESULT:    -8.640      4.566      5.659
REMARK INTER + INTRA:          -8.640
REMARK INTER:                  -8.640
REMARK INTRA:                   0.000
REMARK UNBOUND:                 0.000
REMARK  Name = 
REMARK  0 active torsions:
REMARK  status: ('A' for Active; 'I' for Inactive)
REMARK                            x       y       z     vdW  Elec       q    Type
REMARK                         _______ _______ _______ _____ _____    ______ ____
ROOT
ATOM      1  O   UNL     1      85.589  47.585  44.476  0.00  0.00    -0.285 OA
ATOM      2  C   UNL     1      85.114  48.625  43.942  0.00  0.00    +0.212 C 
ATOM      3  C   UNL     1      85.994  49.756  43.583  0.00  0.00    +0.032 A 
ATOM      4  C   UNL     1      87.376  49.675  43.836  0.00  0.00    -0.050 A 
ATOM      5  C   UNL     1      88.218  50.732  43.502  0.00  0.00    -0.061 A 
ATOM      6  C   UNL     1      87.693  51.879  42.915  0.00  0.00    -0.061 A 
ATOM      7  C   UNL     1      86.324  51.976  42.656  0.00  0.00    -0.053 A 
ATOM      8  C   UNL     1      85.443  50.918  42.984  0.00  0.00    -0.003 A 
ATOM      9  C   UNL     1      83.958  50.976  42.724  0.00  0.00    +0.038 A 
ATOM     10  C   UNL     1      83.130  49.867  43.082  0.00  0.00    +0.023 A 
ATOM     11  C   UNL     1      83.674  48.714  43.677  0.00  0.00    +0.119 A 
ATOM     12  N   UNL     1      82.867  47.669  44.010  0.00  0.00    -0.251 NA
ATOM     13  C   UNL     1      81.529  47.689  43.791  0.00  0.00    +0.029 A 
ATOM     14  C   UNL     1      80.931  48.803  43.205  0.00  0.00    -0.036 A 
ATOM     15  C   UNL     1      81.722  49.900  42.846  0.00  0.00    -0.010 A 
ATOM     16  C   UNL     1      81.131  51.029  42.256  0.00  0.00    -0.008 A 
ATOM     17  C   UNL     1      81.952  52.091  41.916  0.00  0.00    +0.167 A 
ATOM     18  C   UNL     1      83.298  52.077  42.135  0.00  0.00    +0.175 A 
ATOM     19  O   UNL     1      83.814  53.281  41.686  0.00  0.00    -0.452 OA
ATOM     20  C   UNL     1      82.749  54.084  41.164  0.00  0.00    +0.233 C 
ATOM     21  O   UNL     1      81.577  53.285  41.332  0.00  0.00    -0.453 OA
ENDROOT
TORSDOF 0
ENDMDL
MODEL 7
REMARK VINA RESULT:    -8.523      2.384      4.188
REMARK INTER + INTRA:          -8.523
REMARK INTER:                  -8.523
REMARK INTRA:                   0.000
REMARK UNBOUND:                 0.000
REMARK  Name = 
REMARK  0 active torsions:
REMARK  status: ('A' for Active; 'I' for Inactive)
REMARK                            x       y       z     vdW  Elec       q    Type
REMARK                         _______ _______ _______ _____ _____    ______ ____
ROOT
ATOM      1  O   UNL     1      85.256  53.969  48.896  0.00  0.00    -0.285 OA
ATOM      2  C   UNL     1      85.515  53.743  47.683  0.00  0.00    +0.212 C 
ATOM      3  C   UNL     1      86.120  52.463  47.267  0.00  0.00    +0.032 A 
ATOM      4  C   UNL     1      86.413  51.481  48.232  0.00  0.00    -0.050 A 
ATOM      5  C   UNL     1      86.984  50.269  47.856  0.00  0.00    -0.061 A 
ATOM      6  C   UNL     1      87.269  50.022  46.517  0.00  0.00    -0.061 A 
ATOM      7  C   UNL     1      86.985  50.984  45.545  0.00  0.00    -0.053 A 
ATOM      8  C   UNL     1      86.405  52.225  45.898  0.00  0.00    -0.003 A 
ATOM      9  C   UNL     1      86.079  53.296  44.885  0.00  0.00    +0.038 A 
ATOM     10  C   UNL     1      85.494  54.527  45.315  0.00  0.00    +0.023 A 
ATOM     11  C   UNL     1      85.211  54.763  46.673  0.00  0.00    +0.119 A 
ATOM     12  N   UNL     1      84.653  55.943  47.060  0.00  0.00    -0.251 NA
ATOM     13  C   UNL     1      84.348  56.926  46.177  0.00  0.00    +0.029 A 
ATOM     14  C   UNL     1      84.604  56.750  44.818  0.00  0.00    -0.036 A 
ATOM     15  C   UNL     1      85.178  55.554  44.374  0.00  0.00    -0.010 A 
ATOM     16  C   UNL     1      85.441  55.365  43.007  0.00  0.00    -0.008 A 
ATOM     17  C   UNL     1      86.008  54.165  42.613  0.00  0.00    +0.167 A 
ATOM     18  C   UNL     1      86.317  53.174  43.497  0.00  0.00    +0.175 A 
ATOM     19  O   UNL     1      86.865  52.122  42.782  0.00  0.00    -0.452 OA
ATOM     20  C   UNL     1      86.901  52.467  41.393  0.00  0.00    +0.233 C 
ATOM     21  O   UNL     1      86.345  53.781  41.330  0.00  0.00    -0.453 OA
ENDROOT
TORSDOF 0
ENDMDL
MODEL 8
REMARK VINA RESULT:    -8.514      3.912      5.331
REMARK INTER + INTRA:          -8.514
REMARK INTER:                  -8.514
REMARK INTRA:                   0.000
REMARK UNBOUND:                 0.000
REMARK  Name = 
REMARK  0 active torsions:
REMARK  status: ('A' for Active; 'I' for Inactive)
REMARK                            x       y       z     vdW  Elec       q    Type
REMARK                         _______ _______ _______ _____ _____    ______ ____
ROOT
ATOM      1  O   UNL     1      87.561  53.763  42.465  0.00  0.00    -0.285 OA
ATOM      2  C   UNL     1      86.525  53.061  42.620  0.00  0.00    +0.212 C 
ATOM      3  C   UNL     1      86.569  51.817  43.415  0.00  0.00    +0.032 A 
ATOM      4  C   UNL     1      87.778  51.408  44.008  0.00  0.00    -0.050 A 
ATOM      5  C   UNL     1      87.836  50.238  44.760  0.00  0.00    -0.061 A 
ATOM      6  C   UNL     1      86.692  49.465  44.929  0.00  0.00    -0.061 A 
ATOM      7  C   UNL     1      85.483  49.856  44.349  0.00  0.00    -0.053 A 
ATOM      8  C   UNL     1      85.394  51.040  43.579  0.00  0.00    -0.003 A 
ATOM      9  C   UNL     1      84.112  51.504  42.932  0.00  0.00    +0.038 A 
ATOM     10  C   UNL     1      84.097  52.711  42.168  0.00  0.00    +0.023 A 
ATOM     11  C   UNL     1      85.263  53.484  42.004  0.00  0.00    +0.119 A 
ATOM     12  N   UNL     1      85.226  54.631  41.272  0.00  0.00    -0.251 NA
ATOM     13  C   UNL     1      84.091  55.076  40.677  0.00  0.00    +0.029 A 
ATOM     14  C   UNL     1      82.905  54.354  40.803  0.00  0.00    -0.036 A 
ATOM     15  C   UNL     1      82.896  53.169  41.547  0.00  0.00    -0.010 A 
ATOM     16  C   UNL     1      81.707  52.433  41.680  0.00  0.00    -0.008 A 
ATOM     17  C   UNL     1      81.743  51.267  42.426  0.00  0.00    +0.167 A 
ATOM     18  C   UNL     1      82.882  50.814  43.025  0.00  0.00    +0.175 A 
ATOM     19  O   UNL     1      82.576  49.635  43.683  0.00  0.00    -0.452 OA
ATOM     20  C   UNL     1      81.190  49.334  43.489  0.00  0.00    +0.233 C 
ATOM     21  O   UNL     1      80.696  50.403  42.679  0.00  0.00    -0.453 OA
ENDROOT
TORSDOF 0
ENDMDL
MODEL 9
REMARK VINA RESULT:    -8.480      4.019      5.257
REMARK INTER + INTRA:          -8.480
REMARK INTER:                  -8.480
REMARK INTRA:                   0.000
REMARK UNBOUND:                 0.000
REMARK  Name = 
REMARK  0 active torsions:
REMARK  status: ('A' for Active; 'I' for Inactive)
REMARK                            x       y       z     vdW  Elec       q    Type
REMARK                         _______ _______ _______ _____ _____    ______ ____
ROOT
ATOM      1  O   UNL     1      84.780  47.810  44.337  0.00  0.00    -0.285 OA
ATOM      2  C   UNL     1      84.651  48.960  43.836  0.00  0.00    +0.212 C 
ATOM      3  C   UNL     1      83.321  49.464  43.438  0.00  0.00    +0.032 A 
ATOM      4  C   UNL     1      82.184  48.655  43.619  0.00  0.00    -0.050 A 
ATOM      5  C   UNL     1      80.923  49.116  43.249  0.00  0.00    -0.061 A 
ATOM      6  C   UNL     1      80.784  50.385  42.695  0.00  0.00    -0.061 A 
ATOM      7  C   UNL     1      81.901  51.201  42.508  0.00  0.00    -0.053 A 
ATOM      8  C   UNL     1      83.195  50.759  42.875  0.00  0.00    -0.003 A 
ATOM      9  C   UNL     1      84.432  51.604  42.693  0.00  0.00    +0.038 A 
ATOM     10  C   UNL     1      85.707  51.091  43.087  0.00  0.00    +0.023 A 
ATOM     11  C   UNL     1      85.834  49.806  43.645  0.00  0.00    +0.119 A 
ATOM     12  N   UNL     1      87.058  49.337  44.013  0.00  0.00    -0.251 NA
ATOM     13  C   UNL     1      88.190  50.070  43.863  0.00  0.00    +0.029 A 
ATOM     14  C   UNL     1      88.128  51.350  43.316  0.00  0.00    -0.036 A 
ATOM     15  C   UNL     1      86.891  51.873  42.923  0.00  0.00    -0.010 A 
ATOM     16  C   UNL     1      86.817  53.161  42.370  0.00  0.00    -0.008 A 
ATOM     17  C   UNL     1      85.572  53.638  41.996  0.00  0.00    +0.167 A 
ATOM     18  C   UNL     1      84.431  52.906  42.144  0.00  0.00    +0.175 A 
ATOM     19  O   UNL     1      83.373  53.668  41.676  0.00  0.00    -0.452 OA
ATOM     20  C   UNL     1      83.870  54.929  41.215  0.00  0.00    +0.233 C 
ATOM     21  O   UNL     1      85.280  54.867  41.438  0.00  0.00    -0.453 OA
ENDROOT
TORSDOF 0
ENDMDL
