MODEL 1
REMARK VINA RESULT:    -9.520      0.000      0.000
REMARK INTER + INTRA:          -9.999
REMARK INTER:                  -9.590
REMARK INTRA:                  -0.409
REMARK UNBOUND:                 0.355
REMARK  Name = 
REMARK  9 active torsions:
REMARK  status: ('A' for Active; 'I' for Inactive)
REMARK    1  A    between atoms: C_1  and  C_2
REMARK    2  A    between atoms: C_2  and  C_4
REMARK    3  A    between atoms: C_7  and  C_31
REMARK    4  A    between atoms: C_13  and  C_18
REMARK    5  A    between atoms: C_14  and  C_15
REMARK    6  A    between atoms: C_22  and  C_23
REMARK    7  A    between atoms: C_26  and  O_30
REMARK    8  A    between atoms: C_27  and  C_28
REMARK    9  A    between atoms: C_27  and  C_29
REMARK                            x       y       z     vdW  Elec       q    Type
REMARK                         _______ _______ _______ _____ _____    ______ ____
ROOT
ATOM      1  C   UNL     1      84.318  55.533  47.336  0.00  0.00    -0.017 C 
ATOM      2  C   UNL     1      83.681  55.648  48.744  0.00  0.00    -0.046 C 
ATOM      3  C   UNL     1      84.010  54.341  49.488  0.00  0.00    -0.047 C 
ATOM      4  C   UNL     1      84.360  53.343  48.379  0.00  0.00    -0.028 C 
ATOM      5  C   UNL     1      85.151  54.239  47.411  0.00  0.00    -0.026 C 
ATOM      6  C   UNL     1      85.542  53.461  46.123  0.00  0.00    -0.031 C 
ATOM      7  C   UNL     1      86.176  54.347  45.037  0.00  0.00    -0.049 C 
ATOM      8  C   UNL     1      86.395  53.551  43.746  0.00  0.00    -0.049 C 
ATOM      9  C   UNL     1      87.287  52.298  43.975  0.00  0.00    -0.029 C 
ATOM     10  C   UNL     1      86.686  51.343  45.099  0.00  0.00    -0.023 C 
ATOM     11  C   UNL     1      86.456  52.201  46.462  0.00  0.00    -0.023 C 
ATOM     12  C   UNL     1      87.834  52.664  47.077  0.00  0.00    -0.059 C 
ATOM     13  C   UNL     1      85.765  51.351  47.603  0.00  0.00    -0.046 C 
ATOM     14  C   UNL     1      85.271  52.175  48.824  0.00  0.00    -0.047 C 
ATOM     15  C   UNL     1      85.340  50.690  44.630  0.00  0.00    -0.059 C 
ATOM     16  C   UNL     1      87.692  50.169  45.331  0.00  0.00    -0.047 C 
ATOM     17  C   UNL     1      88.112  49.450  44.042  0.00  0.00    -0.049 C 
ATOM     18  C   UNL     1      88.783  50.432  43.049  0.00  0.00    -0.028 C 
ATOM     19  C   UNL     1      87.825  51.616  42.633  0.00  0.00    -0.025 C 
ATOM     20  C   UNL     1      86.642  51.151  41.721  0.00  0.00    -0.059 C 
ATOM     21  C   UNL     1      88.674  52.683  41.833  0.00  0.00    -0.045 C 
ATOM     22  C   UNL     1      89.945  52.163  41.132  0.00  0.00    -0.026 C 
ATOM     23  C   UNL     1      89.867  50.701  40.672  0.00  0.00    +0.061 C 
ATOM     24  C   UNL     1      89.603  49.718  41.886  0.00  0.00    -0.006 C 
ATOM     25  C   UNL     1      91.000  49.329  42.461  0.00  0.00    -0.057 C 
ATOM     26  C   UNL     1      88.969  48.376  41.416  0.00  0.00    -0.057 C 
ATOM     27  C   UNL     1      83.017  52.778  47.810  0.00  0.00    -0.059 C 
ENDROOT
BRANCH   1  29
ATOM     28  C   UNL     1      84.535  57.914  46.185  0.00  0.00    -0.044 C 
ATOM     29  C   UNL     1      85.130  56.781  46.988  0.00  0.00    -0.076 C 
ATOM     30  C   UNL     1      86.420  56.865  47.350  0.00  0.00    -0.099 C 
ENDBRANCH   1  29
BRANCH  23  31
ATOM     31  O   UNL     1      88.999  50.595  39.565  0.00  0.00    -0.391 OA
ATOM     32  H   UNL     1      89.370  49.969  38.923  0.00  0.00    +0.000 HD
ENDBRANCH  23  31
TORSDOF 2
ENDMDL
MODEL 2
REMARK VINA RESULT:    -8.574      2.894      7.946
REMARK INTER + INTRA:          -8.970
REMARK INTER:                  -8.520
REMARK INTRA:                  -0.451
REMARK UNBOUND:                 0.355
REMARK  Name = 
REMARK  9 active torsions:
REMARK  status: ('A' for Active; 'I' for Inactive)
REMARK    1  A    between atoms: C_1  and  C_2
REMARK    2  A    between atoms: C_2  and  C_4
REMARK    3  A    between atoms: C_7  and  C_31
REMARK    4  A    between atoms: C_13  and  C_18
REMARK    5  A    between atoms: C_14  and  C_15
REMARK    6  A    between atoms: C_22  and  C_23
REMARK    7  A    between atoms: C_26  and  O_30
REMARK    8  A    between atoms: C_27  and  C_28
REMARK    9  A    between atoms: C_27  and  C_29
REMARK                            x       y       z     vdW  Elec       q    Type
REMARK                         _______ _______ _______ _____ _____    ______ ____
ROOT
ATOM      1  C   UNL     1      85.932  46.874  42.874  0.00  0.00    -0.017 C 
ATOM      2  C   UNL     1      86.956  45.901  42.234  0.00  0.00    -0.046 C 
ATOM      3  C   UNL     1      88.349  46.514  42.460  0.00  0.00    -0.047 C 
ATOM      4  C   UNL     1      88.080  47.995  42.745  0.00  0.00    -0.028 C 
ATOM      5  C   UNL     1      86.810  47.905  43.608  0.00  0.00    -0.026 C 
ATOM      6  C   UNL     1      86.267  49.320  43.952  0.00  0.00    -0.031 C 
ATOM      7  C   UNL     1      84.901  49.301  44.659  0.00  0.00    -0.049 C 
ATOM      8  C   UNL     1      84.358  50.724  44.829  0.00  0.00    -0.049 C 
ATOM      9  C   UNL     1      85.337  51.633  45.624  0.00  0.00    -0.029 C 
ATOM     10  C   UNL     1      86.776  51.687  44.945  0.00  0.00    -0.023 C 
ATOM     11  C   UNL     1      87.340  50.170  44.768  0.00  0.00    -0.023 C 
ATOM     12  C   UNL     1      87.624  49.505  46.170  0.00  0.00    -0.059 C 
ATOM     13  C   UNL     1      88.725  50.125  44.006  0.00  0.00    -0.046 C 
ATOM     14  C   UNL     1      89.181  48.707  43.564  0.00  0.00    -0.047 C 
ATOM     15  C   UNL     1      86.724  52.416  43.559  0.00  0.00    -0.059 C 
ATOM     16  C   UNL     1      87.717  52.537  45.860  0.00  0.00    -0.047 C 
ATOM     17  C   UNL     1      87.139  53.908  46.237  0.00  0.00    -0.049 C 
ATOM     18  C   UNL     1      85.792  53.758  46.986  0.00  0.00    -0.028 C 
ATOM     19  C   UNL     1      84.701  53.012  46.122  0.00  0.00    -0.025 C 
ATOM     20  C   UNL     1      84.190  53.869  44.916  0.00  0.00    -0.059 C 
ATOM     21  C   UNL     1      83.466  52.689  47.054  0.00  0.00    -0.045 C 
ATOM     22  C   UNL     1      83.282  53.593  48.290  0.00  0.00    -0.026 C 
ATOM     23  C   UNL     1      83.787  55.031  48.108  0.00  0.00    +0.061 C 
ATOM     24  C   UNL     1      85.332  55.071  47.762  0.00  0.00    -0.006 C 
ATOM     25  C   UNL     1      86.097  55.110  49.121  0.00  0.00    -0.057 C 
ATOM     26  C   UNL     1      85.728  56.389  47.034  0.00  0.00    -0.057 C 
ATOM     27  C   UNL     1      87.894  48.715  41.368  0.00  0.00    -0.059 C 
ENDROOT
BRANCH   1  29
ATOM     28  C   UNL     1      83.453  46.297  43.627  0.00  0.00    -0.044 C 
ATOM     29  C   UNL     1      84.947  46.132  43.778  0.00  0.00    -0.076 C 
ATOM     30  C   UNL     1      85.405  45.352  44.771  0.00  0.00    -0.099 C 
ENDBRANCH   1  29
BRANCH  23  31
ATOM     31  O   UNL     1      82.921  55.735  47.244  0.00  0.00    -0.391 OA
ATOM     32  H   UNL     1      83.423  56.416  46.769  0.00  0.00    +0.000 HD
ENDBRANCH  23  31
TORSDOF 2
ENDMDL
MODEL 3
REMARK VINA RESULT:    -7.769      2.468      7.666
REMARK INTER + INTRA:          -8.095
REMARK INTER:                  -7.563
REMARK INTRA:                  -0.532
REMARK UNBOUND:                 0.355
REMARK  Name = 
REMARK  9 active torsions:
REMARK  status: ('A' for Active; 'I' for Inactive)
REMARK    1  A    between atoms: C_1  and  C_2
REMARK    2  A    between atoms: C_2  and  C_4
REMARK    3  A    between atoms: C_7  and  C_31
REMARK    4  A    between atoms: C_13  and  C_18
REMARK    5  A    between atoms: C_14  and  C_15
REMARK    6  A    between atoms: C_22  and  C_23
REMARK    7  A    between atoms: C_26  and  O_30
REMARK    8  A    between atoms: C_27  and  C_28
REMARK    9  A    between atoms: C_27  and  C_29
REMARK                            x       y       z     vdW  Elec       q    Type
REMARK                         _______ _______ _______ _____ _____    ______ ____
ROOT
ATOM      1  C   UNL     1      89.367  50.963  41.384  0.00  0.00    -0.017 C 
ATOM      2  C   UNL     1      89.595  49.508  40.899  0.00  0.00    -0.046 C 
ATOM      3  C   UNL     1      88.560  48.631  41.625  0.00  0.00    -0.047 C 
ATOM      4  C   UNL     1      88.127  49.465  42.836  0.00  0.00    -0.028 C 
ATOM      5  C   UNL     1      88.078  50.875  42.224  0.00  0.00    -0.026 C 
ATOM      6  C   UNL     1      87.750  51.942  43.305  0.00  0.00    -0.031 C 
ATOM      7  C   UNL     1      87.862  53.390  42.795  0.00  0.00    -0.049 C 
ATOM      8  C   UNL     1      87.677  54.385  43.946  0.00  0.00    -0.049 C 
ATOM      9  C   UNL     1      86.314  54.198  44.668  0.00  0.00    -0.029 C 
ATOM     10  C   UNL     1      86.132  52.712  45.212  0.00  0.00    -0.023 C 
ATOM     11  C   UNL     1      86.334  51.666  43.982  0.00  0.00    -0.023 C 
ATOM     12  C   UNL     1      85.174  51.808  42.922  0.00  0.00    -0.059 C 
ATOM     13  C   UNL     1      86.272  50.158  44.455  0.00  0.00    -0.046 C 
ATOM     14  C   UNL     1      86.726  49.120  43.391  0.00  0.00    -0.047 C 
ATOM     15  C   UNL     1      87.146  52.402  46.366  0.00  0.00    -0.059 C 
ATOM     16  C   UNL     1      84.703  52.589  45.831  0.00  0.00    -0.047 C 
ATOM     17  C   UNL     1      84.375  53.686  46.854  0.00  0.00    -0.049 C 
ATOM     18  C   UNL     1      84.472  55.093  46.213  0.00  0.00    -0.028 C 
ATOM     19  C   UNL     1      85.914  55.398  45.645  0.00  0.00    -0.025 C 
ATOM     20  C   UNL     1      86.983  55.592  46.771  0.00  0.00    -0.059 C 
ATOM     21  C   UNL     1      85.841  56.732  44.799  0.00  0.00    -0.045 C 
ATOM     22  C   UNL     1      84.705  57.711  45.157  0.00  0.00    -0.026 C 
ATOM     23  C   UNL     1      84.275  57.678  46.630  0.00  0.00    +0.061 C 
ATOM     24  C   UNL     1      83.767  56.242  47.061  0.00  0.00    -0.006 C 
ATOM     25  C   UNL     1      82.240  56.192  46.747  0.00  0.00    -0.057 C 
ATOM     26  C   UNL     1      83.873  56.028  48.599  0.00  0.00    -0.057 C 
ATOM     27  C   UNL     1      89.203  49.268  43.954  0.00  0.00    -0.059 C 
ENDROOT
BRANCH   1  29
ATOM     28  C   UNL     1      90.391  52.922  39.917  0.00  0.00    -0.044 C 
ATOM     29  C   UNL     1      89.284  51.937  40.209  0.00  0.00    -0.076 C 
ATOM     30  C   UNL     1      88.184  51.967  39.439  0.00  0.00    -0.099 C 
ENDBRANCH   1  29
BRANCH  23  31
ATOM     31  O   UNL     1      85.275  58.268  47.432  0.00  0.00    -0.391 OA
ATOM     32  H   UNL     1      85.272  59.229  47.298  0.00  0.00    +0.000 HD
ENDBRANCH  23  31
TORSDOF 2
ENDMDL
MODEL 4
REMARK VINA RESULT:    -7.142      3.577      5.683
REMARK INTER + INTRA:          -7.413
REMARK INTER:                  -7.265
REMARK INTRA:                  -0.148
REMARK UNBOUND:                 0.355
REMARK  Name = 
REMARK  9 active torsions:
REMARK  status: ('A' for Active; 'I' for Inactive)
REMARK    1  A    between atoms: C_1  and  C_2
REMARK    2  A    between atoms: C_2  and  C_4
REMARK    3  A    between atoms: C_7  and  C_31
REMARK    4  A    between atoms: C_13  and  C_18
REMARK    5  A    between atoms: C_14  and  C_15
REMARK    6  A    between atoms: C_22  and  C_23
REMARK    7  A    between atoms: C_26  and  O_30
REMARK    8  A    between atoms: C_27  and  C_28
REMARK    9  A    between atoms: C_27  and  C_29
REMARK                            x       y       z     vdW  Elec       q    Type
REMARK                         _______ _______ _______ _____ _____    ______ ____
ROOT
ATOM      1  C   UNL     1      83.807  53.876  43.185  0.00  0.00    -0.017 C 
ATOM      2  C   UNL     1      84.307  55.341  43.099  0.00  0.00    -0.046 C 
ATOM      3  C   UNL     1      85.844  55.282  43.034  0.00  0.00    -0.047 C 
ATOM      4  C   UNL     1      86.201  53.895  43.580  0.00  0.00    -0.028 C 
ATOM      5  C   UNL     1      85.081  53.037  42.969  0.00  0.00    -0.026 C 
ATOM      6  C   UNL     1      85.168  51.567  43.467  0.00  0.00    -0.031 C 
ATOM      7  C   UNL     1      83.973  50.699  43.037  0.00  0.00    -0.049 C 
ATOM      8  C   UNL     1      84.046  49.314  43.688  0.00  0.00    -0.049 C 
ATOM      9  C   UNL     1      85.370  48.575  43.344  0.00  0.00    -0.029 C 
ATOM     10  C   UNL     1      86.649  49.430  43.758  0.00  0.00    -0.023 C 
ATOM     11  C   UNL     1      86.556  50.899  43.063  0.00  0.00    -0.023 C 
ATOM     12  C   UNL     1      86.684  50.791  41.494  0.00  0.00    -0.059 C 
ATOM     13  C   UNL     1      87.738  51.852  43.505  0.00  0.00    -0.046 C 
ATOM     14  C   UNL     1      87.563  53.342  43.100  0.00  0.00    -0.047 C 
ATOM     15  C   UNL     1      86.759  49.567  45.315  0.00  0.00    -0.059 C 
ATOM     16  C   UNL     1      87.925  48.660  43.288  0.00  0.00    -0.047 C 
ATOM     17  C   UNL     1      87.965  47.194  43.740  0.00  0.00    -0.049 C 
ATOM     18  C   UNL     1      86.741  46.411  43.205  0.00  0.00    -0.028 C 
ATOM     19  C   UNL     1      85.371  47.018  43.706  0.00  0.00    -0.025 C 
ATOM     20  C   UNL     1      85.129  46.792  45.235  0.00  0.00    -0.059 C 
ATOM     21  C   UNL     1      84.198  46.317  42.912  0.00  0.00    -0.045 C 
ATOM     22  C   UNL     1      84.495  44.913  42.345  0.00  0.00    -0.026 C 
ATOM     23  C   UNL     1      85.503  44.096  43.163  0.00  0.00    +0.061 C 
ATOM     24  C   UNL     1      86.902  44.828  43.273  0.00  0.00    -0.006 C 
ATOM     25  C   UNL     1      87.742  44.384  42.036  0.00  0.00    -0.057 C 
ATOM     26  C   UNL     1      87.714  44.344  44.510  0.00  0.00    -0.057 C 
ATOM     27  C   UNL     1      86.187  53.985  45.142  0.00  0.00    -0.059 C 
ENDROOT
BRANCH   1  29
ATOM     28  C   UNL     1      81.561  52.657  42.471  0.00  0.00    -0.044 C 
ATOM     29  C   UNL     1      82.698  53.605  42.169  0.00  0.00    -0.076 C 
ATOM     30  C   UNL     1      82.748  54.173  40.953  0.00  0.00    -0.099 C 
ENDBRANCH   1  29
BRANCH  23  31
ATOM     31  O   UNL     1      84.907  43.675  44.372  0.00  0.00    -0.391 OA
ATOM     32  H   UNL     1      84.523  44.441  44.826  0.00  0.00    +0.000 HD
ENDBRANCH  23  31
TORSDOF 2
ENDMDL
MODEL 5
REMARK VINA RESULT:    -6.951      4.326      8.710
REMARK INTER + INTRA:          -7.206
REMARK INTER:                  -7.168
REMARK INTRA:                  -0.038
REMARK UNBOUND:                 0.355
REMARK  Name = 
REMARK  9 active torsions:
REMARK  status: ('A' for Active; 'I' for Inactive)
REMARK    1  A    between atoms: C_1  and  C_2
REMARK    2  A    between atoms: C_2  and  C_4
REMARK    3  A    between atoms: C_7  and  C_31
REMARK    4  A    between atoms: C_13  and  C_18
REMARK    5  A    between atoms: C_14  and  C_15
REMARK    6  A    between atoms: C_22  and  C_23
REMARK    7  A    between atoms: C_26  and  O_30
REMARK    8  A    between atoms: C_27  and  C_28
REMARK    9  A    between atoms: C_27  and  C_29
REMARK                            x       y       z     vdW  Elec       q    Type
REMARK                         _______ _______ _______ _____ _____    ______ ____
ROOT
ATOM      1  C   UNL     1      89.120  47.605  42.219  0.00  0.00    -0.017 C 
ATOM      2  C   UNL     1      90.490  48.327  42.142  0.00  0.00    -0.046 C 
ATOM      3  C   UNL     1      90.288  49.727  42.750  0.00  0.00    -0.047 C 
ATOM      4  C   UNL     1      88.774  49.961  42.689  0.00  0.00    -0.028 C 
ATOM      5  C   UNL     1      88.243  48.563  43.048  0.00  0.00    -0.026 C 
ATOM      6  C   UNL     1      86.692  48.514  42.955  0.00  0.00    -0.031 C 
ATOM      7  C   UNL     1      86.109  47.101  43.126  0.00  0.00    -0.049 C 
ATOM      8  C   UNL     1      84.598  47.103  42.871  0.00  0.00    -0.049 C 
ATOM      9  C   UNL     1      83.847  48.087  43.811  0.00  0.00    -0.029 C 
ATOM     10  C   UNL     1      84.413  49.570  43.687  0.00  0.00    -0.023 C 
ATOM     11  C   UNL     1      86.018  49.553  43.957  0.00  0.00    -0.023 C 
ATOM     12  C   UNL     1      86.336  49.168  45.453  0.00  0.00    -0.059 C 
ATOM     13  C   UNL     1      86.681  50.975  43.752  0.00  0.00    -0.046 C 
ATOM     14  C   UNL     1      88.235  50.974  43.725  0.00  0.00    -0.047 C 
ATOM     15  C   UNL     1      84.102  50.181  42.278  0.00  0.00    -0.059 C 
ATOM     16  C   UNL     1      83.672  50.465  44.733  0.00  0.00    -0.047 C 
ATOM     17  C   UNL     1      82.143  50.360  44.664  0.00  0.00    -0.049 C 
ATOM     18  C   UNL     1      81.673  48.903  44.901  0.00  0.00    -0.028 C 
ATOM     19  C   UNL     1      82.260  47.899  43.832  0.00  0.00    -0.025 C 
ATOM     20  C   UNL     1      81.647  48.102  42.407  0.00  0.00    -0.059 C 
ATOM     21  C   UNL     1      81.935  46.426  44.304  0.00  0.00    -0.045 C 
ATOM     22  C   UNL     1      80.720  46.257  45.239  0.00  0.00    -0.026 C 
ATOM     23  C   UNL     1      79.605  47.290  45.029  0.00  0.00    +0.061 C 
ATOM     24  C   UNL     1      80.126  48.769  45.252  0.00  0.00    -0.006 C 
ATOM     25  C   UNL     1      79.955  49.083  46.770  0.00  0.00    -0.057 C 
ATOM     26  C   UNL     1      79.234  49.813  44.518  0.00  0.00    -0.057 C 
ATOM     27  C   UNL     1      88.430  50.447  41.243  0.00  0.00    -0.059 C 
ENDROOT
BRANCH   1  29
ATOM     28  C   UNL     1      88.320  45.085  42.442  0.00  0.00    -0.044 C 
ATOM     29  C   UNL     1      89.260  46.206  42.818  0.00  0.00    -0.076 C 
ATOM     30  C   UNL     1      90.202  45.963  43.744  0.00  0.00    -0.099 C 
ENDBRANCH   1  29
BRANCH  23  31
ATOM     31  O   UNL     1      78.932  47.027  43.817  0.00  0.00    -0.391 OA
ATOM     32  H   UNL     1      78.372  46.242  43.922  0.00  0.00    +0.000 HD
ENDBRANCH  23  31
TORSDOF 2
ENDMDL
MODEL 6
REMARK VINA RESULT:    -6.758      2.931      7.692
REMARK INTER + INTRA:          -6.995
REMARK INTER:                  -6.652
REMARK INTRA:                  -0.343
REMARK UNBOUND:                 0.355
REMARK  Name = 
REMARK  9 active torsions:
REMARK  status: ('A' for Active; 'I' for Inactive)
REMARK    1  A    between atoms: C_1  and  C_2
REMARK    2  A    between atoms: C_2  and  C_4
REMARK    3  A    between atoms: C_7  and  C_31
REMARK    4  A    between atoms: C_13  and  C_18
REMARK    5  A    between atoms: C_14  and  C_15
REMARK    6  A    between atoms: C_22  and  C_23
REMARK    7  A    between atoms: C_26  and  O_30
REMARK    8  A    between atoms: C_27  and  C_28
REMARK    9  A    between atoms: C_27  and  C_29
REMARK                            x       y       z     vdW  Elec       q    Type
REMARK                         _______ _______ _______ _____ _____    ______ ____
ROOT
ATOM      1  C   UNL     1      85.727  46.238  42.924  0.00  0.00    -0.017 C 
ATOM      2  C   UNL     1      86.645  45.019  42.650  0.00  0.00    -0.046 C 
ATOM      3  C   UNL     1      88.094  45.510  42.816  0.00  0.00    -0.047 C 
ATOM      4  C   UNL     1      88.006  47.033  42.675  0.00  0.00    -0.028 C 
ATOM      5  C   UNL     1      86.696  47.326  43.426  0.00  0.00    -0.026 C 
ATOM      6  C   UNL     1      86.326  48.833  43.338  0.00  0.00    -0.031 C 
ATOM      7  C   UNL     1      84.937  49.161  43.913  0.00  0.00    -0.049 C 
ATOM      8  C   UNL     1      84.576  50.628  43.655  0.00  0.00    -0.049 C 
ATOM      9  C   UNL     1      85.627  51.603  44.257  0.00  0.00    -0.029 C 
ATOM     10  C   UNL     1      87.092  51.308  43.706  0.00  0.00    -0.023 C 
ATOM     11  C   UNL     1      87.461  49.747  43.982  0.00  0.00    -0.023 C 
ATOM     12  C   UNL     1      87.591  49.463  45.529  0.00  0.00    -0.059 C 
ATOM     13  C   UNL     1      88.862  49.340  43.373  0.00  0.00    -0.046 C 
ATOM     14  C   UNL     1      89.151  47.813  43.361  0.00  0.00    -0.047 C 
ATOM     15  C   UNL     1      87.199  51.632  42.176  0.00  0.00    -0.059 C 
ATOM     16  C   UNL     1      88.090  52.264  44.434  0.00  0.00    -0.047 C 
ATOM     17  C   UNL     1      87.678  53.742  44.387  0.00  0.00    -0.049 C 
ATOM     18  C   UNL     1      86.290  53.955  45.039  0.00  0.00    -0.028 C 
ATOM     19  C   UNL     1      85.152  53.128  44.319  0.00  0.00    -0.025 C 
ATOM     20  C   UNL     1      84.815  53.674  42.892  0.00  0.00    -0.059 C 
ATOM     21  C   UNL     1      83.844  53.212  45.201  0.00  0.00    -0.045 C 
ATOM     22  C   UNL     1      83.721  54.435  46.134  0.00  0.00    -0.026 C 
ATOM     23  C   UNL     1      84.417  55.702  45.618  0.00  0.00    +0.061 C 
ATOM     24  C   UNL     1      85.968  55.472  45.399  0.00  0.00    -0.006 C 
ATOM     25  C   UNL     1      86.667  55.795  46.755  0.00  0.00    -0.057 C 
ATOM     26  C   UNL     1      86.566  56.488  44.382  0.00  0.00    -0.057 C 
ATOM     27  C   UNL     1      87.980  47.366  41.147  0.00  0.00    -0.059 C 
ENDROOT
BRANCH   1  29
ATOM     28  C   UNL     1      83.183  46.313  43.676  0.00  0.00    -0.044 C 
ATOM     29  C   UNL     1      84.614  45.887  43.911  0.00  0.00    -0.076 C 
ATOM     30  C   UNL     1      84.905  45.231  45.046  0.00  0.00    -0.099 C 
ENDBRANCH   1  29
BRANCH  23  31
ATOM     31  O   UNL     1      83.691  56.236  44.532  0.00  0.00    -0.391 OA
ATOM     32  H   UNL     1      83.570  57.189  44.662  0.00  0.00    +0.000 HD
ENDBRANCH  23  31
TORSDOF 2
ENDMDL
