MODEL 1
REMARK VINA RESULT:    -7.925      0.000      0.000
REMARK INTER + INTRA:          -9.103
REMARK INTER:                  -8.618
REMARK INTRA:                  -0.485
REMARK UNBOUND:                -0.483
REMARK  Name = 
REMARK  9 active torsions:
REMARK  status: ('A' for Active; 'I' for Inactive)
REMARK    1  A    between atoms: C_1  and  C_2
REMARK    2  A    between atoms: C_2  and  C_4
REMARK    3  A    between atoms: C_7  and  C_31
REMARK    4  A    between atoms: C_13  and  C_18
REMARK    5  A    between atoms: C_14  and  C_15
REMARK    6  A    between atoms: C_22  and  C_23
REMARK    7  A    between atoms: C_26  and  O_30
REMARK    8  A    between atoms: C_27  and  C_28
REMARK    9  A    between atoms: C_27  and  C_29
REMARK                            x       y       z     vdW  Elec       q    Type
REMARK                         _______ _______ _______ _____ _____    ______ ____
ROOT
ATOM      1  C   UNL     1      85.828  46.983  42.641  0.00  0.00    -0.017 C 
ATOM      2  C   UNL     1      86.819  45.939  42.064  0.00  0.00    -0.046 C 
ATOM      3  C   UNL     1      88.233  46.511  42.269  0.00  0.00    -0.047 C 
ATOM      4  C   UNL     1      88.017  48.015  42.471  0.00  0.00    -0.028 C 
ATOM      5  C   UNL     1      86.738  48.019  43.326  0.00  0.00    -0.026 C 
ATOM      6  C   UNL     1      86.247  49.470  43.588  0.00  0.00    -0.031 C 
ATOM      7  C   UNL     1      84.876  49.540  44.283  0.00  0.00    -0.049 C 
ATOM      8  C   UNL     1      84.386  50.990  44.371  0.00  0.00    -0.049 C 
ATOM      9  C   UNL     1      85.392  51.903  45.125  0.00  0.00    -0.029 C 
ATOM     10  C   UNL     1      86.838  51.867  44.457  0.00  0.00    -0.023 C 
ATOM     11  C   UNL     1      87.345  50.323  44.366  0.00  0.00    -0.023 C 
ATOM     12  C   UNL     1      87.595  49.726  45.805  0.00  0.00    -0.059 C 
ATOM     13  C   UNL     1      88.733  50.185  43.620  0.00  0.00    -0.046 C 
ATOM     14  C   UNL     1      89.139  48.729  43.259  0.00  0.00    -0.047 C 
ATOM     15  C   UNL     1      86.822  52.521  43.033  0.00  0.00    -0.059 C 
ATOM     16  C   UNL     1      87.803  52.730  45.332  0.00  0.00    -0.047 C 
ATOM     17  C   UNL     1      87.274  54.140  45.629  0.00  0.00    -0.049 C 
ATOM     18  C   UNL     1      85.918  54.082  46.374  0.00  0.00    -0.028 C 
ATOM     19  C   UNL     1      84.805  53.330  45.542  0.00  0.00    -0.025 C 
ATOM     20  C   UNL     1      84.335  54.138  44.286  0.00  0.00    -0.059 C 
ATOM     21  C   UNL     1      83.553  53.104  46.479  0.00  0.00    -0.045 C 
ATOM     22  C   UNL     1      83.395  54.081  47.662  0.00  0.00    -0.026 C 
ATOM     23  C   UNL     1      83.954  55.486  47.407  0.00  0.00    +0.061 C 
ATOM     24  C   UNL     1      85.502  55.450  47.073  0.00  0.00    -0.006 C 
ATOM     25  C   UNL     1      86.258  55.535  48.435  0.00  0.00    -0.057 C 
ATOM     26  C   UNL     1      85.952  56.711  46.279  0.00  0.00    -0.057 C 
ATOM     27  C   UNL     1      87.868  48.665  41.056  0.00  0.00    -0.059 C 
ENDROOT
BRANCH   1  29
ATOM     28  C   UNL     1      83.323  46.487  43.363  0.00  0.00    -0.044 C 
ATOM     29  C   UNL     1      84.810  46.328  43.576  0.00  0.00    -0.076 C 
ATOM     30  C   UNL     1      85.231  45.637  44.648  0.00  0.00    -0.099 C 
ENDBRANCH   1  29
BRANCH  23  31
ATOM     31  O   UNL     1      83.122  56.174  46.498  0.00  0.00    -0.391 OA
ATOM     32  H   UNL     1      82.356  56.536  46.972  0.00  0.00    +0.000 HD
ENDBRANCH  23  31
TORSDOF 2
ENDMDL
MODEL 2
REMARK VINA RESULT:    -7.855      2.920      7.807
REMARK INTER + INTRA:          -9.027
REMARK INTER:                  -8.553
REMARK INTRA:                  -0.474
REMARK UNBOUND:                -0.483
REMARK  Name = 
REMARK  9 active torsions:
REMARK  status: ('A' for Active; 'I' for Inactive)
REMARK    1  A    between atoms: C_1  and  C_2
REMARK    2  A    between atoms: C_2  and  C_4
REMARK    3  A    between atoms: C_7  and  C_31
REMARK    4  A    between atoms: C_13  and  C_18
REMARK    5  A    between atoms: C_14  and  C_15
REMARK    6  A    between atoms: C_22  and  C_23
REMARK    7  A    between atoms: C_26  and  O_30
REMARK    8  A    between atoms: C_27  and  C_28
REMARK    9  A    between atoms: C_27  and  C_29
REMARK                            x       y       z     vdW  Elec       q    Type
REMARK                         _______ _______ _______ _____ _____    ______ ____
ROOT
ATOM      1  C   UNL     1      84.417  55.411  47.129  0.00  0.00    -0.017 C 
ATOM      2  C   UNL     1      83.769  55.453  48.536  0.00  0.00    -0.046 C 
ATOM      3  C   UNL     1      84.112  54.118  49.221  0.00  0.00    -0.047 C 
ATOM      4  C   UNL     1      84.483  53.176  48.071  0.00  0.00    -0.028 C 
ATOM      5  C   UNL     1      85.267  54.126  47.150  0.00  0.00    -0.026 C 
ATOM      6  C   UNL     1      85.678  53.413  45.831  0.00  0.00    -0.031 C 
ATOM      7  C   UNL     1      86.306  54.357  44.791  0.00  0.00    -0.049 C 
ATOM      8  C   UNL     1      86.543  53.623  43.466  0.00  0.00    -0.049 C 
ATOM      9  C   UNL     1      87.451  52.374  43.644  0.00  0.00    -0.029 C 
ATOM     10  C   UNL     1      86.857  51.359  44.719  0.00  0.00    -0.023 C 
ATOM     11  C   UNL     1      86.607  52.152  46.119  0.00  0.00    -0.023 C 
ATOM     12  C   UNL     1      87.974  52.605  46.764  0.00  0.00    -0.059 C 
ATOM     13  C   UNL     1      85.920  51.241  47.215  0.00  0.00    -0.046 C 
ATOM     14  C   UNL     1      85.407  52.002  48.469  0.00  0.00    -0.047 C 
ATOM     15  C   UNL     1      85.524  50.711  44.212  0.00  0.00    -0.059 C 
ATOM     16  C   UNL     1      87.878  50.190  44.905  0.00  0.00    -0.047 C 
ATOM     17  C   UNL     1      88.316  49.537  43.587  0.00  0.00    -0.049 C 
ATOM     18  C   UNL     1      88.979  50.572  42.644  0.00  0.00    -0.028 C 
ATOM     19  C   UNL     1      88.007  51.761  42.277  0.00  0.00    -0.025 C 
ATOM     20  C   UNL     1      86.837  51.321  41.336  0.00  0.00    -0.059 C 
ATOM     21  C   UNL     1      88.846  52.875  41.532  0.00  0.00    -0.045 C 
ATOM     22  C   UNL     1      90.129  52.404  40.816  0.00  0.00    -0.026 C 
ATOM     23  C   UNL     1      90.074  50.964  40.290  0.00  0.00    +0.061 C 
ATOM     24  C   UNL     1      89.817  49.923  41.456  0.00  0.00    -0.006 C 
ATOM     25  C   UNL     1      91.215  49.527  42.023  0.00  0.00    -0.057 C 
ATOM     26  C   UNL     1      89.204  48.596  40.921  0.00  0.00    -0.057 C 
ATOM     27  C   UNL     1      83.151  52.620  47.467  0.00  0.00    -0.059 C 
ENDROOT
BRANCH   1  29
ATOM     28  C   UNL     1      84.649  57.798  45.992  0.00  0.00    -0.044 C 
ATOM     29  C   UNL     1      85.213  56.684  46.843  0.00  0.00    -0.076 C 
ATOM     30  C   UNL     1      86.467  56.810  47.307  0.00  0.00    -0.099 C 
ENDBRANCH   1  29
BRANCH  23  31
ATOM     31  O   UNL     1      89.214  50.896  39.173  0.00  0.00    -0.391 OA
ATOM     32  H   UNL     1      88.917  51.789  38.940  0.00  0.00    +0.000 HD
ENDBRANCH  23  31
TORSDOF 2
ENDMDL
MODEL 3
REMARK VINA RESULT:    -6.229      3.613      5.798
REMARK INTER + INTRA:          -7.258
REMARK INTER:                  -7.331
REMARK INTRA:                   0.074
REMARK UNBOUND:                -0.483
REMARK  Name = 
REMARK  9 active torsions:
REMARK  status: ('A' for Active; 'I' for Inactive)
REMARK    1  A    between atoms: C_1  and  C_2
REMARK    2  A    between atoms: C_2  and  C_4
REMARK    3  A    between atoms: C_7  and  C_31
REMARK    4  A    between atoms: C_13  and  C_18
REMARK    5  A    between atoms: C_14  and  C_15
REMARK    6  A    between atoms: C_22  and  C_23
REMARK    7  A    between atoms: C_26  and  O_30
REMARK    8  A    between atoms: C_27  and  C_28
REMARK    9  A    between atoms: C_27  and  C_29
REMARK                            x       y       z     vdW  Elec       q    Type
REMARK                         _______ _______ _______ _____ _____    ______ ____
ROOT
ATOM      1  C   UNL     1      89.330  47.725  41.990  0.00  0.00    -0.017 C 
ATOM      2  C   UNL     1      90.681  48.483  41.946  0.00  0.00    -0.046 C 
ATOM      3  C   UNL     1      90.426  49.878  42.542  0.00  0.00    -0.047 C 
ATOM      4  C   UNL     1      88.909  50.071  42.440  0.00  0.00    -0.028 C 
ATOM      5  C   UNL     1      88.405  48.661  42.791  0.00  0.00    -0.026 C 
ATOM      6  C   UNL     1      86.860  48.570  42.657  0.00  0.00    -0.031 C 
ATOM      7  C   UNL     1      86.310  47.142  42.818  0.00  0.00    -0.049 C 
ATOM      8  C   UNL     1      84.807  47.103  42.523  0.00  0.00    -0.049 C 
ATOM      9  C   UNL     1      84.005  48.070  43.439  0.00  0.00    -0.029 C 
ATOM     10  C   UNL     1      84.534  49.568  43.324  0.00  0.00    -0.023 C 
ATOM     11  C   UNL     1      86.132  49.595  43.636  0.00  0.00    -0.023 C 
ATOM     12  C   UNL     1      86.419  49.223  45.142  0.00  0.00    -0.059 C 
ATOM     13  C   UNL     1      86.761  51.033  43.443  0.00  0.00    -0.046 C 
ATOM     14  C   UNL     1      88.315  51.073  43.457  0.00  0.00    -0.047 C 
ATOM     15  C   UNL     1      84.245  50.165  41.904  0.00  0.00    -0.059 C 
ATOM     16  C   UNL     1      83.742  50.446  44.345  0.00  0.00    -0.047 C 
ATOM     17  C   UNL     1      82.219  50.299  44.237  0.00  0.00    -0.049 C 
ATOM     18  C   UNL     1      81.782  48.831  44.467  0.00  0.00    -0.028 C 
ATOM     19  C   UNL     1      82.423  47.840  43.419  0.00  0.00    -0.025 C 
ATOM     20  C   UNL     1      81.843  48.021  41.977  0.00  0.00    -0.059 C 
ATOM     21  C   UNL     1      82.125  46.360  43.888  0.00  0.00    -0.045 C 
ATOM     22  C   UNL     1      80.890  46.162  44.791  0.00  0.00    -0.026 C 
ATOM     23  C   UNL     1      79.755  47.164  44.547  0.00  0.00    +0.061 C 
ATOM     24  C   UNL     1      80.230  48.657  44.777  0.00  0.00    -0.006 C 
ATOM     25  C   UNL     1      80.010  48.972  46.289  0.00  0.00    -0.057 C 
ATOM     26  C   UNL     1      79.331  49.675  44.015  0.00  0.00    -0.057 C 
ATOM     27  C   UNL     1      88.590  50.543  40.983  0.00  0.00    -0.059 C 
ENDROOT
BRANCH   1  29
ATOM     28  C   UNL     1      88.525  45.213  42.284  0.00  0.00    -0.044 C 
ATOM     29  C   UNL     1      89.491  46.332  42.598  0.00  0.00    -0.076 C 
ATOM     30  C   UNL     1      90.477  46.093  43.478  0.00  0.00    -0.099 C 
ENDBRANCH   1  29
BRANCH  23  31
ATOM     31  O   UNL     1      79.122  46.878  43.318  0.00  0.00    -0.391 OA
ATOM     32  H   UNL     1      79.433  47.501  42.642  0.00  0.00    +0.000 HD
ENDBRANCH  23  31
TORSDOF 2
ENDMDL
MODEL 4
REMARK VINA RESULT:    -6.142      1.469      3.758
REMARK INTER + INTRA:          -7.163
REMARK INTER:                  -6.712
REMARK INTRA:                  -0.451
REMARK UNBOUND:                -0.483
REMARK  Name = 
REMARK  9 active torsions:
REMARK  status: ('A' for Active; 'I' for Inactive)
REMARK    1  A    between atoms: C_1  and  C_2
REMARK    2  A    between atoms: C_2  and  C_4
REMARK    3  A    between atoms: C_7  and  C_31
REMARK    4  A    between atoms: C_13  and  C_18
REMARK    5  A    between atoms: C_14  and  C_15
REMARK    6  A    between atoms: C_22  and  C_23
REMARK    7  A    between atoms: C_26  and  O_30
REMARK    8  A    between atoms: C_27  and  C_28
REMARK    9  A    between atoms: C_27  and  C_29
REMARK                            x       y       z     vdW  Elec       q    Type
REMARK                         _______ _______ _______ _____ _____    ______ ____
ROOT
ATOM      1  C   UNL     1      89.316  47.313  42.867  0.00  0.00    -0.017 C 
ATOM      2  C   UNL     1      89.118  45.981  42.101  0.00  0.00    -0.046 C 
ATOM      3  C   UNL     1      87.627  45.902  41.726  0.00  0.00    -0.047 C 
ATOM      4  C   UNL     1      86.936  46.879  42.683  0.00  0.00    -0.028 C 
ATOM      5  C   UNL     1      87.958  48.028  42.725  0.00  0.00    -0.026 C 
ATOM      6  C   UNL     1      87.520  49.128  43.732  0.00  0.00    -0.031 C 
ATOM      7  C   UNL     1      88.585  50.216  43.956  0.00  0.00    -0.049 C 
ATOM      8  C   UNL     1      88.152  51.178  45.068  0.00  0.00    -0.049 C 
ATOM      9  C   UNL     1      86.785  51.850  44.761  0.00  0.00    -0.029 C 
ATOM     10  C   UNL     1      85.639  50.772  44.509  0.00  0.00    -0.023 C 
ATOM     11  C   UNL     1      86.113  49.756  43.329  0.00  0.00    -0.023 C 
ATOM     12  C   UNL     1      86.215  50.506  41.945  0.00  0.00    -0.059 C 
ATOM     13  C   UNL     1      85.075  48.588  43.084  0.00  0.00    -0.046 C 
ATOM     14  C   UNL     1      85.588  47.439  42.173  0.00  0.00    -0.047 C 
ATOM     15  C   UNL     1      85.312  49.975  45.819  0.00  0.00    -0.059 C 
ATOM     16  C   UNL     1      84.332  51.531  44.113  0.00  0.00    -0.047 C 
ATOM     17  C   UNL     1      83.948  52.653  45.087  0.00  0.00    -0.049 C 
ATOM     18  C   UNL     1      85.073  53.712  45.190  0.00  0.00    -0.028 C 
ATOM     19  C   UNL     1      86.435  53.096  45.699  0.00  0.00    -0.025 C 
ATOM     20  C   UNL     1      86.387  52.675  47.205  0.00  0.00    -0.059 C 
ATOM     21  C   UNL     1      87.567  54.186  45.528  0.00  0.00    -0.045 C 
ATOM     22  C   UNL     1      87.106  55.658  45.512  0.00  0.00    -0.026 C 
ATOM     23  C   UNL     1      85.847  55.941  46.343  0.00  0.00    +0.061 C 
ATOM     24  C   UNL     1      84.610  55.089  45.842  0.00  0.00    -0.006 C 
ATOM     25  C   UNL     1      83.908  55.927  44.729  0.00  0.00    -0.057 C 
ATOM     26  C   UNL     1      83.537  54.915  46.957  0.00  0.00    -0.057 C 
ATOM     27  C   UNL     1      86.720  46.136  44.043  0.00  0.00    -0.059 C 
ENDROOT
BRANCH   1  29
ATOM     28  C   UNL     1      91.597  48.624  43.215  0.00  0.00    -0.044 C 
ATOM     29  C   UNL     1      90.501  48.105  42.314  0.00  0.00    -0.076 C 
ATOM     30  C   UNL     1      90.557  48.402  41.006  0.00  0.00    -0.099 C 
ENDBRANCH   1  29
BRANCH  23  31
ATOM     31  O   UNL     1      86.156  55.868  47.718  0.00  0.00    -0.391 OA
ATOM     32  H   UNL     1      85.823  55.032  48.080  0.00  0.00    +0.000 HD
ENDBRANCH  23  31
TORSDOF 2
ENDMDL
MODEL 5
REMARK VINA RESULT:    -5.907      2.990      7.738
REMARK INTER + INTRA:          -6.908
REMARK INTER:                  -6.813
REMARK INTRA:                  -0.095
REMARK UNBOUND:                -0.483
REMARK  Name = 
REMARK  9 active torsions:
REMARK  status: ('A' for Active; 'I' for Inactive)
REMARK    1  A    between atoms: C_1  and  C_2
REMARK    2  A    between atoms: C_2  and  C_4
REMARK    3  A    between atoms: C_7  and  C_31
REMARK    4  A    between atoms: C_13  and  C_18
REMARK    5  A    between atoms: C_14  and  C_15
REMARK    6  A    between atoms: C_22  and  C_23
REMARK    7  A    between atoms: C_26  and  O_30
REMARK    8  A    between atoms: C_27  and  C_28
REMARK    9  A    between atoms: C_27  and  C_29
REMARK                            x       y       z     vdW  Elec       q    Type
REMARK                         _______ _______ _______ _____ _____    ______ ____
ROOT
ATOM      1  C   UNL     1      83.710  54.024  42.810  0.00  0.00    -0.017 C 
ATOM      2  C   UNL     1      84.209  55.491  42.791  0.00  0.00    -0.046 C 
ATOM      3  C   UNL     1      85.747  55.436  42.825  0.00  0.00    -0.047 C 
ATOM      4  C   UNL     1      86.073  54.038  43.360  0.00  0.00    -0.028 C 
ATOM      5  C   UNL     1      84.998  53.192  42.656  0.00  0.00    -0.026 C 
ATOM      6  C   UNL     1      85.058  51.711  43.124  0.00  0.00    -0.031 C 
ATOM      7  C   UNL     1      83.896  50.851  42.597  0.00  0.00    -0.049 C 
ATOM      8  C   UNL     1      83.933  49.451  43.218  0.00  0.00    -0.049 C 
ATOM      9  C   UNL     1      85.278  48.723  42.942  0.00  0.00    -0.029 C 
ATOM     10  C   UNL     1      86.524  49.571  43.459  0.00  0.00    -0.023 C 
ATOM     11  C   UNL     1      86.472  51.056  42.795  0.00  0.00    -0.023 C 
ATOM     12  C   UNL     1      86.702  50.986  41.236  0.00  0.00    -0.059 C 
ATOM     13  C   UNL     1      87.619  52.001  43.335  0.00  0.00    -0.046 C 
ATOM     14  C   UNL     1      87.465  53.499  42.956  0.00  0.00    -0.047 C 
ATOM     15  C   UNL     1      86.533  49.671  45.023  0.00  0.00    -0.059 C 
ATOM     16  C   UNL     1      87.831  48.815  43.054  0.00  0.00    -0.047 C 
ATOM     17  C   UNL     1      87.847  47.339  43.474  0.00  0.00    -0.049 C 
ATOM     18  C   UNL     1      86.663  46.566  42.841  0.00  0.00    -0.028 C 
ATOM     19  C   UNL     1      85.262  47.158  43.266  0.00  0.00    -0.025 C 
ATOM     20  C   UNL     1      84.922  46.895  44.771  0.00  0.00    -0.059 C 
ATOM     21  C   UNL     1      84.145  46.474  42.381  0.00  0.00    -0.045 C 
ATOM     22  C   UNL     1      84.484  45.085  41.801  0.00  0.00    -0.026 C 
ATOM     23  C   UNL     1      85.439  44.250  42.664  0.00  0.00    +0.061 C 
ATOM     24  C   UNL     1      86.826  44.983  42.882  0.00  0.00    -0.006 C 
ATOM     25  C   UNL     1      87.745  44.570  41.691  0.00  0.00    -0.057 C 
ATOM     26  C   UNL     1      87.557  44.470  44.157  0.00  0.00    -0.057 C 
ATOM     27  C   UNL     1      85.958  54.090  44.919  0.00  0.00    -0.059 C 
ENDROOT
BRANCH   1  29
ATOM     28  C   UNL     1      81.550  52.777  41.902  0.00  0.00    -0.044 C 
ATOM     29  C   UNL     1      82.670  53.774  41.718  0.00  0.00    -0.076 C 
ATOM     30  C   UNL     1      82.769  54.410  40.538  0.00  0.00    -0.099 C 
ENDBRANCH   1  29
BRANCH  23  31
ATOM     31  O   UNL     1      84.767  43.799  43.820  0.00  0.00    -0.391 OA
ATOM     32  H   UNL     1      83.928  43.384  43.565  0.00  0.00    +0.000 HD
ENDBRANCH  23  31
TORSDOF 2
ENDMDL
MODEL 6
REMARK VINA RESULT:    -5.385      1.822      3.520
REMARK INTER + INTRA:          -6.340
REMARK INTER:                  -6.369
REMARK INTRA:                   0.029
REMARK UNBOUND:                -0.483
REMARK  Name = 
REMARK  9 active torsions:
REMARK  status: ('A' for Active; 'I' for Inactive)
REMARK    1  A    between atoms: C_1  and  C_2
REMARK    2  A    between atoms: C_2  and  C_4
REMARK    3  A    between atoms: C_7  and  C_31
REMARK    4  A    between atoms: C_13  and  C_18
REMARK    5  A    between atoms: C_14  and  C_15
REMARK    6  A    between atoms: C_22  and  C_23
REMARK    7  A    between atoms: C_26  and  O_30
REMARK    8  A    between atoms: C_27  and  C_28
REMARK    9  A    between atoms: C_27  and  C_29
REMARK                            x       y       z     vdW  Elec       q    Type
REMARK                         _______ _______ _______ _____ _____    ______ ____
ROOT
ATOM      1  C   UNL     1      89.526  48.360  43.410  0.00  0.00    -0.017 C 
ATOM      2  C   UNL     1      89.971  47.483  42.212  0.00  0.00    -0.046 C 
ATOM      3  C   UNL     1      89.366  48.119  40.948  0.00  0.00    -0.047 C 
ATOM      4  C   UNL     1      88.220  48.995  41.466  0.00  0.00    -0.028 C 
ATOM      5  C   UNL     1      88.844  49.573  42.748  0.00  0.00    -0.026 C 
ATOM      6  C   UNL     1      87.816  50.440  43.528  0.00  0.00    -0.031 C 
ATOM      7  C   UNL     1      88.318  50.898  44.908  0.00  0.00    -0.049 C 
ATOM      8  C   UNL     1      87.204  51.614  45.680  0.00  0.00    -0.049 C 
ATOM      9  C   UNL     1      86.646  52.838  44.902  0.00  0.00    -0.029 C 
ATOM     10  C   UNL     1      86.117  52.428  43.456  0.00  0.00    -0.023 C 
ATOM     11  C   UNL     1      87.308  51.667  42.649  0.00  0.00    -0.023 C 
ATOM     12  C   UNL     1      88.497  52.654  42.334  0.00  0.00    -0.059 C 
ATOM     13  C   UNL     1      86.836  51.133  41.237  0.00  0.00    -0.046 C 
ATOM     14  C   UNL     1      87.831  50.168  40.537  0.00  0.00    -0.047 C 
ATOM     15  C   UNL     1      84.850  51.511  43.554  0.00  0.00    -0.059 C 
ATOM     16  C   UNL     1      85.669  53.728  42.713  0.00  0.00    -0.047 C 
ATOM     17  C   UNL     1      84.700  54.601  43.522  0.00  0.00    -0.049 C 
ATOM     18  C   UNL     1      85.334  55.042  44.864  0.00  0.00    -0.028 C 
ATOM     19  C   UNL     1      85.731  53.815  45.776  0.00  0.00    -0.025 C 
ATOM     20  C   UNL     1      84.488  53.060  46.354  0.00  0.00    -0.059 C 
ATOM     21  C   UNL     1      86.588  54.355  46.989  0.00  0.00    -0.045 C 
ATOM     22  C   UNL     1      86.373  55.831  47.379  0.00  0.00    -0.026 C 
ATOM     23  C   UNL     1      84.961  56.364  47.102  0.00  0.00    +0.061 C 
ATOM     24  C   UNL     1      84.583  56.257  45.568  0.00  0.00    -0.006 C 
ATOM     25  C   UNL     1      85.074  57.573  44.890  0.00  0.00    -0.057 C 
ATOM     26  C   UNL     1      83.041  56.238  45.351  0.00  0.00    -0.057 C 
ATOM     27  C   UNL     1      86.982  48.067  41.694  0.00  0.00    -0.059 C 
ENDROOT
BRANCH   1  29
ATOM     28  C   UNL     1      90.526  49.030  45.775  0.00  0.00    -0.044 C 
ATOM     29  C   UNL     1      90.710  48.721  44.308  0.00  0.00    -0.076 C 
ATOM     30  C   UNL     1      91.943  48.821  43.785  0.00  0.00    -0.099 C 
ENDBRANCH   1  29
BRANCH  23  31
ATOM     31  O   UNL     1      84.050  55.804  48.024  0.00  0.00    -0.391 OA
ATOM     32  H   UNL     1      83.428  56.488  48.319  0.00  0.00    +0.000 HD
ENDBRANCH  23  31
TORSDOF 2
ENDMDL
