MODEL 1
REMARK VINA RESULT:    -4.673      0.000      0.000
REMARK INTER + INTRA:          -6.345
REMARK INTER:                  -6.892
REMARK INTRA:                   0.547
REMARK UNBOUND:                 1.333
REMARK  Name = 
REMARK  22 active torsions:
REMARK  status: ('A' for Active; 'I' for Inactive)
REMARK    1  A    between atoms: C_1  and  C_2
REMARK    2  A    between atoms: C_2  and  C_26
REMARK    3  A    between atoms: C_3  and  C_4
REMARK    4  A    between atoms: C_5  and  C_6
REMARK    5  A    between atoms: C_7  and  C_8
REMARK    6  A    between atoms: C_7  and  C_25
REMARK    7  A    between atoms: C_9  and  C_10
REMARK    8  A    between atoms: C_11  and  C_12
REMARK    9  A    between atoms: C_11  and  C_24
REMARK   10  A    between atoms: C_13  and  C_14
REMARK   11  A    between atoms: C_15  and  C_16
REMARK   12  A    between atoms: C_18  and  O_23
REMARK   13  A    between atoms: C_20  and  C_21
REMARK   14  A    between atoms: C_20  and  C_22
REMARK   15  A    between atoms: C_27  and  C_28
REMARK   16  A    between atoms: C_29  and  C_30
REMARK   17  A    between atoms: C_29  and  C_42
REMARK   18  A    between atoms: C_31  and  C_32
REMARK   19  A    between atoms: C_33  and  C_41
REMARK   20  A    between atoms: C_35  and  O_40
REMARK   21  A    between atoms: C_37  and  C_38
REMARK   22  A    between atoms: C_37  and  C_39
REMARK                            x       y       z     vdW  Elec       q    Type
REMARK                         _______ _______ _______ _____ _____    ______ ____
ROOT
ATOM      1  C   UNL     1      84.031  51.886  49.840  0.00  0.00    -0.062 C 
ATOM      2  C   UNL     1      85.323  51.792  49.518  0.00  0.00    -0.062 C 
ENDROOT
BRANCH   1   5
ATOM      3  C   UNL     1      81.226  50.924  50.479  0.00  0.00    -0.040 C 
ATOM      4  C   UNL     1      82.350  51.033  51.481  0.00  0.00    -0.050 C 
ATOM      5  C   UNL     1      83.563  51.549  51.206  0.00  0.00    -0.059 C 
BRANCH   4   6
ATOM      6  C   UNL     1      82.013  50.708  52.877  0.00  0.00    -0.059 C 
ATOM      7  C   UNL     1      82.143  51.633  53.812  0.00  0.00    -0.061 C 
BRANCH   7   8
ATOM      8  C   UNL     1      82.240  51.278  55.239  0.00  0.00    -0.059 C 
ATOM      9  C   UNL     1      83.199  50.446  55.701  0.00  0.00    -0.051 C 
ATOM     10  C   UNL     1      84.141  49.738  54.776  0.00  0.00    -0.040 C 
BRANCH   9  11
ATOM     11  C   UNL     1      83.379  50.266  57.156  0.00  0.00    -0.062 C 
ATOM     12  C   UNL     1      82.860  51.096  58.027  0.00  0.00    -0.076 C 
BRANCH  12  13
ATOM     13  C   UNL     1      82.946  50.844  59.519  0.00  0.00    +0.003 C 
ATOM     14  C   UNL     1      84.307  50.282  59.944  0.00  0.00    -0.067 C 
ATOM     15  C   UNL     1      84.519  50.142  61.262  0.00  0.00    -0.056 C 
ATOM     16  C   UNL     1      83.514  50.665  62.258  0.00  0.00    +0.074 C 
ATOM     17  C   UNL     1      83.110  52.073  61.802  0.00  0.00    -0.017 C 
ATOM     18  C   UNL     1      82.505  52.120  60.359  0.00  0.00    -0.022 C 
ATOM     19  C   UNL     1      80.958  52.141  60.475  0.00  0.00    -0.059 C 
ATOM     20  C   UNL     1      82.961  53.451  59.670  0.00  0.00    -0.059 C 
ATOM     21  C   UNL     1      85.399  49.912  58.960  0.00  0.00    -0.043 C 
BRANCH  16  22
ATOM     22  O   UNL     1      82.380  49.830  62.314  0.00  0.00    -0.388 OA
ATOM     23  H   UNL     1      82.107  49.596  61.413  0.00  0.00    +0.000 HD
ENDBRANCH  16  22
ENDBRANCH  12  13
ENDBRANCH   9  11
ENDBRANCH   7   8
ENDBRANCH   4   6
ENDBRANCH   1   5
BRANCH   2  24
ATOM     24  C   UNL     1      85.829  52.135  48.181  0.00  0.00    -0.059 C 
ATOM     25  C   UNL     1      86.905  51.550  47.625  0.00  0.00    -0.050 C 
ATOM     26  C   UNL     1      87.636  50.389  48.314  0.00  0.00    -0.040 C 
BRANCH  25  27
ATOM     27  C   UNL     1      87.327  52.000  46.285  0.00  0.00    -0.059 C 
ATOM     28  C   UNL     1      86.939  51.379  45.172  0.00  0.00    -0.061 C 
BRANCH  28  29
ATOM     29  C   UNL     1      86.986  52.062  43.874  0.00  0.00    -0.059 C 
ATOM     30  C   UNL     1      86.576  53.345  43.781  0.00  0.00    -0.050 C 
ATOM     31  C   UNL     1      86.339  54.160  45.035  0.00  0.00    -0.040 C 
BRANCH  30  32
ATOM     32  C   UNL     1      86.267  53.914  42.444  0.00  0.00    -0.059 C 
ATOM     33  C   UNL     1      85.068  53.703  41.891  0.00  0.00    -0.058 C 
BRANCH  33  34
ATOM     34  C   UNL     1      84.598  54.395  40.670  0.00  0.00    -0.043 C 
ATOM     35  C   UNL     1      85.345  54.387  39.533  0.00  0.00    -0.067 C 
ATOM     36  C   UNL     1      86.688  53.677  39.461  0.00  0.00    -0.043 C 
ATOM     37  C   UNL     1      84.860  55.100  38.292  0.00  0.00    -0.005 C 
ATOM     38  C   UNL     1      84.000  56.308  38.655  0.00  0.00    +0.060 C 
ATOM     39  C   UNL     1      82.788  55.778  39.434  0.00  0.00    -0.017 C 
ATOM     40  C   UNL     1      83.212  55.058  40.755  0.00  0.00    -0.008 C 
ATOM     41  C   UNL     1      83.247  56.093  41.908  0.00  0.00    -0.056 C 
ATOM     42  C   UNL     1      82.143  53.980  41.052  0.00  0.00    -0.056 C 
BRANCH  38  43
ATOM     43  O   UNL     1      83.551  56.935  37.483  0.00  0.00    -0.391 OA
ATOM     44  H   UNL     1      84.274  56.967  36.836  0.00  0.00    +0.000 HD
ENDBRANCH  38  43
ENDBRANCH  33  34
ENDBRANCH  30  32
ENDBRANCH  28  29
ENDBRANCH  25  27
ENDBRANCH   2  24
TORSDOF 12
ENDMDL
MODEL 2
REMARK VINA RESULT:    -3.924      2.758      3.916
REMARK INTER + INTRA:          -5.116
REMARK INTER:                  -4.984
REMARK INTRA:                  -0.131
REMARK UNBOUND:                 1.333
REMARK  Name = 
REMARK  22 active torsions:
REMARK  status: ('A' for Active; 'I' for Inactive)
REMARK    1  A    between atoms: C_1  and  C_2
REMARK    2  A    between atoms: C_2  and  C_26
REMARK    3  A    between atoms: C_3  and  C_4
REMARK    4  A    between atoms: C_5  and  C_6
REMARK    5  A    between atoms: C_7  and  C_8
REMARK    6  A    between atoms: C_7  and  C_25
REMARK    7  A    between atoms: C_9  and  C_10
REMARK    8  A    between atoms: C_11  and  C_12
REMARK    9  A    between atoms: C_11  and  C_24
REMARK   10  A    between atoms: C_13  and  C_14
REMARK   11  A    between atoms: C_15  and  C_16
REMARK   12  A    between atoms: C_18  and  O_23
REMARK   13  A    between atoms: C_20  and  C_21
REMARK   14  A    between atoms: C_20  and  C_22
REMARK   15  A    between atoms: C_27  and  C_28
REMARK   16  A    between atoms: C_29  and  C_30
REMARK   17  A    between atoms: C_29  and  C_42
REMARK   18  A    between atoms: C_31  and  C_32
REMARK   19  A    between atoms: C_33  and  C_41
REMARK   20  A    between atoms: C_35  and  O_40
REMARK   21  A    between atoms: C_37  and  C_38
REMARK   22  A    between atoms: C_37  and  C_39
REMARK                            x       y       z     vdW  Elec       q    Type
REMARK                         _______ _______ _______ _____ _____    ______ ____
ROOT
ATOM      1  C   UNL     1      83.841  51.905  49.861  0.00  0.00    -0.062 C 
ATOM      2  C   UNL     1      84.201  53.142  49.512  0.00  0.00    -0.062 C 
ENDROOT
BRANCH   1   5
ATOM      3  C   UNL     1      81.096  50.761  50.456  0.00  0.00    -0.040 C 
ATOM      4  C   UNL     1      82.164  51.022  51.491  0.00  0.00    -0.050 C 
ATOM      5  C   UNL     1      83.344  51.617  51.228  0.00  0.00    -0.059 C 
BRANCH   4   6
ATOM      6  C   UNL     1      81.794  50.758  52.891  0.00  0.00    -0.059 C 
ATOM      7  C   UNL     1      82.135  51.623  53.830  0.00  0.00    -0.061 C 
BRANCH   7   8
ATOM      8  C   UNL     1      82.184  51.237  55.252  0.00  0.00    -0.059 C 
ATOM      9  C   UNL     1      83.153  50.431  55.737  0.00  0.00    -0.051 C 
ATOM     10  C   UNL     1      84.162  49.782  54.839  0.00  0.00    -0.040 C 
BRANCH   9  11
ATOM     11  C   UNL     1      83.277  50.223  57.194  0.00  0.00    -0.062 C 
ATOM     12  C   UNL     1      82.982  51.165  58.057  0.00  0.00    -0.076 C 
BRANCH  12  13
ATOM     13  C   UNL     1      82.996  50.911  59.550  0.00  0.00    +0.003 C 
ATOM     14  C   UNL     1      84.334  50.346  60.040  0.00  0.00    -0.067 C 
ATOM     15  C   UNL     1      84.482  50.204  61.367  0.00  0.00    -0.056 C 
ATOM     16  C   UNL     1      83.432  50.728  62.314  0.00  0.00    +0.074 C 
ATOM     17  C   UNL     1      83.053  52.137  61.841  0.00  0.00    -0.017 C 
ATOM     18  C   UNL     1      82.517  52.187  60.370  0.00  0.00    -0.022 C 
ATOM     19  C   UNL     1      80.967  52.211  60.411  0.00  0.00    -0.059 C 
ATOM     20  C   UNL     1      83.009  53.518  59.705  0.00  0.00    -0.059 C 
ATOM     21  C   UNL     1      85.471  49.974  59.109  0.00  0.00    -0.043 C 
BRANCH  16  22
ATOM     22  O   UNL     1      82.294  49.896  62.314  0.00  0.00    -0.388 OA
ATOM     23  H   UNL     1      81.501  50.433  62.467  0.00  0.00    +0.000 HD
ENDBRANCH  16  22
ENDBRANCH  12  13
ENDBRANCH   9  11
ENDBRANCH   7   8
ENDBRANCH   4   6
ENDBRANCH   1   5
BRANCH   2  24
ATOM     24  C   UNL     1      84.680  53.472  48.162  0.00  0.00    -0.059 C 
ATOM     25  C   UNL     1      84.342  54.601  47.513  0.00  0.00    -0.050 C 
ATOM     26  C   UNL     1      83.502  55.695  48.185  0.00  0.00    -0.040 C 
BRANCH  25  27
ATOM     27  C   UNL     1      84.870  54.803  46.150  0.00  0.00    -0.059 C 
ATOM     28  C   UNL     1      86.162  54.653  45.860  0.00  0.00    -0.061 C 
BRANCH  28  29
ATOM     29  C   UNL     1      86.601  54.423  44.478  0.00  0.00    -0.059 C 
ATOM     30  C   UNL     1      86.218  53.298  43.837  0.00  0.00    -0.050 C 
ATOM     31  C   UNL     1      85.128  52.424  44.420  0.00  0.00    -0.040 C 
BRANCH  30  32
ATOM     32  C   UNL     1      86.943  52.878  42.610  0.00  0.00    -0.059 C 
ATOM     33  C   UNL     1      88.005  52.073  42.707  0.00  0.00    -0.058 C 
BRANCH  33  34
ATOM     34  C   UNL     1      88.659  51.439  41.540  0.00  0.00    -0.043 C 
ATOM     35  C   UNL     1      88.986  50.119  41.556  0.00  0.00    -0.067 C 
ATOM     36  C   UNL     1      88.704  49.238  42.763  0.00  0.00    -0.043 C 
ATOM     37  C   UNL     1      89.658  49.481  40.362  0.00  0.00    -0.005 C 
ATOM     38  C   UNL     1      90.522  50.492  39.613  0.00  0.00    +0.060 C 
ATOM     39  C   UNL     1      89.587  51.607  39.125  0.00  0.00    -0.017 C 
ATOM     40  C   UNL     1      88.883  52.341  40.313  0.00  0.00    -0.008 C 
ATOM     41  C   UNL     1      89.756  53.542  40.756  0.00  0.00    -0.056 C 
ATOM     42  C   UNL     1      87.519  52.850  39.791  0.00  0.00    -0.056 C 
BRANCH  38  43
ATOM     43  O   UNL     1      91.115  49.873  38.503  0.00  0.00    -0.391 OA
ATOM     44  H   UNL     1      92.048  50.130  38.449  0.00  0.00    +0.000 HD
ENDBRANCH  38  43
ENDBRANCH  33  34
ENDBRANCH  30  32
ENDBRANCH  28  29
ENDBRANCH  25  27
ENDBRANCH   2  24
TORSDOF 12
ENDMDL
