MODEL 1
REMARK VINA RESULT:    18.415      0.000      0.000
REMARK INTER + INTRA:          29.449
REMARK INTER:                  29.702
REMARK INTRA:                  -0.253
REMARK UNBOUND:                -0.808
REMARK  Name = 
REMARK  22 active torsions:
REMARK  status: ('A' for Active; 'I' for Inactive)
REMARK    1  A    between atoms: C_1  and  C_2
REMARK    2  A    between atoms: C_2  and  C_26
REMARK    3  A    between atoms: C_3  and  C_4
REMARK    4  A    between atoms: C_5  and  C_6
REMARK    5  A    between atoms: C_7  and  C_8
REMARK    6  A    between atoms: C_7  and  C_25
REMARK    7  A    between atoms: C_9  and  C_10
REMARK    8  A    between atoms: C_11  and  C_12
REMARK    9  A    between atoms: C_11  and  C_24
REMARK   10  A    between atoms: C_13  and  C_14
REMARK   11  A    between atoms: C_15  and  C_16
REMARK   12  A    between atoms: C_18  and  O_23
REMARK   13  A    between atoms: C_20  and  C_21
REMARK   14  A    between atoms: C_20  and  C_22
REMARK   15  A    between atoms: C_27  and  C_28
REMARK   16  A    between atoms: C_29  and  C_30
REMARK   17  A    between atoms: C_29  and  C_42
REMARK   18  A    between atoms: C_31  and  C_32
REMARK   19  A    between atoms: C_33  and  C_41
REMARK   20  A    between atoms: C_35  and  O_40
REMARK   21  A    between atoms: C_37  and  C_38
REMARK   22  A    between atoms: C_37  and  C_39
REMARK                            x       y       z     vdW  Elec       q    Type
REMARK                         _______ _______ _______ _____ _____    ______ ____
ROOT
ATOM      1  C   UNL     1      86.782  56.652  46.793  0.00  0.00    -0.062 C 
ATOM      2  C   UNL     1      85.838  55.735  46.572  0.00  0.00    -0.062 C 
ENDROOT
BRANCH   1   5
ATOM      3  C   UNL     1      84.904  58.833  45.834  0.00  0.00    -0.040 C 
ATOM      4  C   UNL     1      85.574  58.805  47.187  0.00  0.00    -0.050 C 
ATOM      5  C   UNL     1      86.479  57.882  47.565  0.00  0.00    -0.059 C 
BRANCH   4   6
ATOM      6  C   UNL     1      85.337  59.969  48.056  0.00  0.00    -0.059 C 
ATOM      7  C   UNL     1      86.119  60.174  49.102  0.00  0.00    -0.061 C 
BRANCH   7   8
ATOM      8  C   UNL     1      85.697  61.032  50.223  0.00  0.00    -0.059 C 
ATOM      9  C   UNL     1      86.343  61.021  51.409  0.00  0.00    -0.051 C 
ATOM     10  C   UNL     1      87.448  60.050  51.697  0.00  0.00    -0.040 C 
BRANCH   9  11
ATOM     11  C   UNL     1      86.011  62.028  52.437  0.00  0.00    -0.062 C 
ATOM     12  C   UNL     1      85.395  61.707  53.549  0.00  0.00    -0.076 C 
BRANCH  12  13
ATOM     13  C   UNL     1      85.162  62.718  54.652  0.00  0.00    +0.003 C 
ATOM     14  C   UNL     1      85.283  62.104  56.051  0.00  0.00    -0.067 C 
ATOM     15  C   UNL     1      85.213  62.948  57.092  0.00  0.00    -0.056 C 
ATOM     16  C   UNL     1      85.175  64.439  56.866  0.00  0.00    +0.074 C 
ATOM     17  C   UNL     1      86.247  64.770  55.821  0.00  0.00    -0.017 C 
ATOM     18  C   UNL     1      86.056  64.019  54.460  0.00  0.00    -0.022 C 
ATOM     19  C   UNL     1      85.351  64.977  53.464  0.00  0.00    -0.059 C 
ATOM     20  C   UNL     1      87.469  63.668  53.882  0.00  0.00    -0.059 C 
ATOM     21  C   UNL     1      85.497  60.623  56.293  0.00  0.00    -0.043 C 
BRANCH  16  22
ATOM     22  O   UNL     1      83.906  64.844  56.403  0.00  0.00    -0.388 OA
ATOM     23  H   UNL     1      83.726  64.426  55.546  0.00  0.00    +0.000 HD
ENDBRANCH  16  22
ENDBRANCH  12  13
ENDBRANCH   9  11
ENDBRANCH   7   8
ENDBRANCH   4   6
ENDBRANCH   1   5
BRANCH   2  24
ATOM     24  C   UNL     1      86.103  54.495  45.828  0.00  0.00    -0.059 C 
ATOM     25  C   UNL     1      86.347  54.464  44.505  0.00  0.00    -0.050 C 
ATOM     26  C   UNL     1      86.470  55.752  43.680  0.00  0.00    -0.040 C 
BRANCH  25  27
ATOM     27  C   UNL     1      86.574  53.152  43.871  0.00  0.00    -0.059 C 
ATOM     28  C   UNL     1      87.560  52.947  42.998  0.00  0.00    -0.061 C 
BRANCH  28  29
ATOM     29  C   UNL     1      88.048  51.591  42.719  0.00  0.00    -0.059 C 
ATOM     30  C   UNL     1      87.645  50.956  41.597  0.00  0.00    -0.050 C 
ATOM     31  C   UNL     1      86.932  51.723  40.504  0.00  0.00    -0.040 C 
BRANCH  30  32
ATOM     32  C   UNL     1      87.820  49.484  41.493  0.00  0.00    -0.059 C 
ATOM     33  C   UNL     1      88.184  48.779  42.568  0.00  0.00    -0.058 C 
BRANCH  33  34
ATOM     34  C   UNL     1      88.181  47.299  42.614  0.00  0.00    -0.043 C 
ATOM     35  C   UNL     1      87.024  46.610  42.800  0.00  0.00    -0.067 C 
ATOM     36  C   UNL     1      85.689  47.316  42.973  0.00  0.00    -0.043 C 
ATOM     37  C   UNL     1      87.030  45.100  42.850  0.00  0.00    -0.005 C 
ATOM     38  C   UNL     1      88.352  44.575  43.407  0.00  0.00    +0.060 C 
ATOM     39  C   UNL     1      89.459  45.050  42.455  0.00  0.00    -0.017 C 
ATOM     40  C   UNL     1      89.537  46.609  42.382  0.00  0.00    -0.008 C 
ATOM     41  C   UNL     1      90.524  47.119  43.462  0.00  0.00    -0.056 C 
ATOM     42  C   UNL     1      90.067  46.975  40.975  0.00  0.00    -0.056 C 
BRANCH  38  43
ATOM     43  O   UNL     1      88.332  43.173  43.422  0.00  0.00    -0.391 OA
ATOM     44  H   UNL     1      89.223  42.838  43.610  0.00  0.00    +0.000 HD
ENDBRANCH  38  43
ENDBRANCH  33  34
ENDBRANCH  30  32
ENDBRANCH  28  29
ENDBRANCH  25  27
ENDBRANCH   2  24
TORSDOF 12
ENDMDL
MODEL 2
REMARK VINA RESULT:    19.729      1.230      2.214
REMARK INTER + INTRA:          31.608
REMARK INTER:                  31.127
REMARK INTRA:                   0.482
REMARK UNBOUND:                -0.808
REMARK  Name = 
REMARK  22 active torsions:
REMARK  status: ('A' for Active; 'I' for Inactive)
REMARK    1  A    between atoms: C_1  and  C_2
REMARK    2  A    between atoms: C_2  and  C_26
REMARK    3  A    between atoms: C_3  and  C_4
REMARK    4  A    between atoms: C_5  and  C_6
REMARK    5  A    between atoms: C_7  and  C_8
REMARK    6  A    between atoms: C_7  and  C_25
REMARK    7  A    between atoms: C_9  and  C_10
REMARK    8  A    between atoms: C_11  and  C_12
REMARK    9  A    between atoms: C_11  and  C_24
REMARK   10  A    between atoms: C_13  and  C_14
REMARK   11  A    between atoms: C_15  and  C_16
REMARK   12  A    between atoms: C_18  and  O_23
REMARK   13  A    between atoms: C_20  and  C_21
REMARK   14  A    between atoms: C_20  and  C_22
REMARK   15  A    between atoms: C_27  and  C_28
REMARK   16  A    between atoms: C_29  and  C_30
REMARK   17  A    between atoms: C_29  and  C_42
REMARK   18  A    between atoms: C_31  and  C_32
REMARK   19  A    between atoms: C_33  and  C_41
REMARK   20  A    between atoms: C_35  and  O_40
REMARK   21  A    between atoms: C_37  and  C_38
REMARK   22  A    between atoms: C_37  and  C_39
REMARK                            x       y       z     vdW  Elec       q    Type
REMARK                         _______ _______ _______ _____ _____    ______ ____
ROOT
ATOM      1  C   UNL     1      85.986  57.495  45.610  0.00  0.00    -0.062 C 
ATOM      2  C   UNL     1      85.725  56.256  46.033  0.00  0.00    -0.062 C 
ENDROOT
BRANCH   1   5
ATOM      3  C   UNL     1      83.280  58.242  46.760  0.00  0.00    -0.040 C 
ATOM      4  C   UNL     1      84.579  58.942  47.083  0.00  0.00    -0.050 C 
ATOM      5  C   UNL     1      85.758  58.663  46.495  0.00  0.00    -0.059 C 
BRANCH   4   6
ATOM      6  C   UNL     1      84.484  60.113  47.970  0.00  0.00    -0.059 C 
ATOM      7  C   UNL     1      85.392  60.292  48.915  0.00  0.00    -0.061 C 
BRANCH   7   8
ATOM      8  C   UNL     1      85.134  61.164  50.075  0.00  0.00    -0.059 C 
ATOM      9  C   UNL     1      85.839  61.048  51.221  0.00  0.00    -0.051 C 
ATOM     10  C   UNL     1      86.837  59.949  51.426  0.00  0.00    -0.040 C 
BRANCH   9  11
ATOM     11  C   UNL     1      85.683  62.059  52.287  0.00  0.00    -0.062 C 
ATOM     12  C   UNL     1      85.547  61.725  53.546  0.00  0.00    -0.076 C 
BRANCH  12  13
ATOM     13  C   UNL     1      85.507  62.764  54.648  0.00  0.00    +0.003 C 
ATOM     14  C   UNL     1      85.428  62.139  56.045  0.00  0.00    -0.067 C 
ATOM     15  C   UNL     1      85.510  62.978  57.090  0.00  0.00    -0.056 C 
ATOM     16  C   UNL     1      85.823  64.438  56.875  0.00  0.00    +0.074 C 
ATOM     17  C   UNL     1      86.984  64.515  55.875  0.00  0.00    -0.017 C 
ATOM     18  C   UNL     1      86.681  63.825  54.502  0.00  0.00    -0.022 C 
ATOM     19  C   UNL     1      86.255  64.918  53.487  0.00  0.00    -0.059 C 
ATOM     20  C   UNL     1      87.999  63.160  53.977  0.00  0.00    -0.059 C 
ATOM     21  C   UNL     1      85.288  60.649  56.283  0.00  0.00    -0.043 C 
BRANCH  16  22
ATOM     22  O   UNL     1      84.700  65.123  56.365  0.00  0.00    -0.388 OA
ATOM     23  H   UNL     1      84.530  64.831  55.455  0.00  0.00    +0.000 HD
ENDBRANCH  16  22
ENDBRANCH  12  13
ENDBRANCH   9  11
ENDBRANCH   7   8
ENDBRANCH   4   6
ENDBRANCH   1   5
BRANCH   2  24
ATOM     24  C   UNL     1      85.956  55.072  45.193  0.00  0.00    -0.059 C 
ATOM     25  C   UNL     1      85.377  54.893  43.991  0.00  0.00    -0.050 C 
ATOM     26  C   UNL     1      84.499  55.979  43.352  0.00  0.00    -0.040 C 
BRANCH  25  27
ATOM     27  C   UNL     1      85.671  53.649  43.256  0.00  0.00    -0.059 C 
ATOM     28  C   UNL     1      86.853  53.038  43.338  0.00  0.00    -0.061 C 
BRANCH  28  29
ATOM     29  C   UNL     1      86.994  51.621  42.981  0.00  0.00    -0.059 C 
ATOM     30  C   UNL     1      86.548  50.672  43.832  0.00  0.00    -0.050 C 
ATOM     31  C   UNL     1      85.665  51.053  45.001  0.00  0.00    -0.040 C 
BRANCH  30  32
ATOM     32  C   UNL     1      87.012  49.271  43.665  0.00  0.00    -0.059 C 
ATOM     33  C   UNL     1      86.126  48.301  43.419  0.00  0.00    -0.058 C 
BRANCH  33  34
ATOM     34  C   UNL     1      86.508  46.923  43.035  0.00  0.00    -0.043 C 
ATOM     35  C   UNL     1      87.770  46.642  42.613  0.00  0.00    -0.067 C 
ATOM     36  C   UNL     1      88.839  47.717  42.511  0.00  0.00    -0.043 C 
ATOM     37  C   UNL     1      88.150  45.234  42.218  0.00  0.00    -0.005 C 
ATOM     38  C   UNL     1      86.950  44.479  41.653  0.00  0.00    +0.060 C 
ATOM     39  C   UNL     1      85.893  44.420  42.765  0.00  0.00    -0.017 C 
ATOM     40  C   UNL     1      85.421  45.845  43.200  0.00  0.00    -0.008 C 
ATOM     41  C   UNL     1      84.202  46.261  42.339  0.00  0.00    -0.056 C 
ATOM     42  C   UNL     1      85.006  45.756  44.687  0.00  0.00    -0.056 C 
BRANCH  38  43
ATOM     43  O   UNL     1      87.332  43.173  41.315  0.00  0.00    -0.391 OA
ATOM     44  H   UNL     1      86.668  42.784  40.724  0.00  0.00    +0.000 HD
ENDBRANCH  38  43
ENDBRANCH  33  34
ENDBRANCH  30  32
ENDBRANCH  28  29
ENDBRANCH  25  27
ENDBRANCH   2  24
TORSDOF 12
ENDMDL
MODEL 3
REMARK VINA RESULT:    19.985      1.317      2.064
REMARK INTER + INTRA:          32.028
REMARK INTER:                  32.293
REMARK INTRA:                  -0.266
REMARK UNBOUND:                -0.808
REMARK  Name = 
REMARK  22 active torsions:
REMARK  status: ('A' for Active; 'I' for Inactive)
REMARK    1  A    between atoms: C_1  and  C_2
REMARK    2  A    between atoms: C_2  and  C_26
REMARK    3  A    between atoms: C_3  and  C_4
REMARK    4  A    between atoms: C_5  and  C_6
REMARK    5  A    between atoms: C_7  and  C_8
REMARK    6  A    between atoms: C_7  and  C_25
REMARK    7  A    between atoms: C_9  and  C_10
REMARK    8  A    between atoms: C_11  and  C_12
REMARK    9  A    between atoms: C_11  and  C_24
REMARK   10  A    between atoms: C_13  and  C_14
REMARK   11  A    between atoms: C_15  and  C_16
REMARK   12  A    between atoms: C_18  and  O_23
REMARK   13  A    between atoms: C_20  and  C_21
REMARK   14  A    between atoms: C_20  and  C_22
REMARK   15  A    between atoms: C_27  and  C_28
REMARK   16  A    between atoms: C_29  and  C_30
REMARK   17  A    between atoms: C_29  and  C_42
REMARK   18  A    between atoms: C_31  and  C_32
REMARK   19  A    between atoms: C_33  and  C_41
REMARK   20  A    between atoms: C_35  and  O_40
REMARK   21  A    between atoms: C_37  and  C_38
REMARK   22  A    between atoms: C_37  and  C_39
REMARK                            x       y       z     vdW  Elec       q    Type
REMARK                         _______ _______ _______ _____ _____    ______ ____
ROOT
ATOM      1  C   UNL     1      85.401  57.792  46.178  0.00  0.00    -0.062 C 
ATOM      2  C   UNL     1      85.715  56.562  46.594  0.00  0.00    -0.062 C 
ENDROOT
BRANCH   1   5
ATOM      3  C   UNL     1      82.879  59.316  46.895  0.00  0.00    -0.040 C 
ATOM      4  C   UNL     1      84.233  59.545  47.523  0.00  0.00    -0.050 C 
ATOM      5  C   UNL     1      85.364  58.928  47.130  0.00  0.00    -0.059 C 
BRANCH   4   6
ATOM      6  C   UNL     1      84.321  60.642  48.500  0.00  0.00    -0.059 C 
ATOM      7  C   UNL     1      85.466  60.877  49.117  0.00  0.00    -0.061 C 
BRANCH   7   8
ATOM      8  C   UNL     1      85.521  61.641  50.376  0.00  0.00    -0.059 C 
ATOM      9  C   UNL     1      86.335  61.280  51.392  0.00  0.00    -0.051 C 
ATOM     10  C   UNL     1      87.137  60.015  51.349  0.00  0.00    -0.040 C 
BRANCH   9  11
ATOM     11  C   UNL     1      86.501  62.175  52.555  0.00  0.00    -0.062 C 
ATOM     12  C   UNL     1      85.477  62.613  53.245  0.00  0.00    -0.076 C 
BRANCH  12  13
ATOM     13  C   UNL     1      85.657  63.433  54.507  0.00  0.00    +0.003 C 
ATOM     14  C   UNL     1      84.581  64.512  54.667  0.00  0.00    -0.067 C 
ATOM     15  C   UNL     1      84.587  65.208  55.815  0.00  0.00    -0.056 C 
ATOM     16  C   UNL     1      85.517  64.821  56.939  0.00  0.00    +0.074 C 
ATOM     17  C   UNL     1      85.438  63.297  57.092  0.00  0.00    -0.017 C 
ATOM     18  C   UNL     1      85.816  62.510  55.792  0.00  0.00    -0.022 C 
ATOM     19  C   UNL     1      87.293  62.050  55.908  0.00  0.00    -0.059 C 
ATOM     20  C   UNL     1      84.913  61.233  55.702  0.00  0.00    -0.059 C 
ATOM     21  C   UNL     1      83.526  64.798  53.617  0.00  0.00    -0.043 C 
BRANCH  16  22
ATOM     22  O   UNL     1      86.841  65.210  56.651  0.00  0.00    -0.388 OA
ATOM     23  H   UNL     1      87.455  64.540  56.990  0.00  0.00    +0.000 HD
ENDBRANCH  16  22
ENDBRANCH  12  13
ENDBRANCH   9  11
ENDBRANCH   7   8
ENDBRANCH   4   6
ENDBRANCH   1   5
BRANCH   2  24
ATOM     24  C   UNL     1      85.782  55.414  45.678  0.00  0.00    -0.059 C 
ATOM     25  C   UNL     1      85.598  55.517  44.349  0.00  0.00    -0.050 C 
ATOM     26  C   UNL     1      85.406  56.878  43.666  0.00  0.00    -0.040 C 
BRANCH  25  27
ATOM     27  C   UNL     1      85.666  54.285  43.541  0.00  0.00    -0.059 C 
ATOM     28  C   UNL     1      86.800  53.603  43.380  0.00  0.00    -0.061 C 
BRANCH  28  29
ATOM     29  C   UNL     1      86.778  52.194  42.968  0.00  0.00    -0.059 C 
ATOM     30  C   UNL     1      86.176  51.278  43.757  0.00  0.00    -0.050 C 
ATOM     31  C   UNL     1      85.293  51.726  44.903  0.00  0.00    -0.040 C 
BRANCH  30  32
ATOM     32  C   UNL     1      86.468  49.836  43.551  0.00  0.00    -0.059 C 
ATOM     33  C   UNL     1      87.215  49.451  42.512  0.00  0.00    -0.058 C 
BRANCH  33  34
ATOM     34  C   UNL     1      87.728  48.073  42.341  0.00  0.00    -0.043 C 
ATOM     35  C   UNL     1      86.874  47.019  42.235  0.00  0.00    -0.067 C 
ATOM     36  C   UNL     1      85.366  47.201  42.291  0.00  0.00    -0.043 C 
ATOM     37  C   UNL     1      87.406  45.615  42.066  0.00  0.00    -0.005 C 
ATOM     38  C   UNL     1      88.763  45.457  42.747  0.00  0.00    +0.060 C 
ATOM     39  C   UNL     1      89.724  46.442  42.067  0.00  0.00    -0.017 C 
ATOM     40  C   UNL     1      89.256  47.924  42.234  0.00  0.00    -0.008 C 
ATOM     41  C   UNL     1      89.885  48.513  43.522  0.00  0.00    -0.056 C 
ATOM     42  C   UNL     1      89.764  48.706  40.999  0.00  0.00    -0.056 C 
BRANCH  38  43
ATOM     43  O   UNL     1      89.236  44.151  42.556  0.00  0.00    -0.391 OA
ATOM     44  H   UNL     1      88.888  43.575  43.254  0.00  0.00    +0.000 HD
ENDBRANCH  38  43
ENDBRANCH  33  34
ENDBRANCH  30  32
ENDBRANCH  28  29
ENDBRANCH  25  27
ENDBRANCH   2  24
TORSDOF 12
ENDMDL
MODEL 4
REMARK VINA RESULT:    21.083      1.478      2.785
REMARK INTER + INTRA:          33.833
REMARK INTER:                  35.159
REMARK INTRA:                  -1.326
REMARK UNBOUND:                -0.808
REMARK  Name = 
REMARK  22 active torsions:
REMARK  status: ('A' for Active; 'I' for Inactive)
REMARK    1  A    between atoms: C_1  and  C_2
REMARK    2  A    between atoms: C_2  and  C_26
REMARK    3  A    between atoms: C_3  and  C_4
REMARK    4  A    between atoms: C_5  and  C_6
REMARK    5  A    between atoms: C_7  and  C_8
REMARK    6  A    between atoms: C_7  and  C_25
REMARK    7  A    between atoms: C_9  and  C_10
REMARK    8  A    between atoms: C_11  and  C_12
REMARK    9  A    between atoms: C_11  and  C_24
REMARK   10  A    between atoms: C_13  and  C_14
REMARK   11  A    between atoms: C_15  and  C_16
REMARK   12  A    between atoms: C_18  and  O_23
REMARK   13  A    between atoms: C_20  and  C_21
REMARK   14  A    between atoms: C_20  and  C_22
REMARK   15  A    between atoms: C_27  and  C_28
REMARK   16  A    between atoms: C_29  and  C_30
REMARK   17  A    between atoms: C_29  and  C_42
REMARK   18  A    between atoms: C_31  and  C_32
REMARK   19  A    between atoms: C_33  and  C_41
REMARK   20  A    between atoms: C_35  and  O_40
REMARK   21  A    between atoms: C_37  and  C_38
REMARK   22  A    between atoms: C_37  and  C_39
REMARK                            x       y       z     vdW  Elec       q    Type
REMARK                         _______ _______ _______ _____ _____    ______ ____
ROOT
ATOM      1  C   UNL     1      84.532  56.921  46.849  0.00  0.00    -0.062 C 
ATOM      2  C   UNL     1      85.642  56.259  46.516  0.00  0.00    -0.062 C 
ENDROOT
BRANCH   1   5
ATOM      3  C   UNL     1      84.107  59.681  45.664  0.00  0.00    -0.040 C 
ATOM      4  C   UNL     1      84.324  59.396  47.131  0.00  0.00    -0.050 C 
ATOM      5  C   UNL     1      84.606  58.178  47.633  0.00  0.00    -0.059 C 
BRANCH   4   6
ATOM      6  C   UNL     1      84.401  60.568  48.018  0.00  0.00    -0.059 C 
ATOM      7  C   UNL     1      85.434  60.705  48.831  0.00  0.00    -0.061 C 
BRANCH   7   8
ATOM      8  C   UNL     1      85.373  61.585  50.012  0.00  0.00    -0.059 C 
ATOM      9  C   UNL     1      86.125  61.354  51.110  0.00  0.00    -0.051 C 
ATOM     10  C   UNL     1      86.970  60.124  51.243  0.00  0.00    -0.040 C 
BRANCH   9  11
ATOM     11  C   UNL     1      86.178  62.359  52.191  0.00  0.00    -0.062 C 
ATOM     12  C   UNL     1      85.637  62.145  53.365  0.00  0.00    -0.076 C 
BRANCH  12  13
ATOM     13  C   UNL     1      85.795  63.127  54.508  0.00  0.00    +0.003 C 
ATOM     14  C   UNL     1      84.678  64.176  54.543  0.00  0.00    -0.067 C 
ATOM     15  C   UNL     1      84.666  65.014  55.591  0.00  0.00    -0.056 C 
ATOM     16  C   UNL     1      85.620  64.811  56.742  0.00  0.00    +0.074 C 
ATOM     17  C   UNL     1      85.603  63.318  57.092  0.00  0.00    -0.017 C 
ATOM     18  C   UNL     1      86.001  62.385  55.899  0.00  0.00    -0.022 C 
ATOM     19  C   UNL     1      87.495  62.000  56.053  0.00  0.00    -0.059 C 
ATOM     20  C   UNL     1      85.148  61.074  55.986  0.00  0.00    -0.059 C 
ATOM     21  C   UNL     1      83.604  64.283  53.478  0.00  0.00    -0.043 C 
BRANCH  16  22
ATOM     22  O   UNL     1      86.925  65.210  56.390  0.00  0.00    -0.388 OA
ATOM     23  H   UNL     1      86.963  66.178  56.333  0.00  0.00    +0.000 HD
ENDBRANCH  16  22
ENDBRANCH  12  13
ENDBRANCH   9  11
ENDBRANCH   7   8
ENDBRANCH   4   6
ENDBRANCH   1   5
BRANCH   2  24
ATOM     24  C   UNL     1      85.612  55.021  45.724  0.00  0.00    -0.059 C 
ATOM     25  C   UNL     1      85.366  54.995  44.401  0.00  0.00    -0.050 C 
ATOM     26  C   UNL     1      85.198  56.286  43.589  0.00  0.00    -0.040 C 
BRANCH  25  27
ATOM     27  C   UNL     1      85.339  53.684  43.725  0.00  0.00    -0.059 C 
ATOM     28  C   UNL     1      86.291  52.770  43.909  0.00  0.00    -0.061 C 
BRANCH  28  29
ATOM     29  C   UNL     1      86.045  51.355  43.603  0.00  0.00    -0.059 C 
ATOM     30  C   UNL     1      85.591  50.534  44.574  0.00  0.00    -0.050 C 
ATOM     31  C   UNL     1      85.071  51.108  45.875  0.00  0.00    -0.040 C 
BRANCH  30  32
ATOM     32  C   UNL     1      85.696  49.064  44.390  0.00  0.00    -0.059 C 
ATOM     33  C   UNL     1      86.151  48.568  43.235  0.00  0.00    -0.058 C 
BRANCH  33  34
ATOM     34  C   UNL     1      86.486  47.140  43.033  0.00  0.00    -0.043 C 
ATOM     35  C   UNL     1      87.701  46.771  42.546  0.00  0.00    -0.067 C 
ATOM     36  C   UNL     1      88.764  47.796  42.182  0.00  0.00    -0.043 C 
ATOM     37  C   UNL     1      88.033  45.312  42.339  0.00  0.00    -0.005 C 
ATOM     38  C   UNL     1      86.780  44.506  42.008  0.00  0.00    +0.060 C 
ATOM     39  C   UNL     1      85.831  44.639  43.208  0.00  0.00    -0.017 C 
ATOM     40  C   UNL     1      85.413  46.123  43.460  0.00  0.00    -0.008 C 
ATOM     41  C   UNL     1      84.121  46.429  42.662  0.00  0.00    -0.056 C 
ATOM     42  C   UNL     1      85.138  46.270  44.976  0.00  0.00    -0.056 C 
BRANCH  38  43
ATOM     43  O   UNL     1      87.119  43.155  41.841  0.00  0.00    -0.391 OA
ATOM     44  H   UNL     1      86.960  42.893  40.921  0.00  0.00    +0.000 HD
ENDBRANCH  38  43
ENDBRANCH  33  34
ENDBRANCH  30  32
ENDBRANCH  28  29
ENDBRANCH  25  27
ENDBRANCH   2  24
TORSDOF 12
ENDMDL
