MODEL 1
REMARK VINA RESULT:    -9.051      0.000      0.000
REMARK INTER + INTRA:         -14.180
REMARK INTER:                 -12.988
REMARK INTRA:                  -1.192
REMARK UNBOUND:                -0.896
REMARK  Name = 
REMARK  13 active torsions:
REMARK  status: ('A' for Active; 'I' for Inactive)
REMARK    1  A    between atoms: C_1  and  C_2
REMARK    2  A    between atoms: C_2  and  C_26
REMARK    3  A    between atoms: C_3  and  C_4
REMARK    4  A    between atoms: C_4  and  C_5
REMARK    5  A    between atoms: C_6  and  O_7
REMARK    6  A    between atoms: C_11  and  O_12
REMARK    7  A    between atoms: C_15  and  O_25
REMARK    8  A    between atoms: C_16  and  C_18
REMARK    9  A    between atoms: C_21  and  O_24
REMARK   10  A    between atoms: C_26  and  C_27
REMARK   11  A    between atoms: C_27  and  C_28
REMARK   12  A    between atoms: C_29  and  C_30
REMARK   13  A    between atoms: C_29  and  C_31
REMARK                            x       y       z     vdW  Elec       q    Type
REMARK                         _______ _______ _______ _____ _____    ______ ____
ROOT
ATOM      1  C   UNL     1      88.439  50.327  42.360  0.00  0.00    +0.040 A 
ATOM      2  C   UNL     1      87.933  51.407  41.605  0.00  0.00    +0.127 A 
ATOM      3  C   UNL     1      87.242  52.444  42.235  0.00  0.00    +0.023 A 
ATOM      4  C   UNL     1      87.054  52.438  43.615  0.00  0.00    +0.147 A 
ATOM      5  C   UNL     1      87.579  51.388  44.402  0.00  0.00    +0.109 A 
ATOM      6  C   UNL     1      88.289  50.333  43.773  0.00  0.00    +0.138 A 
ATOM      7  C   UNL     1      87.371  51.456  45.799  0.00  0.00    +0.238 A 
ATOM      8  O   UNL     1      87.823  50.562  46.567  0.00  0.00    -0.283 OA
ATOM      9  C   UNL     1      86.657  52.533  46.347  0.00  0.00    +0.208 A 
ATOM     10  C   UNL     1      86.144  53.518  45.483  0.00  0.00    +0.181 A 
ATOM     11  O   UNL     1      86.376  53.434  44.175  0.00  0.00    -0.451 OA
ENDROOT
BRANCH  10  12
ATOM     12  C   UNL     1      85.359  54.673  45.979  0.00  0.00    +0.021 A 
ATOM     13  C   UNL     1      85.546  55.939  45.398  0.00  0.00    -0.048 A 
ATOM     14  C   UNL     1      84.794  57.036  45.831  0.00  0.00    -0.020 A 
ATOM     15  C   UNL     1      83.840  56.880  46.842  0.00  0.00    +0.117 A 
ATOM     16  C   UNL     1      83.633  55.618  47.416  0.00  0.00    -0.020 A 
ATOM     17  C   UNL     1      84.383  54.519  46.983  0.00  0.00    -0.048 A 
BRANCH  15  18
ATOM     18  O   UNL     1      83.100  57.984  47.264  0.00  0.00    -0.507 OA
ATOM     19  H   UNL     1      82.231  57.866  47.594  0.00  0.00    +0.000 HD
ENDBRANCH  15  18
ENDBRANCH  10  12
BRANCH   2  20
ATOM     20  O   UNL     1      88.120  51.449  40.222  0.00  0.00    -0.506 OA
ATOM     21  H   UNL     1      88.606  50.772  39.794  0.00  0.00    +0.000 HD
ENDBRANCH   2  20
BRANCH   6  22
ATOM     22  O   UNL     1      88.840  49.315  44.562  0.00  0.00    -0.506 OA
ATOM     23  H   UNL     1      89.767  49.183  44.575  0.00  0.00    +0.000 HD
ENDBRANCH   6  22
BRANCH   9  24
ATOM     24  O   UNL     1      86.481  52.646  47.731  0.00  0.00    -0.501 OA
ATOM     25  H   UNL     1      85.642  52.475  48.112  0.00  0.00    +0.000 HD
ENDBRANCH   9  24
BRANCH   1  26
ATOM     26  C   UNL     1      89.162  49.202  41.646  0.00  0.00    -0.002 C 
BRANCH  26  29
ATOM     27  C   UNL     1      90.180  46.586  42.734  0.00  0.00    -0.044 C 
ATOM     28  C   UNL     1      88.792  46.745  42.155  0.00  0.00    -0.076 C 
ATOM     29  C   UNL     1      88.338  47.936  41.696  0.00  0.00    -0.080 C 
BRANCH  28  30
ATOM     30  C   UNL     1      87.887  45.531  42.080  0.00  0.00    -0.029 C 
BRANCH  30  31
ATOM     31  C   UNL     1      87.087  45.331  43.381  0.00  0.00    -0.031 C 
BRANCH  31  32
ATOM     32  C   UNL     1      85.601  45.541  43.172  0.00  0.00    -0.085 C 
ATOM     33  C   UNL     1      84.910  46.616  43.617  0.00  0.00    -0.080 C 
ATOM     34  C   UNL     1      85.586  47.784  44.295  0.00  0.00    -0.044 C 
ATOM     35  C   UNL     1      83.419  46.696  43.387  0.00  0.00    -0.044 C 
ENDBRANCH  31  32
ENDBRANCH  30  31
ENDBRANCH  28  30
ENDBRANCH  26  29
ENDBRANCH   1  26
TORSDOF 10
ENDMDL
MODEL 2
REMARK VINA RESULT:    -9.010      2.388      8.390
REMARK INTER + INTRA:         -14.120
REMARK INTER:                 -13.029
REMARK INTRA:                  -1.091
REMARK UNBOUND:                -0.896
REMARK  Name = 
REMARK  13 active torsions:
REMARK  status: ('A' for Active; 'I' for Inactive)
REMARK    1  A    between atoms: C_1  and  C_2
REMARK    2  A    between atoms: C_2  and  C_26
REMARK    3  A    between atoms: C_3  and  C_4
REMARK    4  A    between atoms: C_4  and  C_5
REMARK    5  A    between atoms: C_6  and  O_7
REMARK    6  A    between atoms: C_11  and  O_12
REMARK    7  A    between atoms: C_15  and  O_25
REMARK    8  A    between atoms: C_16  and  C_18
REMARK    9  A    between atoms: C_21  and  O_24
REMARK   10  A    between atoms: C_26  and  C_27
REMARK   11  A    between atoms: C_27  and  C_28
REMARK   12  A    between atoms: C_29  and  C_30
REMARK   13  A    between atoms: C_29  and  C_31
REMARK                            x       y       z     vdW  Elec       q    Type
REMARK                         _______ _______ _______ _____ _____    ______ ____
ROOT
ATOM      1  C   UNL     1      86.127  53.144  43.053  0.00  0.00    +0.040 A 
ATOM      2  C   UNL     1      87.341  52.606  42.575  0.00  0.00    +0.127 A 
ATOM      3  C   UNL     1      87.558  51.226  42.599  0.00  0.00    +0.023 A 
ATOM      4  C   UNL     1      86.578  50.360  43.078  0.00  0.00    +0.147 A 
ATOM      5  C   UNL     1      85.339  50.866  43.531  0.00  0.00    +0.109 A 
ATOM      6  C   UNL     1      85.105  52.266  43.504  0.00  0.00    +0.138 A 
ATOM      7  C   UNL     1      84.380  49.931  43.983  0.00  0.00    +0.238 A 
ATOM      8  O   UNL     1      83.245  50.307  44.389  0.00  0.00    -0.283 OA
ATOM      9  C   UNL     1      84.686  48.560  43.979  0.00  0.00    +0.208 A 
ATOM     10  C   UNL     1      85.958  48.150  43.539  0.00  0.00    +0.181 A 
ATOM     11  O   UNL     1      86.828  49.056  43.101  0.00  0.00    -0.451 OA
ENDROOT
BRANCH  10  12
ATOM     12  C   UNL     1      86.368  46.726  43.528  0.00  0.00    +0.021 A 
ATOM     13  C   UNL     1      87.394  46.307  42.663  0.00  0.00    -0.048 A 
ATOM     14  C   UNL     1      87.816  44.974  42.657  0.00  0.00    -0.020 A 
ATOM     15  C   UNL     1      87.228  44.045  43.521  0.00  0.00    +0.117 A 
ATOM     16  C   UNL     1      86.216  44.456  44.400  0.00  0.00    -0.020 A 
ATOM     17  C   UNL     1      85.793  45.790  44.410  0.00  0.00    -0.048 A 
BRANCH  15  18
ATOM     18  O   UNL     1      87.658  42.719  43.502  0.00  0.00    -0.507 OA
ATOM     19  H   UNL     1      88.213  42.417  42.811  0.00  0.00    +0.000 HD
ENDBRANCH  15  18
ENDBRANCH  10  12
BRANCH   2  20
ATOM     20  O   UNL     1      88.336  53.447  42.073  0.00  0.00    -0.506 OA
ATOM     21  H   UNL     1      88.133  54.336  41.857  0.00  0.00    +0.000 HD
ENDBRANCH   2  20
BRANCH   6  22
ATOM     22  O   UNL     1      83.861  52.758  43.918  0.00  0.00    -0.506 OA
ATOM     23  H   UNL     1      83.817  53.437  44.563  0.00  0.00    +0.000 HD
ENDBRANCH   6  22
BRANCH   9  24
ATOM     24  O   UNL     1      83.736  47.613  44.377  0.00  0.00    -0.501 OA
ATOM     25  H   UNL     1      83.968  46.947  44.995  0.00  0.00    +0.000 HD
ENDBRANCH   9  24
BRANCH   1  26
ATOM     26  C   UNL     1      85.930  54.646  43.039  0.00  0.00    -0.002 C 
BRANCH  26  29
ATOM     27  C   UNL     1      84.201  56.813  44.215  0.00  0.00    -0.044 C 
ATOM     28  C   UNL     1      85.370  56.206  44.959  0.00  0.00    -0.076 C 
ATOM     29  C   UNL     1      86.121  55.212  44.428  0.00  0.00    -0.080 C 
BRANCH  28  30
ATOM     30  C   UNL     1      85.714  56.736  46.337  0.00  0.00    -0.029 C 
BRANCH  30  31
ATOM     31  C   UNL     1      86.263  55.629  47.256  0.00  0.00    -0.031 C 
BRANCH  31  32
ATOM     32  C   UNL     1      85.166  54.961  48.060  0.00  0.00    -0.085 C 
ATOM     33  C   UNL     1      84.852  53.647  47.986  0.00  0.00    -0.080 C 
ATOM     34  C   UNL     1      85.649  52.676  47.147  0.00  0.00    -0.044 C 
ATOM     35  C   UNL     1      83.707  53.103  48.806  0.00  0.00    -0.044 C 
ENDBRANCH  31  32
ENDBRANCH  30  31
ENDBRANCH  28  30
ENDBRANCH  26  29
ENDBRANCH   1  26
TORSDOF 10
ENDMDL
MODEL 3
REMARK VINA RESULT:    -8.964      3.861      8.447
REMARK INTER + INTRA:         -14.053
REMARK INTER:                 -12.664
REMARK INTRA:                  -1.389
REMARK UNBOUND:                -0.896
REMARK  Name = 
REMARK  13 active torsions:
REMARK  status: ('A' for Active; 'I' for Inactive)
REMARK    1  A    between atoms: C_1  and  C_2
REMARK    2  A    between atoms: C_2  and  C_26
REMARK    3  A    between atoms: C_3  and  C_4
REMARK    4  A    between atoms: C_4  and  C_5
REMARK    5  A    between atoms: C_6  and  O_7
REMARK    6  A    between atoms: C_11  and  O_12
REMARK    7  A    between atoms: C_15  and  O_25
REMARK    8  A    between atoms: C_16  and  C_18
REMARK    9  A    between atoms: C_21  and  O_24
REMARK   10  A    between atoms: C_26  and  C_27
REMARK   11  A    between atoms: C_27  and  C_28
REMARK   12  A    between atoms: C_29  and  C_30
REMARK   13  A    between atoms: C_29  and  C_31
REMARK                            x       y       z     vdW  Elec       q    Type
REMARK                         _______ _______ _______ _____ _____    ______ ____
ROOT
ATOM      1  C   UNL     1      85.789  53.712  43.789  0.00  0.00    +0.040 A 
ATOM      2  C   UNL     1      86.146  52.795  44.800  0.00  0.00    +0.127 A 
ATOM      3  C   UNL     1      85.340  51.685  45.061  0.00  0.00    +0.023 A 
ATOM      4  C   UNL     1      84.182  51.457  44.321  0.00  0.00    +0.147 A 
ATOM      5  C   UNL     1      83.816  52.338  43.279  0.00  0.00    +0.109 A 
ATOM      6  C   UNL     1      84.632  53.466  43.000  0.00  0.00    +0.138 A 
ATOM      7  C   UNL     1      82.642  52.036  42.553  0.00  0.00    +0.238 A 
ATOM      8  O   UNL     1      82.259  52.770  41.600  0.00  0.00    -0.283 OA
ATOM      9  C   UNL     1      81.886  50.901  42.889  0.00  0.00    +0.208 A 
ATOM     10  C   UNL     1      82.310  50.096  43.963  0.00  0.00    +0.181 A 
ATOM     11  O   UNL     1      83.433  50.399  44.611  0.00  0.00    -0.451 OA
ENDROOT
BRANCH  10  12
ATOM     12  C   UNL     1      81.556  48.897  44.397  0.00  0.00    +0.021 A 
ATOM     13  C   UNL     1      80.395  49.052  45.173  0.00  0.00    -0.048 A 
ATOM     14  C   UNL     1      79.652  47.935  45.568  0.00  0.00    -0.020 A 
ATOM     15  C   UNL     1      80.053  46.651  45.186  0.00  0.00    +0.117 A 
ATOM     16  C   UNL     1      81.201  46.486  44.398  0.00  0.00    -0.020 A 
ATOM     17  C   UNL     1      81.945  47.603  43.999  0.00  0.00    -0.048 A 
BRANCH  15  18
ATOM     18  O   UNL     1      79.304  45.547  45.590  0.00  0.00    -0.507 OA
ATOM     19  H   UNL     1      79.398  45.209  46.458  0.00  0.00    +0.000 HD
ENDBRANCH  15  18
ENDBRANCH  10  12
BRANCH   2  20
ATOM     20  O   UNL     1      87.310  52.987  45.548  0.00  0.00    -0.506 OA
ATOM     21  H   UNL     1      87.353  52.686  46.434  0.00  0.00    +0.000 HD
ENDBRANCH   2  20
BRANCH   6  22
ATOM     22  O   UNL     1      84.285  54.315  41.942  0.00  0.00    -0.506 OA
ATOM     23  H   UNL     1      83.844  53.970  41.191  0.00  0.00    +0.000 HD
ENDBRANCH   6  22
BRANCH   9  24
ATOM     24  O   UNL     1      80.747  50.555  42.154  0.00  0.00    -0.501 OA
ATOM     25  H   UNL     1      80.629  49.674  41.859  0.00  0.00    +0.000 HD
ENDBRANCH   9  24
BRANCH   1  26
ATOM     26  C   UNL     1      86.668  54.922  43.546  0.00  0.00    -0.002 C 
BRANCH  26  29
ATOM     27  C   UNL     1      84.546  57.042  43.282  0.00  0.00    -0.044 C 
ATOM     28  C   UNL     1      85.473  56.958  44.474  0.00  0.00    -0.076 C 
ATOM     29  C   UNL     1      86.404  55.981  44.592  0.00  0.00    -0.080 C 
BRANCH  28  30
ATOM     30  C   UNL     1      85.360  58.005  45.564  0.00  0.00    -0.029 C 
BRANCH  30  31
ATOM     31  C   UNL     1      85.537  57.394  46.967  0.00  0.00    -0.031 C 
BRANCH  31  32
ATOM     32  C   UNL     1      84.342  56.559  47.377  0.00  0.00    -0.085 C 
ATOM     33  C   UNL     1      84.415  55.285  47.830  0.00  0.00    -0.080 C 
ATOM     34  C   UNL     1      85.736  54.592  48.069  0.00  0.00    -0.044 C 
ATOM     35  C   UNL     1      83.149  54.536  48.168  0.00  0.00    -0.044 C 
ENDBRANCH  31  32
ENDBRANCH  30  31
ENDBRANCH  28  30
ENDBRANCH  26  29
ENDBRANCH   1  26
TORSDOF 10
ENDMDL
MODEL 4
REMARK VINA RESULT:    -8.922      1.983      3.609
REMARK INTER + INTRA:         -13.991
REMARK INTER:                 -13.051
REMARK INTRA:                  -0.940
REMARK UNBOUND:                -0.896
REMARK  Name = 
REMARK  13 active torsions:
REMARK  status: ('A' for Active; 'I' for Inactive)
REMARK    1  A    between atoms: C_1  and  C_2
REMARK    2  A    between atoms: C_2  and  C_26
REMARK    3  A    between atoms: C_3  and  C_4
REMARK    4  A    between atoms: C_4  and  C_5
REMARK    5  A    between atoms: C_6  and  O_7
REMARK    6  A    between atoms: C_11  and  O_12
REMARK    7  A    between atoms: C_15  and  O_25
REMARK    8  A    between atoms: C_16  and  C_18
REMARK    9  A    between atoms: C_21  and  O_24
REMARK   10  A    between atoms: C_26  and  C_27
REMARK   11  A    between atoms: C_27  and  C_28
REMARK   12  A    between atoms: C_29  and  C_30
REMARK   13  A    between atoms: C_29  and  C_31
REMARK                            x       y       z     vdW  Elec       q    Type
REMARK                         _______ _______ _______ _____ _____    ______ ____
ROOT
ATOM      1  C   UNL     1      84.459  48.106  44.089  0.00  0.00    +0.040 A 
ATOM      2  C   UNL     1      83.255  48.795  43.830  0.00  0.00    +0.127 A 
ATOM      3  C   UNL     1      83.117  50.135  44.199  0.00  0.00    +0.023 A 
ATOM      4  C   UNL     1      84.166  50.816  44.813  0.00  0.00    +0.147 A 
ATOM      5  C   UNL     1      85.396  50.163  45.054  0.00  0.00    +0.109 A 
ATOM      6  C   UNL     1      85.550  48.803  44.677  0.00  0.00    +0.138 A 
ATOM      7  C   UNL     1      86.426  50.918  45.660  0.00  0.00    +0.238 A 
ATOM      8  O   UNL     1      87.556  50.406  45.894  0.00  0.00    -0.283 OA
ATOM      9  C   UNL     1      86.197  52.260  46.005  0.00  0.00    +0.208 A 
ATOM     10  C   UNL     1      84.930  52.819  45.755  0.00  0.00    +0.181 A 
ATOM     11  O   UNL     1      83.990  52.084  45.165  0.00  0.00    -0.451 OA
ENDROOT
BRANCH  10  12
ATOM     12  C   UNL     1      84.600  54.218  46.112  0.00  0.00    +0.021 A 
ATOM     13  C   UNL     1      84.634  55.213  45.120  0.00  0.00    -0.048 A 
ATOM     14  C   UNL     1      84.298  56.535  45.429  0.00  0.00    -0.020 A 
ATOM     15  C   UNL     1      83.914  56.878  46.729  0.00  0.00    +0.117 A 
ATOM     16  C   UNL     1      83.860  55.890  47.723  0.00  0.00    -0.020 A 
ATOM     17  C   UNL     1      84.194  54.566  47.415  0.00  0.00    -0.048 A 
BRANCH  15  18
ATOM     18  O   UNL     1      83.584  58.201  47.023  0.00  0.00    -0.507 OA
ATOM     19  H   UNL     1      83.216  58.417  47.857  0.00  0.00    +0.000 HD
ENDBRANCH  15  18
ENDBRANCH  10  12
BRANCH   2  20
ATOM     20  O   UNL     1      82.191  48.145  43.201  0.00  0.00    -0.506 OA
ATOM     21  H   UNL     1      81.389  48.004  43.663  0.00  0.00    +0.000 HD
ENDBRANCH   2  20
BRANCH   6  22
ATOM     22  O   UNL     1      86.783  48.172  44.883  0.00  0.00    -0.506 OA
ATOM     23  H   UNL     1      86.811  47.264  45.113  0.00  0.00    +0.000 HD
ENDBRANCH   6  22
BRANCH   9  24
ATOM     24  O   UNL     1      87.216  53.041  46.562  0.00  0.00    -0.501 OA
ATOM     25  H   UNL     1      87.399  52.988  47.479  0.00  0.00    +0.000 HD
ENDBRANCH   9  24
BRANCH   1  26
ATOM     26  C   UNL     1      84.571  46.646  43.702  0.00  0.00    -0.002 C 
BRANCH  26  29
ATOM     27  C   UNL     1      86.434  44.321  44.143  0.00  0.00    -0.044 C 
ATOM     28  C   UNL     1      86.691  45.388  43.103  0.00  0.00    -0.076 C 
ATOM     29  C   UNL     1      85.829  46.413  42.896  0.00  0.00    -0.080 C 
BRANCH  28  30
ATOM     30  C   UNL     1      87.957  45.311  42.274  0.00  0.00    -0.029 C 
BRANCH  30  31
ATOM     31  C   UNL     1      88.473  46.709  41.882  0.00  0.00    -0.031 C 
BRANCH  31  32
ATOM     32  C   UNL     1      89.731  47.082  42.640  0.00  0.00    -0.085 C 
ATOM     33  C   UNL     1      90.070  48.345  42.989  0.00  0.00    -0.080 C 
ATOM     34  C   UNL     1      89.156  49.521  42.736  0.00  0.00    -0.044 C 
ATOM     35  C   UNL     1      91.374  48.601  43.706  0.00  0.00    -0.044 C 
ENDBRANCH  31  32
ENDBRANCH  30  31
ENDBRANCH  28  30
ENDBRANCH  26  29
ENDBRANCH   1  26
TORSDOF 10
ENDMDL
MODEL 5
REMARK VINA RESULT:    -8.907      1.102      2.809
REMARK INTER + INTRA:         -13.969
REMARK INTER:                 -12.864
REMARK INTRA:                  -1.105
REMARK UNBOUND:                -0.896
REMARK  Name = 
REMARK  13 active torsions:
REMARK  status: ('A' for Active; 'I' for Inactive)
REMARK    1  A    between atoms: C_1  and  C_2
REMARK    2  A    between atoms: C_2  and  C_26
REMARK    3  A    between atoms: C_3  and  C_4
REMARK    4  A    between atoms: C_4  and  C_5
REMARK    5  A    between atoms: C_6  and  O_7
REMARK    6  A    between atoms: C_11  and  O_12
REMARK    7  A    between atoms: C_15  and  O_25
REMARK    8  A    between atoms: C_16  and  C_18
REMARK    9  A    between atoms: C_21  and  O_24
REMARK   10  A    between atoms: C_26  and  C_27
REMARK   11  A    between atoms: C_27  and  C_28
REMARK   12  A    between atoms: C_29  and  C_30
REMARK   13  A    between atoms: C_29  and  C_31
REMARK                            x       y       z     vdW  Elec       q    Type
REMARK                         _______ _______ _______ _____ _____    ______ ____
ROOT
ATOM      1  C   UNL     1      88.422  50.259  42.398  0.00  0.00    +0.040 A 
ATOM      2  C   UNL     1      88.369  50.310  43.807  0.00  0.00    +0.127 A 
ATOM      3  C   UNL     1      87.708  51.360  44.450  0.00  0.00    +0.023 A 
ATOM      4  C   UNL     1      87.080  52.361  43.713  0.00  0.00    +0.147 A 
ATOM      5  C   UNL     1      87.085  52.319  42.301  0.00  0.00    +0.109 A 
ATOM      6  C   UNL     1      87.747  51.253  41.638  0.00  0.00    +0.138 A 
ATOM      7  C   UNL     1      86.409  53.354  41.616  0.00  0.00    +0.238 A 
ATOM      8  O   UNL     1      86.360  53.375  40.355  0.00  0.00    -0.283 OA
ATOM      9  C   UNL     1      85.778  54.376  42.343  0.00  0.00    +0.208 A 
ATOM     10  C   UNL     1      85.850  54.354  43.748  0.00  0.00    +0.181 A 
ATOM     11  O   UNL     1      86.477  53.352  44.361  0.00  0.00    -0.451 OA
ENDROOT
BRANCH  10  12
ATOM     12  C   UNL     1      85.232  55.407  44.587  0.00  0.00    +0.021 A 
ATOM     13  C   UNL     1      84.668  55.063  45.828  0.00  0.00    -0.048 A 
ATOM     14  C   UNL     1      84.105  56.046  46.649  0.00  0.00    -0.020 A 
ATOM     15  C   UNL     1      84.108  57.385  46.246  0.00  0.00    +0.117 A 
ATOM     16  C   UNL     1      84.683  57.742  45.018  0.00  0.00    -0.020 A 
ATOM     17  C   UNL     1      85.248  56.760  44.196  0.00  0.00    -0.048 A 
BRANCH  15  18
ATOM     18  O   UNL     1      83.542  58.354  47.074  0.00  0.00    -0.507 OA
ATOM     19  H   UNL     1      82.938  58.976  46.721  0.00  0.00    +0.000 HD
ENDBRANCH  15  18
ENDBRANCH  10  12
BRANCH   2  20
ATOM     20  O   UNL     1      88.975  49.312  44.573  0.00  0.00    -0.506 OA
ATOM     21  H   UNL     1      88.449  48.737  45.094  0.00  0.00    +0.000 HD
ENDBRANCH   2  20
BRANCH   6  22
ATOM     22  O   UNL     1      87.717  51.195  40.239  0.00  0.00    -0.506 OA
ATOM     23  H   UNL     1      87.005  50.770  39.803  0.00  0.00    +0.000 HD
ENDBRANCH   6  22
BRANCH   9  24
ATOM     24  O   UNL     1      85.062  55.385  41.688  0.00  0.00    -0.501 OA
ATOM     25  H   UNL     1      84.904  56.202  42.119  0.00  0.00    +0.000 HD
ENDBRANCH   9  24
BRANCH   1  26
ATOM     26  C   UNL     1      89.168  49.123  41.729  0.00  0.00    -0.002 C 
BRANCH  26  29
ATOM     27  C   UNL     1      90.140  46.474  42.780  0.00  0.00    -0.044 C 
ATOM     28  C   UNL     1      88.762  46.661  42.185  0.00  0.00    -0.076 C 
ATOM     29  C   UNL     1      88.328  47.865  41.742  0.00  0.00    -0.080 C 
BRANCH  28  30
ATOM     30  C   UNL     1      87.845  45.460  42.074  0.00  0.00    -0.029 C 
BRANCH  30  31
ATOM     31  C   UNL     1      87.033  45.237  43.364  0.00  0.00    -0.031 C 
BRANCH  31  32
ATOM     32  C   UNL     1      85.563  45.548  43.170  0.00  0.00    -0.085 C 
ATOM     33  C   UNL     1      84.941  46.647  43.659  0.00  0.00    -0.080 C 
ATOM     34  C   UNL     1      85.692  47.742  44.379  0.00  0.00    -0.044 C 
ATOM     35  C   UNL     1      83.458  46.829  43.439  0.00  0.00    -0.044 C 
ENDBRANCH  31  32
ENDBRANCH  30  31
ENDBRANCH  28  30
ENDBRANCH  26  29
ENDBRANCH   1  26
TORSDOF 10
ENDMDL
MODEL 6
REMARK VINA RESULT:    -8.713      1.586      2.261
REMARK INTER + INTRA:         -13.684
REMARK INTER:                 -13.117
REMARK INTRA:                  -0.567
REMARK UNBOUND:                -0.896
REMARK  Name = 
REMARK  13 active torsions:
REMARK  status: ('A' for Active; 'I' for Inactive)
REMARK    1  A    between atoms: C_1  and  C_2
REMARK    2  A    between atoms: C_2  and  C_26
REMARK    3  A    between atoms: C_3  and  C_4
REMARK    4  A    between atoms: C_4  and  C_5
REMARK    5  A    between atoms: C_6  and  O_7
REMARK    6  A    between atoms: C_11  and  O_12
REMARK    7  A    between atoms: C_15  and  O_25
REMARK    8  A    between atoms: C_16  and  C_18
REMARK    9  A    between atoms: C_21  and  O_24
REMARK   10  A    between atoms: C_26  and  C_27
REMARK   11  A    between atoms: C_27  and  C_28
REMARK   12  A    between atoms: C_29  and  C_30
REMARK   13  A    between atoms: C_29  and  C_31
REMARK                            x       y       z     vdW  Elec       q    Type
REMARK                         _______ _______ _______ _____ _____    ______ ____
ROOT
ATOM      1  C   UNL     1      88.874  50.197  41.945  0.00  0.00    +0.040 A 
ATOM      2  C   UNL     1      88.677  51.257  41.035  0.00  0.00    +0.127 A 
ATOM      3  C   UNL     1      88.045  52.432  41.448  0.00  0.00    +0.023 A 
ATOM      4  C   UNL     1      87.613  52.583  42.764  0.00  0.00    +0.147 A 
ATOM      5  C   UNL     1      87.827  51.553  43.707  0.00  0.00    +0.109 A 
ATOM      6  C   UNL     1      88.475  50.357  43.300  0.00  0.00    +0.138 A 
ATOM      7  C   UNL     1      87.384  51.780  45.030  0.00  0.00    +0.238 A 
ATOM      8  O   UNL     1      87.552  50.911  45.930  0.00  0.00    -0.283 OA
ATOM      9  C   UNL     1      86.750  52.989  45.356  0.00  0.00    +0.208 A 
ATOM     10  C   UNL     1      86.552  53.947  44.344  0.00  0.00    +0.181 A 
ATOM     11  O   UNL     1      87.001  53.708  43.114  0.00  0.00    -0.451 OA
ENDROOT
BRANCH  10  12
ATOM     12  C   UNL     1      85.870  55.237  44.600  0.00  0.00    +0.021 A 
ATOM     13  C   UNL     1      86.316  56.061  45.648  0.00  0.00    -0.048 A 
ATOM     14  C   UNL     1      85.705  57.296  45.888  0.00  0.00    -0.020 A 
ATOM     15  C   UNL     1      84.649  57.728  45.079  0.00  0.00    +0.117 A 
ATOM     16  C   UNL     1      84.207  56.922  44.021  0.00  0.00    -0.020 A 
ATOM     17  C   UNL     1      84.819  55.686  43.777  0.00  0.00    -0.048 A 
BRANCH  15  18
ATOM     18  O   UNL     1      84.048  58.961  45.332  0.00  0.00    -0.507 OA
ATOM     19  H   UNL     1      84.557  59.667  45.679  0.00  0.00    +0.000 HD
ENDBRANCH  15  18
ENDBRANCH  10  12
BRANCH   2  20
ATOM     20  O   UNL     1      89.115  51.143  39.714  0.00  0.00    -0.506 OA
ATOM     21  H   UNL     1      89.750  50.493  39.485  0.00  0.00    +0.000 HD
ENDBRANCH   2  20
BRANCH   6  22
ATOM     22  O   UNL     1      88.718  49.355  44.248  0.00  0.00    -0.506 OA
ATOM     23  H   UNL     1      89.043  49.583  45.097  0.00  0.00    +0.000 HD
ENDBRANCH   6  22
BRANCH   9  24
ATOM     24  O   UNL     1      86.346  53.256  46.669  0.00  0.00    -0.501 OA
ATOM     25  H   UNL     1      85.520  53.667  46.831  0.00  0.00    +0.000 HD
ENDBRANCH   9  24
BRANCH   1  26
ATOM     26  C   UNL     1      89.539  48.924  41.462  0.00  0.00    -0.002 C 
BRANCH  26  29
ATOM     27  C   UNL     1      90.167  46.318  42.833  0.00  0.00    -0.044 C 
ATOM     28  C   UNL     1      88.852  46.576  42.134  0.00  0.00    -0.076 C 
ATOM     29  C   UNL     1      88.572  47.764  41.546  0.00  0.00    -0.080 C 
BRANCH  28  30
ATOM     30  C   UNL     1      87.821  45.467  42.083  0.00  0.00    -0.029 C 
BRANCH  30  31
ATOM     31  C   UNL     1      87.133  45.259  43.446  0.00  0.00    -0.031 C 
BRANCH  31  32
ATOM     32  C   UNL     1      86.878  43.794  43.735  0.00  0.00    -0.085 C 
ATOM     33  C   UNL     1      87.829  42.911  44.120  0.00  0.00    -0.080 C 
ATOM     34  C   UNL     1      89.252  43.333  44.398  0.00  0.00    -0.044 C 
ATOM     35  C   UNL     1      87.463  41.463  44.338  0.00  0.00    -0.044 C 
ENDBRANCH  31  32
ENDBRANCH  30  31
ENDBRANCH  28  30
ENDBRANCH  26  29
ENDBRANCH   1  26
TORSDOF 10
ENDMDL
MODEL 7
REMARK VINA RESULT:    -8.636      2.235      8.525
REMARK INTER + INTRA:         -13.571
REMARK INTER:                 -11.932
REMARK INTRA:                  -1.639
REMARK UNBOUND:                -0.896
REMARK  Name = 
REMARK  13 active torsions:
REMARK  status: ('A' for Active; 'I' for Inactive)
REMARK    1  A    between atoms: C_1  and  C_2
REMARK    2  A    between atoms: C_2  and  C_26
REMARK    3  A    between atoms: C_3  and  C_4
REMARK    4  A    between atoms: C_4  and  C_5
REMARK    5  A    between atoms: C_6  and  O_7
REMARK    6  A    between atoms: C_11  and  O_12
REMARK    7  A    between atoms: C_15  and  O_25
REMARK    8  A    between atoms: C_16  and  C_18
REMARK    9  A    between atoms: C_21  and  O_24
REMARK   10  A    between atoms: C_26  and  C_27
REMARK   11  A    between atoms: C_27  and  C_28
REMARK   12  A    between atoms: C_29  and  C_30
REMARK   13  A    between atoms: C_29  and  C_31
REMARK                            x       y       z     vdW  Elec       q    Type
REMARK                         _______ _______ _______ _____ _____    ______ ____
ROOT
ATOM      1  C   UNL     1      86.589  52.890  45.563  0.00  0.00    +0.040 A 
ATOM      2  C   UNL     1      86.400  51.869  46.518  0.00  0.00    +0.127 A 
ATOM      3  C   UNL     1      86.468  50.526  46.137  0.00  0.00    +0.023 A 
ATOM      4  C   UNL     1      86.738  50.175  44.816  0.00  0.00    +0.147 A 
ATOM      5  C   UNL     1      86.966  51.174  43.844  0.00  0.00    +0.109 A 
ATOM      6  C   UNL     1      86.907  52.541  44.221  0.00  0.00    +0.138 A 
ATOM      7  C   UNL     1      87.257  50.748  42.528  0.00  0.00    +0.238 A 
ATOM      8  O   UNL     1      87.486  51.583  41.609  0.00  0.00    -0.283 OA
ATOM      9  C   UNL     1      87.297  49.376  42.232  0.00  0.00    +0.208 A 
ATOM     10  C   UNL     1      87.026  48.452  43.257  0.00  0.00    +0.181 A 
ATOM     11  O   UNL     1      86.777  48.888  44.489  0.00  0.00    -0.451 OA
ENDROOT
BRANCH  10  12
ATOM     12  C   UNL     1      87.024  46.989  43.021  0.00  0.00    +0.021 A 
ATOM     13  C   UNL     1      88.235  46.330  42.745  0.00  0.00    -0.048 A 
ATOM     14  C   UNL     1      88.259  44.945  42.548  0.00  0.00    -0.020 A 
ATOM     15  C   UNL     1      87.079  44.201  42.635  0.00  0.00    +0.117 A 
ATOM     16  C   UNL     1      85.869  44.846  42.926  0.00  0.00    -0.020 A 
ATOM     17  C   UNL     1      85.842  46.231  43.126  0.00  0.00    -0.048 A 
BRANCH  15  18
ATOM     18  O   UNL     1      87.119  42.821  42.434  0.00  0.00    -0.507 OA
ATOM     19  H   UNL     1      87.168  42.476  41.565  0.00  0.00    +0.000 HD
ENDBRANCH  15  18
ENDBRANCH  10  12
BRANCH   2  20
ATOM     20  O   UNL     1      86.145  52.190  47.853  0.00  0.00    -0.506 OA
ATOM     21  H   UNL     1      85.308  51.999  48.229  0.00  0.00    +0.000 HD
ENDBRANCH   2  20
BRANCH   6  22
ATOM     22  O   UNL     1      87.172  53.527  43.262  0.00  0.00    -0.506 OA
ATOM     23  H   UNL     1      86.483  54.089  42.966  0.00  0.00    +0.000 HD
ENDBRANCH   6  22
BRANCH   9  24
ATOM     24  O   UNL     1      87.630  48.930  40.948  0.00  0.00    -0.501 OA
ATOM     25  H   UNL     1      87.162  49.254  40.203  0.00  0.00    +0.000 HD
ENDBRANCH   9  24
BRANCH   1  26
ATOM     26  C   UNL     1      86.484  54.337  45.999  0.00  0.00    -0.002 C 
BRANCH  26  29
ATOM     27  C   UNL     1      86.775  56.857  44.376  0.00  0.00    -0.044 C 
ATOM     28  C   UNL     1      85.445  56.165  44.580  0.00  0.00    -0.076 C 
ATOM     29  C   UNL     1      85.335  55.016  45.289  0.00  0.00    -0.080 C 
BRANCH  28  30
ATOM     30  C   UNL     1      84.200  56.784  43.978  0.00  0.00    -0.029 C 
BRANCH  30  31
ATOM     31  C   UNL     1      83.406  55.769  43.133  0.00  0.00    -0.031 C 
BRANCH  31  32
ATOM     32  C   UNL     1      84.135  55.399  41.858  0.00  0.00    -0.085 C 
ATOM     33  C   UNL     1      84.377  54.130  41.454  0.00  0.00    -0.080 C 
ATOM     34  C   UNL     1      83.845  52.932  42.204  0.00  0.00    -0.044 C 
ATOM     35  C   UNL     1      85.154  53.883  40.183  0.00  0.00    -0.044 C 
ENDBRANCH  31  32
ENDBRANCH  30  31
ENDBRANCH  28  30
ENDBRANCH  26  29
ENDBRANCH   1  26
TORSDOF 10
ENDMDL
MODEL 8
REMARK VINA RESULT:    -8.605      2.140      8.605
REMARK INTER + INTRA:         -13.526
REMARK INTER:                 -12.742
REMARK INTRA:                  -0.784
REMARK UNBOUND:                -0.896
REMARK  Name = 
REMARK  13 active torsions:
REMARK  status: ('A' for Active; 'I' for Inactive)
REMARK    1  A    between atoms: C_1  and  C_2
REMARK    2  A    between atoms: C_2  and  C_26
REMARK    3  A    between atoms: C_3  and  C_4
REMARK    4  A    between atoms: C_4  and  C_5
REMARK    5  A    between atoms: C_6  and  O_7
REMARK    6  A    between atoms: C_11  and  O_12
REMARK    7  A    between atoms: C_15  and  O_25
REMARK    8  A    between atoms: C_16  and  C_18
REMARK    9  A    between atoms: C_21  and  O_24
REMARK   10  A    between atoms: C_26  and  C_27
REMARK   11  A    between atoms: C_27  and  C_28
REMARK   12  A    between atoms: C_29  and  C_30
REMARK   13  A    between atoms: C_29  and  C_31
REMARK                            x       y       z     vdW  Elec       q    Type
REMARK                         _______ _______ _______ _____ _____    ______ ____
ROOT
ATOM      1  C   UNL     1      86.306  53.308  43.075  0.00  0.00    +0.040 A 
ATOM      2  C   UNL     1      85.319  52.505  43.684  0.00  0.00    +0.127 A 
ATOM      3  C   UNL     1      85.456  51.115  43.703  0.00  0.00    +0.023 A 
ATOM      4  C   UNL     1      86.571  50.502  43.138  0.00  0.00    +0.147 A 
ATOM      5  C   UNL     1      87.594  51.282  42.552  0.00  0.00    +0.109 A 
ATOM      6  C   UNL     1      87.469  52.696  42.533  0.00  0.00    +0.138 A 
ATOM      7  C   UNL     1      88.709  50.597  42.017  0.00  0.00    +0.238 A 
ATOM      8  O   UNL     1      89.667  51.228  41.490  0.00  0.00    -0.283 OA
ATOM      9  C   UNL     1      88.760  49.195  42.073  0.00  0.00    +0.208 A 
ATOM     10  C   UNL     1      87.681  48.499  42.648  0.00  0.00    +0.181 A 
ATOM     11  O   UNL     1      86.657  49.177  43.161  0.00  0.00    -0.451 OA
ENDROOT
BRANCH  10  12
ATOM     12  C   UNL     1      87.646  47.020  42.724  0.00  0.00    +0.021 A 
ATOM     13  C   UNL     1      86.410  46.360  42.840  0.00  0.00    -0.048 A 
ATOM     14  C   UNL     1      86.352  44.964  42.883  0.00  0.00    -0.020 A 
ATOM     15  C   UNL     1      87.526  44.208  42.800  0.00  0.00    +0.117 A 
ATOM     16  C   UNL     1      88.763  44.854  42.668  0.00  0.00    -0.020 A 
ATOM     17  C   UNL     1      88.823  46.252  42.622  0.00  0.00    -0.048 A 
BRANCH  15  18
ATOM     18  O   UNL     1      87.453  42.816  42.847  0.00  0.00    -0.507 OA
ATOM     19  H   UNL     1      86.751  42.399  43.307  0.00  0.00    +0.000 HD
ENDBRANCH  15  18
ENDBRANCH  10  12
BRANCH   2  20
ATOM     20  O   UNL     1      84.197  53.091  44.274  0.00  0.00    -0.506 OA
ATOM     21  H   UNL     1      83.450  53.304  43.750  0.00  0.00    +0.000 HD
ENDBRANCH   2  20
BRANCH   6  22
ATOM     22  O   UNL     1      88.502  53.465  41.985  0.00  0.00    -0.506 OA
ATOM     23  H   UNL     1      89.040  53.111  41.304  0.00  0.00    +0.000 HD
ENDBRANCH   6  22
BRANCH   9  24
ATOM     24  O   UNL     1      89.875  48.499  41.593  0.00  0.00    -0.501 OA
ATOM     25  H   UNL     1      89.908  47.565  41.658  0.00  0.00    +0.000 HD
ENDBRANCH   9  24
BRANCH   1  26
ATOM     26  C   UNL     1      86.119  54.812  43.045  0.00  0.00    -0.002 C 
BRANCH  26  29
ATOM     27  C   UNL     1      84.242  56.826  44.264  0.00  0.00    -0.044 C 
ATOM     28  C   UNL     1      85.472  56.317  44.982  0.00  0.00    -0.076 C 
ATOM     29  C   UNL     1      86.291  55.388  44.432  0.00  0.00    -0.080 C 
BRANCH  28  30
ATOM     30  C   UNL     1      85.799  56.870  46.354  0.00  0.00    -0.029 C 
BRANCH  30  31
ATOM     31  C   UNL     1      86.309  55.773  47.308  0.00  0.00    -0.031 C 
BRANCH  31  32
ATOM     32  C   UNL     1      85.172  55.046  47.999  0.00  0.00    -0.085 C 
ATOM     33  C   UNL     1      84.995  53.705  47.977  0.00  0.00    -0.080 C 
ATOM     34  C   UNL     1      85.990  52.772  47.330  0.00  0.00    -0.044 C 
ATOM     35  C   UNL     1      83.797  53.097  48.667  0.00  0.00    -0.044 C 
ENDBRANCH  31  32
ENDBRANCH  30  31
ENDBRANCH  28  30
ENDBRANCH  26  29
ENDBRANCH   1  26
TORSDOF 10
ENDMDL
MODEL 9
REMARK VINA RESULT:    -8.244      3.443      4.136
REMARK INTER + INTRA:         -12.996
REMARK INTER:                 -12.100
REMARK INTRA:                  -0.896
REMARK UNBOUND:                -0.896
REMARK  Name = 
REMARK  13 active torsions:
REMARK  status: ('A' for Active; 'I' for Inactive)
REMARK    1  A    between atoms: C_1  and  C_2
REMARK    2  A    between atoms: C_2  and  C_26
REMARK    3  A    between atoms: C_3  and  C_4
REMARK    4  A    between atoms: C_4  and  C_5
REMARK    5  A    between atoms: C_6  and  O_7
REMARK    6  A    between atoms: C_11  and  O_12
REMARK    7  A    between atoms: C_15  and  O_25
REMARK    8  A    between atoms: C_16  and  C_18
REMARK    9  A    between atoms: C_21  and  O_24
REMARK   10  A    between atoms: C_26  and  C_27
REMARK   11  A    between atoms: C_27  and  C_28
REMARK   12  A    between atoms: C_29  and  C_30
REMARK   13  A    between atoms: C_29  and  C_31
REMARK                            x       y       z     vdW  Elec       q    Type
REMARK                         _______ _______ _______ _____ _____    ______ ____
ROOT
ATOM      1  C   UNL     1      88.925  51.178  41.595  0.00  0.00    +0.040 A 
ATOM      2  C   UNL     1      88.729  51.680  40.291  0.00  0.00    +0.127 A 
ATOM      3  C   UNL     1      87.551  52.355  39.965  0.00  0.00    +0.023 A 
ATOM      4  C   UNL     1      86.559  52.557  40.922  0.00  0.00    +0.147 A 
ATOM      5  C   UNL     1      86.741  52.097  42.246  0.00  0.00    +0.109 A 
ATOM      6  C   UNL     1      87.938  51.416  42.590  0.00  0.00    +0.138 A 
ATOM      7  C   UNL     1      85.705  52.355  43.173  0.00  0.00    +0.238 A 
ATOM      8  O   UNL     1      85.802  51.987  44.376  0.00  0.00    -0.283 OA
ATOM      9  C   UNL     1      84.549  53.035  42.756  0.00  0.00    +0.208 A 
ATOM     10  C   UNL     1      84.442  53.429  41.410  0.00  0.00    +0.181 A 
ATOM     11  O   UNL     1      85.445  53.188  40.570  0.00  0.00    -0.451 OA
ENDROOT
BRANCH  10  12
ATOM     12  C   UNL     1      83.245  54.128  40.885  0.00  0.00    +0.021 A 
ATOM     13  C   UNL     1      83.387  55.055  39.837  0.00  0.00    -0.048 A 
ATOM     14  C   UNL     1      82.268  55.704  39.308  0.00  0.00    -0.020 A 
ATOM     15  C   UNL     1      80.992  55.429  39.809  0.00  0.00    +0.117 A 
ATOM     16  C   UNL     1      80.836  54.494  40.843  0.00  0.00    -0.020 A 
ATOM     17  C   UNL     1      81.955  53.842  41.373  0.00  0.00    -0.048 A 
BRANCH  15  18
ATOM     18  O   UNL     1      79.885  56.086  39.273  0.00  0.00    -0.507 OA
ATOM     19  H   UNL     1      79.978  56.604  38.498  0.00  0.00    +0.000 HD
ENDBRANCH  15  18
ENDBRANCH  10  12
BRANCH   2  20
ATOM     20  O   UNL     1      89.713  51.508  39.314  0.00  0.00    -0.506 OA
ATOM     21  H   UNL     1      90.571  51.222  39.558  0.00  0.00    +0.000 HD
ENDBRANCH   2  20
BRANCH   6  22
ATOM     22  O   UNL     1      88.129  50.996  43.912  0.00  0.00    -0.506 OA
ATOM     23  H   UNL     1      87.390  50.784  44.447  0.00  0.00    +0.000 HD
ENDBRANCH   6  22
BRANCH   9  24
ATOM     24  O   UNL     1      83.532  53.344  43.666  0.00  0.00    -0.501 OA
ATOM     25  H   UNL     1      82.774  53.815  43.380  0.00  0.00    +0.000 HD
ENDBRANCH   9  24
BRANCH   1  26
ATOM     26  C   UNL     1      90.202  50.427  41.913  0.00  0.00    -0.002 C 
BRANCH  26  29
ATOM     27  C   UNL     1      91.314  48.486  43.928  0.00  0.00    -0.044 C 
ATOM     28  C   UNL     1      90.475  48.047  42.749  0.00  0.00    -0.076 C 
ATOM     29  C   UNL     1      89.958  48.936  41.866  0.00  0.00    -0.080 C 
BRANCH  28  30
ATOM     30  C   UNL     1      90.215  46.569  42.546  0.00  0.00    -0.029 C 
BRANCH  30  31
ATOM     31  C   UNL     1      88.898  46.316  41.788  0.00  0.00    -0.031 C 
BRANCH  31  32
ATOM     32  C   UNL     1      87.965  45.403  42.558  0.00  0.00    -0.085 C 
ATOM     33  C   UNL     1      86.856  45.817  43.214  0.00  0.00    -0.080 C 
ATOM     34  C   UNL     1      86.376  47.247  43.159  0.00  0.00    -0.044 C 
ATOM     35  C   UNL     1      86.027  44.819  43.986  0.00  0.00    -0.044 C 
ENDBRANCH  31  32
ENDBRANCH  30  31
ENDBRANCH  28  30
ENDBRANCH  26  29
ENDBRANCH   1  26
TORSDOF 10
ENDMDL
