MODEL 1
REMARK VINA RESULT:    -6.426      0.000      0.000
REMARK INTER + INTRA:         -10.400
REMARK INTER:                  -9.138
REMARK INTRA:                  -1.262
REMARK UNBOUND:                -0.969
REMARK  Name = 
REMARK  13 active torsions:
REMARK  status: ('A' for Active; 'I' for Inactive)
REMARK    1  A    between atoms: C_1  and  O_2
REMARK    2  A    between atoms: O_2  and  C_3
REMARK    3  A    between atoms: C_3  and  C_5
REMARK    4  A    between atoms: C_6  and  C_7
REMARK    5  A    between atoms: C_6  and  C_19
REMARK    6  A    between atoms: C_7  and  C_8
REMARK    7  A    between atoms: C_8  and  C_9
REMARK    8  A    between atoms: C_10  and  C_11
REMARK    9  A    between atoms: C_10  and  C_18
REMARK   10  A    between atoms: C_11  and  C_12
REMARK   11  A    between atoms: C_12  and  C_13
REMARK   12  A    between atoms: C_15  and  C_16
REMARK   13  A    between atoms: C_15  and  C_17
REMARK                            x       y       z     vdW  Elec       q    Type
REMARK                         _______ _______ _______ _____ _____    ______ ____
ROOT
ATOM      1  C   UNL     1      86.465  52.991  46.188  0.00  0.00    -0.085 C 
ATOM      2  C   UNL     1      85.681  52.420  45.245  0.00  0.00    -0.076 C 
ATOM      3  C   UNL     1      84.191  52.659  45.197  0.00  0.00    -0.044 C 
ENDROOT
BRANCH   1   4
ATOM      4  C   UNL     1      85.954  53.866  47.305  0.00  0.00    -0.031 C 
BRANCH   4   5
ATOM      5  C   UNL     1      86.499  55.293  47.172  0.00  0.00    -0.028 C 
BRANCH   5   7
ATOM      6  C   UNL     1      86.182  56.631  45.130  0.00  0.00    +0.021 C 
ATOM      7  C   UNL     1      85.631  56.117  46.250  0.00  0.00    -0.066 C 
ATOM      8  C   UNL     1      84.187  56.337  46.623  0.00  0.00    -0.043 C 
BRANCH   6   9
ATOM      9  C   UNL     1      85.495  57.456  44.114  0.00  0.00    +0.332 C 
ATOM     10  O   UNL     1      85.374  58.693  44.327  0.00  0.00    -0.246 OA
BRANCH   9  12
ATOM     11  C   UNL     1      83.842  56.070  42.901  0.00  0.00    +0.082 C 
ATOM     12  O   UNL     1      84.995  56.901  42.932  0.00  0.00    -0.465 OA
ENDBRANCH   9  12
ENDBRANCH   6   9
ENDBRANCH   5   7
ENDBRANCH   4   5
ENDBRANCH   1   4
BRANCH   2  13
ATOM     13  C   UNL     1      86.311  51.553  44.174  0.00  0.00    -0.030 C 
BRANCH  13  14
ATOM     14  C   UNL     1      87.646  52.125  43.679  0.00  0.00    -0.020 C 
BRANCH  14  15
ATOM     15  C   UNL     1      87.534  52.678  42.248  0.00  0.00    +0.088 C 
ATOM     16  O   UNL     1      88.651  53.470  41.896  0.00  0.00    -0.365 OA
ATOM     17  C   UNL     1      88.529  52.232  41.233  0.00  0.00    +0.090 C 
ATOM     18  C   UNL     1      89.649  51.252  41.602  0.00  0.00    -0.034 C 
ATOM     19  C   UNL     1      88.154  52.397  39.761  0.00  0.00    -0.034 C 
ENDBRANCH  14  15
ENDBRANCH  13  14
ENDBRANCH   2  13
TORSDOF 8
ENDMDL
MODEL 2
REMARK VINA RESULT:    -6.412      5.309      8.486
REMARK INTER + INTRA:         -10.379
REMARK INTER:                  -9.251
REMARK INTRA:                  -1.127
REMARK UNBOUND:                -0.969
REMARK  Name = 
REMARK  13 active torsions:
REMARK  status: ('A' for Active; 'I' for Inactive)
REMARK    1  A    between atoms: C_1  and  O_2
REMARK    2  A    between atoms: O_2  and  C_3
REMARK    3  A    between atoms: C_3  and  C_5
REMARK    4  A    between atoms: C_6  and  C_7
REMARK    5  A    between atoms: C_6  and  C_19
REMARK    6  A    between atoms: C_7  and  C_8
REMARK    7  A    between atoms: C_8  and  C_9
REMARK    8  A    between atoms: C_10  and  C_11
REMARK    9  A    between atoms: C_10  and  C_18
REMARK   10  A    between atoms: C_11  and  C_12
REMARK   11  A    between atoms: C_12  and  C_13
REMARK   12  A    between atoms: C_15  and  C_16
REMARK   13  A    between atoms: C_15  and  C_17
REMARK                            x       y       z     vdW  Elec       q    Type
REMARK                         _______ _______ _______ _____ _____    ______ ____
ROOT
ATOM      1  C   UNL     1      89.097  46.452  42.006  0.00  0.00    -0.085 C 
ATOM      2  C   UNL     1      90.095  47.302  42.340  0.00  0.00    -0.076 C 
ATOM      3  C   UNL     1      90.968  47.068  43.549  0.00  0.00    -0.044 C 
ENDROOT
BRANCH   1   4
ATOM      4  C   UNL     1      88.712  45.234  42.807  0.00  0.00    -0.031 C 
BRANCH   4   5
ATOM      5  C   UNL     1      87.366  44.672  42.333  0.00  0.00    -0.028 C 
BRANCH   5   7
ATOM      6  C   UNL     1      85.655  46.328  42.957  0.00  0.00    +0.021 C 
ATOM      7  C   UNL     1      86.242  45.143  43.226  0.00  0.00    -0.066 C 
ATOM      8  C   UNL     1      85.827  44.273  44.384  0.00  0.00    -0.043 C 
BRANCH   6   9
ATOM      9  C   UNL     1      84.546  46.949  43.713  0.00  0.00    +0.332 C 
ATOM     10  O   UNL     1      84.826  47.650  44.722  0.00  0.00    -0.246 OA
BRANCH   9  12
ATOM     11  C   UNL     1      82.247  46.143  44.152  0.00  0.00    +0.082 C 
ATOM     12  O   UNL     1      83.212  46.786  43.328  0.00  0.00    -0.465 OA
ENDBRANCH   9  12
ENDBRANCH   6   9
ENDBRANCH   5   7
ENDBRANCH   4   5
ENDBRANCH   1   4
BRANCH   2  13
ATOM     13  C   UNL     1      90.383  48.498  41.456  0.00  0.00    -0.030 C 
BRANCH  13  14
ATOM     14  C   UNL     1      89.994  49.821  42.129  0.00  0.00    -0.020 C 
BRANCH  14  15
ATOM     15  C   UNL     1      88.857  50.532  41.376  0.00  0.00    +0.088 C 
ATOM     16  O   UNL     1      87.830  49.637  40.999  0.00  0.00    -0.365 OA
ATOM     17  C   UNL     1      87.505  50.572  42.002  0.00  0.00    +0.090 C 
ATOM     18  C   UNL     1      87.244  49.912  43.361  0.00  0.00    -0.034 C 
ATOM     19  C   UNL     1      86.533  51.640  41.506  0.00  0.00    -0.034 C 
ENDBRANCH  14  15
ENDBRANCH  13  14
ENDBRANCH   2  13
TORSDOF 8
ENDMDL
MODEL 3
REMARK VINA RESULT:    -6.403      2.982      6.054
REMARK INTER + INTRA:         -10.366
REMARK INTER:                  -9.027
REMARK INTRA:                  -1.339
REMARK UNBOUND:                -0.969
REMARK  Name = 
REMARK  13 active torsions:
REMARK  status: ('A' for Active; 'I' for Inactive)
REMARK    1  A    between atoms: C_1  and  O_2
REMARK    2  A    between atoms: O_2  and  C_3
REMARK    3  A    between atoms: C_3  and  C_5
REMARK    4  A    between atoms: C_6  and  C_7
REMARK    5  A    between atoms: C_6  and  C_19
REMARK    6  A    between atoms: C_7  and  C_8
REMARK    7  A    between atoms: C_8  and  C_9
REMARK    8  A    between atoms: C_10  and  C_11
REMARK    9  A    between atoms: C_10  and  C_18
REMARK   10  A    between atoms: C_11  and  C_12
REMARK   11  A    between atoms: C_12  and  C_13
REMARK   12  A    between atoms: C_15  and  C_16
REMARK   13  A    between atoms: C_15  and  C_17
REMARK                            x       y       z     vdW  Elec       q    Type
REMARK                         _______ _______ _______ _____ _____    ______ ____
ROOT
ATOM      1  C   UNL     1      84.212  57.008  45.630  0.00  0.00    -0.085 C 
ATOM      2  C   UNL     1      84.737  56.535  46.783  0.00  0.00    -0.076 C 
ATOM      3  C   UNL     1      86.197  56.167  46.901  0.00  0.00    -0.044 C 
ENDROOT
BRANCH   1   4
ATOM      4  C   UNL     1      84.986  57.170  44.345  0.00  0.00    -0.031 C 
BRANCH   4   5
ATOM      5  C   UNL     1      84.263  56.479  43.183  0.00  0.00    -0.028 C 
BRANCH   5   7
ATOM      6  C   UNL     1      84.616  54.638  41.588  0.00  0.00    +0.021 C 
ATOM      7  C   UNL     1      85.062  55.301  42.676  0.00  0.00    -0.066 C 
ATOM      8  C   UNL     1      86.318  54.911  43.410  0.00  0.00    -0.043 C 
BRANCH   6   9
ATOM      9  C   UNL     1      85.260  53.469  40.950  0.00  0.00    +0.332 C 
ATOM     10  O   UNL     1      85.868  53.639  39.859  0.00  0.00    -0.246 OA
BRANCH   9  12
ATOM     11  C   UNL     1      84.168  51.783  42.397  0.00  0.00    +0.082 C 
ATOM     12  O   UNL     1      85.218  52.198  41.533  0.00  0.00    -0.465 OA
ENDBRANCH   9  12
ENDBRANCH   6   9
ENDBRANCH   5   7
ENDBRANCH   4   5
ENDBRANCH   1   4
BRANCH   2  13
ATOM     13  C   UNL     1      83.856  56.411  48.009  0.00  0.00    -0.030 C 
BRANCH  13  14
ATOM     14  C   UNL     1      83.181  55.036  48.099  0.00  0.00    -0.020 C 
BRANCH  14  15
ATOM     15  C   UNL     1      84.040  54.028  48.881  0.00  0.00    +0.088 C 
ATOM     16  O   UNL     1      83.505  52.721  48.827  0.00  0.00    -0.365 OA
ATOM     17  C   UNL     1      84.711  52.931  48.128  0.00  0.00    +0.090 C 
ATOM     18  C   UNL     1      84.543  52.797  46.610  0.00  0.00    -0.034 C 
ATOM     19  C   UNL     1      85.898  52.242  48.799  0.00  0.00    -0.034 C 
ENDBRANCH  14  15
ENDBRANCH  13  14
ENDBRANCH   2  13
TORSDOF 8
ENDMDL
MODEL 4
REMARK VINA RESULT:    -6.290      2.687      3.803
REMARK INTER + INTRA:         -10.200
REMARK INTER:                  -9.408
REMARK INTRA:                  -0.792
REMARK UNBOUND:                -0.969
REMARK  Name = 
REMARK  13 active torsions:
REMARK  status: ('A' for Active; 'I' for Inactive)
REMARK    1  A    between atoms: C_1  and  O_2
REMARK    2  A    between atoms: O_2  and  C_3
REMARK    3  A    between atoms: C_3  and  C_5
REMARK    4  A    between atoms: C_6  and  C_7
REMARK    5  A    between atoms: C_6  and  C_19
REMARK    6  A    between atoms: C_7  and  C_8
REMARK    7  A    between atoms: C_8  and  C_9
REMARK    8  A    between atoms: C_10  and  C_11
REMARK    9  A    between atoms: C_10  and  C_18
REMARK   10  A    between atoms: C_11  and  C_12
REMARK   11  A    between atoms: C_12  and  C_13
REMARK   12  A    between atoms: C_15  and  C_16
REMARK   13  A    between atoms: C_15  and  C_17
REMARK                            x       y       z     vdW  Elec       q    Type
REMARK                         _______ _______ _______ _____ _____    ______ ____
ROOT
ATOM      1  C   UNL     1      87.557  52.283  43.202  0.00  0.00    -0.085 C 
ATOM      2  C   UNL     1      87.546  51.606  44.373  0.00  0.00    -0.076 C 
ATOM      3  C   UNL     1      87.155  52.268  45.673  0.00  0.00    -0.044 C 
ENDROOT
BRANCH   1   4
ATOM      4  C   UNL     1      87.241  53.751  43.065  0.00  0.00    -0.031 C 
BRANCH   4   5
ATOM      5  C   UNL     1      85.780  53.958  42.649  0.00  0.00    -0.028 C 
BRANCH   5   7
ATOM      6  C   UNL     1      86.063  56.068  43.885  0.00  0.00    +0.021 C 
ATOM      7  C   UNL     1      85.292  55.327  43.062  0.00  0.00    -0.066 C 
ATOM      8  C   UNL     1      83.960  55.805  42.544  0.00  0.00    -0.043 C 
BRANCH   6   9
ATOM      9  C   UNL     1      85.754  57.422  44.393  0.00  0.00    +0.332 C 
ATOM     10  O   UNL     1      85.926  58.406  43.624  0.00  0.00    -0.246 OA
BRANCH   9  12
ATOM     11  C   UNL     1      85.598  56.774  46.777  0.00  0.00    +0.082 C 
ATOM     12  O   UNL     1      85.270  57.628  45.688  0.00  0.00    -0.465 OA
ENDBRANCH   9  12
ENDBRANCH   6   9
ENDBRANCH   5   7
ENDBRANCH   4   5
ENDBRANCH   1   4
BRANCH   2  13
ATOM     13  C   UNL     1      87.890  50.130  44.386  0.00  0.00    -0.030 C 
BRANCH  13  14
ATOM     14  C   UNL     1      88.388  49.641  43.019  0.00  0.00    -0.020 C 
BRANCH  14  15
ATOM     15  C   UNL     1      87.736  48.308  42.618  0.00  0.00    +0.088 C 
ATOM     16  O   UNL     1      87.807  48.080  41.225  0.00  0.00    -0.365 OA
ATOM     17  C   UNL     1      88.598  47.241  42.035  0.00  0.00    +0.090 C 
ATOM     18  C   UNL     1      90.100  47.465  41.827  0.00  0.00    -0.034 C 
ATOM     19  C   UNL     1      88.068  45.809  42.077  0.00  0.00    -0.034 C 
ENDBRANCH  14  15
ENDBRANCH  13  14
ENDBRANCH   2  13
TORSDOF 8
ENDMDL
MODEL 5
REMARK VINA RESULT:    -6.245      2.704      5.254
REMARK INTER + INTRA:         -10.134
REMARK INTER:                  -9.014
REMARK INTRA:                  -1.120
REMARK UNBOUND:                -0.969
REMARK  Name = 
REMARK  13 active torsions:
REMARK  status: ('A' for Active; 'I' for Inactive)
REMARK    1  A    between atoms: C_1  and  O_2
REMARK    2  A    between atoms: O_2  and  C_3
REMARK    3  A    between atoms: C_3  and  C_5
REMARK    4  A    between atoms: C_6  and  C_7
REMARK    5  A    between atoms: C_6  and  C_19
REMARK    6  A    between atoms: C_7  and  C_8
REMARK    7  A    between atoms: C_8  and  C_9
REMARK    8  A    between atoms: C_10  and  C_11
REMARK    9  A    between atoms: C_10  and  C_18
REMARK   10  A    between atoms: C_11  and  C_12
REMARK   11  A    between atoms: C_12  and  C_13
REMARK   12  A    between atoms: C_15  and  C_16
REMARK   13  A    between atoms: C_15  and  C_17
REMARK                            x       y       z     vdW  Elec       q    Type
REMARK                         _______ _______ _______ _____ _____    ______ ____
ROOT
ATOM      1  C   UNL     1      85.636  56.239  45.679  0.00  0.00    -0.085 C 
ATOM      2  C   UNL     1      85.112  57.393  45.206  0.00  0.00    -0.076 C 
ATOM      3  C   UNL     1      84.945  58.610  46.084  0.00  0.00    -0.044 C 
ENDROOT
BRANCH   1   4
ATOM      4  C   UNL     1      86.054  56.017  47.111  0.00  0.00    -0.031 C 
BRANCH   4   5
ATOM      5  C   UNL     1      84.903  55.420  47.929  0.00  0.00    -0.028 C 
BRANCH   5   7
ATOM      6  C   UNL     1      86.020  53.300  47.367  0.00  0.00    +0.021 C 
ATOM      7  C   UNL     1      84.926  53.910  47.869  0.00  0.00    -0.066 C 
ATOM      8  C   UNL     1      83.723  53.150  48.364  0.00  0.00    -0.043 C 
BRANCH   6   9
ATOM      9  C   UNL     1      86.225  51.842  47.229  0.00  0.00    +0.332 C 
ATOM     10  O   UNL     1      85.916  51.292  46.138  0.00  0.00    -0.246 OA
BRANCH   9  12
ATOM     11  C   UNL     1      87.882  50.219  48.093  0.00  0.00    +0.082 C 
ATOM     12  O   UNL     1      86.759  51.073  48.268  0.00  0.00    -0.465 OA
ENDBRANCH   9  12
ENDBRANCH   6   9
ENDBRANCH   5   7
ENDBRANCH   4   5
ENDBRANCH   1   4
BRANCH   2  13
ATOM     13  C   UNL     1      84.723  57.493  43.746  0.00  0.00    -0.030 C 
BRANCH  13  14
ATOM     14  C   UNL     1      83.870  56.300  43.291  0.00  0.00    -0.020 C 
BRANCH  14  15
ATOM     15  C   UNL     1      84.486  55.589  42.075  0.00  0.00    +0.088 C 
ATOM     16  O   UNL     1      85.811  55.164  42.323  0.00  0.00    -0.365 OA
ATOM     17  C   UNL     1      84.842  54.148  42.198  0.00  0.00    +0.090 C 
ATOM     18  C   UNL     1      84.613  53.387  43.509  0.00  0.00    -0.034 C 
ATOM     19  C   UNL     1      85.002  53.350  40.905  0.00  0.00    -0.034 C 
ENDBRANCH  14  15
ENDBRANCH  13  14
ENDBRANCH   2  13
TORSDOF 8
ENDMDL
MODEL 6
REMARK VINA RESULT:    -6.238      1.261      5.419
REMARK INTER + INTRA:         -10.124
REMARK INTER:                  -8.784
REMARK INTRA:                  -1.340
REMARK UNBOUND:                -0.969
REMARK  Name = 
REMARK  13 active torsions:
REMARK  status: ('A' for Active; 'I' for Inactive)
REMARK    1  A    between atoms: C_1  and  O_2
REMARK    2  A    between atoms: O_2  and  C_3
REMARK    3  A    between atoms: C_3  and  C_5
REMARK    4  A    between atoms: C_6  and  C_7
REMARK    5  A    between atoms: C_6  and  C_19
REMARK    6  A    between atoms: C_7  and  C_8
REMARK    7  A    between atoms: C_8  and  C_9
REMARK    8  A    between atoms: C_10  and  C_11
REMARK    9  A    between atoms: C_10  and  C_18
REMARK   10  A    between atoms: C_11  and  C_12
REMARK   11  A    between atoms: C_12  and  C_13
REMARK   12  A    between atoms: C_15  and  C_16
REMARK   13  A    between atoms: C_15  and  C_17
REMARK                            x       y       z     vdW  Elec       q    Type
REMARK                         _______ _______ _______ _____ _____    ______ ____
ROOT
ATOM      1  C   UNL     1      86.506  53.283  46.606  0.00  0.00    -0.085 C 
ATOM      2  C   UNL     1      85.814  53.483  47.752  0.00  0.00    -0.076 C 
ATOM      3  C   UNL     1      85.679  52.405  48.800  0.00  0.00    -0.044 C 
ENDROOT
BRANCH   1   4
ATOM      4  C   UNL     1      87.160  51.979  46.224  0.00  0.00    -0.031 C 
BRANCH   4   5
ATOM      5  C   UNL     1      86.377  51.283  45.105  0.00  0.00    -0.028 C 
BRANCH   5   7
ATOM      6  C   UNL     1      87.848  52.055  43.288  0.00  0.00    +0.021 C 
ATOM      7  C   UNL     1      86.594  51.981  43.782  0.00  0.00    -0.066 C 
ATOM      8  C   UNL     1      85.402  52.572  43.074  0.00  0.00    -0.043 C 
BRANCH   6   9
ATOM      9  C   UNL     1      88.252  52.694  42.016  0.00  0.00    +0.332 C 
ATOM     10  O   UNL     1      88.746  53.853  42.057  0.00  0.00    -0.246 OA
BRANCH   9  12
ATOM     11  C   UNL     1      89.148  51.257  40.211  0.00  0.00    +0.082 C 
ATOM     12  O   UNL     1      88.111  52.041  40.788  0.00  0.00    -0.465 OA
ENDBRANCH   9  12
ENDBRANCH   6   9
ENDBRANCH   5   7
ENDBRANCH   4   5
ENDBRANCH   1   4
BRANCH   2  13
ATOM     13  C   UNL     1      85.194  54.839  48.021  0.00  0.00    -0.030 C 
BRANCH  13  14
ATOM     14  C   UNL     1      85.826  55.945  47.166  0.00  0.00    -0.020 C 
BRANCH  14  15
ATOM     15  C   UNL     1      84.873  56.426  46.059  0.00  0.00    +0.088 C 
ATOM     16  O   UNL     1      85.311  57.633  45.469  0.00  0.00    -0.365 OA
ATOM     17  C   UNL     1      85.378  56.481  44.659  0.00  0.00    +0.090 C 
ATOM     18  C   UNL     1      86.819  56.079  44.323  0.00  0.00    -0.034 C 
ATOM     19  C   UNL     1      84.340  56.499  43.538  0.00  0.00    -0.034 C 
ENDBRANCH  14  15
ENDBRANCH  13  14
ENDBRANCH   2  13
TORSDOF 8
ENDMDL
MODEL 7
REMARK VINA RESULT:    -6.232      1.598      2.222
REMARK INTER + INTRA:         -10.116
REMARK INTER:                  -9.147
REMARK INTRA:                  -0.969
REMARK UNBOUND:                -0.969
REMARK  Name = 
REMARK  13 active torsions:
REMARK  status: ('A' for Active; 'I' for Inactive)
REMARK    1  A    between atoms: C_1  and  O_2
REMARK    2  A    between atoms: O_2  and  C_3
REMARK    3  A    between atoms: C_3  and  C_5
REMARK    4  A    between atoms: C_6  and  C_7
REMARK    5  A    between atoms: C_6  and  C_19
REMARK    6  A    between atoms: C_7  and  C_8
REMARK    7  A    between atoms: C_8  and  C_9
REMARK    8  A    between atoms: C_10  and  C_11
REMARK    9  A    between atoms: C_10  and  C_18
REMARK   10  A    between atoms: C_11  and  C_12
REMARK   11  A    between atoms: C_12  and  C_13
REMARK   12  A    between atoms: C_15  and  C_16
REMARK   13  A    between atoms: C_15  and  C_17
REMARK                            x       y       z     vdW  Elec       q    Type
REMARK                         _______ _______ _______ _____ _____    ______ ____
ROOT
ATOM      1  C   UNL     1      84.723  53.552  46.556  0.00  0.00    -0.085 C 
ATOM      2  C   UNL     1      85.481  52.575  47.105  0.00  0.00    -0.076 C 
ATOM      3  C   UNL     1      85.777  52.532  48.585  0.00  0.00    -0.044 C 
ENDROOT
BRANCH   1   4
ATOM      4  C   UNL     1      84.144  54.713  47.326  0.00  0.00    -0.031 C 
BRANCH   4   5
ATOM      5  C   UNL     1      85.121  55.894  47.348  0.00  0.00    -0.028 C 
BRANCH   5   7
ATOM      6  C   UNL     1      84.813  57.038  45.190  0.00  0.00    +0.021 C 
ATOM      7  C   UNL     1      85.586  56.234  45.951  0.00  0.00    -0.066 C 
ATOM      8  C   UNL     1      86.889  55.656  45.463  0.00  0.00    -0.043 C 
BRANCH   6   9
ATOM      9  C   UNL     1      85.102  57.479  43.808  0.00  0.00    +0.332 C 
ATOM     10  O   UNL     1      85.686  58.583  43.640  0.00  0.00    -0.246 OA
BRANCH   9  12
ATOM     11  C   UNL     1      83.718  55.727  42.739  0.00  0.00    +0.082 C 
ATOM     12  O   UNL     1      84.756  56.699  42.700  0.00  0.00    -0.465 OA
ENDBRANCH   9  12
ENDBRANCH   6   9
ENDBRANCH   5   7
ENDBRANCH   4   5
ENDBRANCH   1   4
BRANCH   2  13
ATOM     13  C   UNL     1      86.013  51.462  46.226  0.00  0.00    -0.030 C 
BRANCH  13  14
ATOM     14  C   UNL     1      87.384  51.803  45.627  0.00  0.00    -0.020 C 
BRANCH  14  15
ATOM     15  C   UNL     1      87.799  50.796  44.541  0.00  0.00    +0.088 C 
ATOM     16  O   UNL     1      86.785  50.611  43.574  0.00  0.00    -0.365 OA
ATOM     17  C   UNL     1      87.948  51.280  43.140  0.00  0.00    +0.090 C 
ATOM     18  C   UNL     1      87.683  52.747  42.780  0.00  0.00    -0.034 C 
ATOM     19  C   UNL     1      88.786  50.430  42.188  0.00  0.00    -0.034 C 
ENDBRANCH  14  15
ENDBRANCH  13  14
ENDBRANCH   2  13
TORSDOF 8
ENDMDL
MODEL 8
REMARK VINA RESULT:    -6.207      2.261      6.925
REMARK INTER + INTRA:         -10.079
REMARK INTER:                  -9.182
REMARK INTRA:                  -0.896
REMARK UNBOUND:                -0.969
REMARK  Name = 
REMARK  13 active torsions:
REMARK  status: ('A' for Active; 'I' for Inactive)
REMARK    1  A    between atoms: C_1  and  O_2
REMARK    2  A    between atoms: O_2  and  C_3
REMARK    3  A    between atoms: C_3  and  C_5
REMARK    4  A    between atoms: C_6  and  C_7
REMARK    5  A    between atoms: C_6  and  C_19
REMARK    6  A    between atoms: C_7  and  C_8
REMARK    7  A    between atoms: C_8  and  C_9
REMARK    8  A    between atoms: C_10  and  C_11
REMARK    9  A    between atoms: C_10  and  C_18
REMARK   10  A    between atoms: C_11  and  C_12
REMARK   11  A    between atoms: C_12  and  C_13
REMARK   12  A    between atoms: C_15  and  C_16
REMARK   13  A    between atoms: C_15  and  C_17
REMARK                            x       y       z     vdW  Elec       q    Type
REMARK                         _______ _______ _______ _____ _____    ______ ____
ROOT
ATOM      1  C   UNL     1      86.636  53.096  46.620  0.00  0.00    -0.085 C 
ATOM      2  C   UNL     1      86.054  53.036  47.840  0.00  0.00    -0.076 C 
ATOM      3  C   UNL     1      86.071  51.776  48.671  0.00  0.00    -0.044 C 
ENDROOT
BRANCH   1   4
ATOM      4  C   UNL     1      87.307  51.929  45.940  0.00  0.00    -0.031 C 
BRANCH   4   5
ATOM      5  C   UNL     1      87.003  51.925  44.437  0.00  0.00    -0.028 C 
BRANCH   5   7
ATOM      6  C   UNL     1      87.732  50.751  42.400  0.00  0.00    +0.021 C 
ATOM      7  C   UNL     1      87.702  50.775  43.749  0.00  0.00    -0.066 C 
ATOM      8  C   UNL     1      88.328  49.700  44.598  0.00  0.00    -0.043 C 
BRANCH   6   9
ATOM      9  C   UNL     1      88.365  49.714  41.556  0.00  0.00    +0.332 C 
ATOM     10  O   UNL     1      87.623  48.882  40.969  0.00  0.00    -0.246 OA
BRANCH   9  12
ATOM     11  C   UNL     1      90.509  48.483  41.692  0.00  0.00    +0.082 C 
ATOM     12  O   UNL     1      89.752  49.649  41.389  0.00  0.00    -0.465 OA
ENDBRANCH   9  12
ENDBRANCH   6   9
ENDBRANCH   5   7
ENDBRANCH   4   5
ENDBRANCH   1   4
BRANCH   2  13
ATOM     13  C   UNL     1      85.404  54.277  48.417  0.00  0.00    -0.030 C 
BRANCH  13  14
ATOM     14  C   UNL     1      84.354  54.874  47.471  0.00  0.00    -0.020 C 
BRANCH  14  15
ATOM     15  C   UNL     1      84.535  56.392  47.302  0.00  0.00    +0.088 C 
ATOM     16  O   UNL     1      85.883  56.741  47.059  0.00  0.00    -0.365 OA
ATOM     17  C   UNL     1      84.989  56.911  45.981  0.00  0.00    +0.090 C 
ATOM     18  C   UNL     1      85.283  55.958  44.817  0.00  0.00    -0.034 C 
ATOM     19  C   UNL     1      84.723  58.384  45.676  0.00  0.00    -0.034 C 
ENDBRANCH  14  15
ENDBRANCH  13  14
ENDBRANCH   2  13
TORSDOF 8
ENDMDL
MODEL 9
REMARK VINA RESULT:    -6.189      2.265      6.657
REMARK INTER + INTRA:         -10.052
REMARK INTER:                  -9.360
REMARK INTRA:                  -0.693
REMARK UNBOUND:                -0.969
REMARK  Name = 
REMARK  13 active torsions:
REMARK  status: ('A' for Active; 'I' for Inactive)
REMARK    1  A    between atoms: C_1  and  O_2
REMARK    2  A    between atoms: O_2  and  C_3
REMARK    3  A    between atoms: C_3  and  C_5
REMARK    4  A    between atoms: C_6  and  C_7
REMARK    5  A    between atoms: C_6  and  C_19
REMARK    6  A    between atoms: C_7  and  C_8
REMARK    7  A    between atoms: C_8  and  C_9
REMARK    8  A    between atoms: C_10  and  C_11
REMARK    9  A    between atoms: C_10  and  C_18
REMARK   10  A    between atoms: C_11  and  C_12
REMARK   11  A    between atoms: C_12  and  C_13
REMARK   12  A    between atoms: C_15  and  C_16
REMARK   13  A    between atoms: C_15  and  C_17
REMARK                            x       y       z     vdW  Elec       q    Type
REMARK                         _______ _______ _______ _____ _____    ______ ____
ROOT
ATOM      1  C   UNL     1      87.585  51.140  45.347  0.00  0.00    -0.085 C 
ATOM      2  C   UNL     1      87.162  51.202  46.630  0.00  0.00    -0.076 C 
ATOM      3  C   UNL     1      87.371  50.059  47.595  0.00  0.00    -0.044 C 
ENDROOT
BRANCH   1   4
ATOM      4  C   UNL     1      88.250  49.936  44.727  0.00  0.00    -0.031 C 
BRANCH   4   5
ATOM      5  C   UNL     1      87.732  49.699  43.304  0.00  0.00    -0.028 C 
BRANCH   5   7
ATOM      6  C   UNL     1      88.396  51.237  41.501  0.00  0.00    +0.021 C 
ATOM      7  C   UNL     1      88.729  50.186  42.280  0.00  0.00    -0.066 C 
ATOM      8  C   UNL     1      90.052  49.474  42.164  0.00  0.00    -0.043 C 
BRANCH   6   9
ATOM      9  C   UNL     1      89.236  51.852  40.450  0.00  0.00    +0.332 C 
ATOM     10  O   UNL     1      89.053  51.502  39.254  0.00  0.00    -0.246 OA
BRANCH   9  12
ATOM     11  C   UNL     1      90.632  53.797  39.822  0.00  0.00    +0.082 C 
ATOM     12  O   UNL     1      90.208  52.810  40.754  0.00  0.00    -0.465 OA
ENDBRANCH   9  12
ENDBRANCH   6   9
ENDBRANCH   5   7
ENDBRANCH   4   5
ENDBRANCH   1   4
BRANCH   2  13
ATOM     13  C   UNL     1      86.500  52.467  47.137  0.00  0.00    -0.030 C 
BRANCH  13  14
ATOM     14  C   UNL     1      85.484  53.030  46.134  0.00  0.00    -0.020 C 
BRANCH  14  15
ATOM     15  C   UNL     1      84.775  54.281  46.680  0.00  0.00    +0.088 C 
ATOM     16  O   UNL     1      85.612  55.034  47.535  0.00  0.00    -0.365 OA
ATOM     17  C   UNL     1      85.297  55.621  46.293  0.00  0.00    +0.090 C 
ATOM     18  C   UNL     1      86.520  55.758  45.379  0.00  0.00    -0.034 C 
ATOM     19  C   UNL     1      84.352  56.812  46.437  0.00  0.00    -0.034 C 
ENDBRANCH  14  15
ENDBRANCH  13  14
ENDBRANCH   2  13
TORSDOF 8
ENDMDL
