MODEL 1
REMARK VINA RESULT:    -6.757      0.000      0.000
REMARK INTER + INTRA:         -11.478
REMARK INTER:                 -10.480
REMARK INTRA:                  -0.998
REMARK UNBOUND:                -0.770
REMARK  Name = 
REMARK  16 active torsions:
REMARK  status: ('A' for Active; 'I' for Inactive)
REMARK    1  A    between atoms: C_1  and  O_2
REMARK    2  A    between atoms: O_2  and  C_3
REMARK    3  A    between atoms: C_3  and  C_5
REMARK    4  A    between atoms: C_6  and  C_7
REMARK    5  A    between atoms: C_6  and  C_20
REMARK    6  A    between atoms: C_7  and  C_8
REMARK    7  A    between atoms: C_8  and  C_9
REMARK    8  A    between atoms: C_10  and  C_11
REMARK    9  A    between atoms: C_10  and  C_19
REMARK   10  A    between atoms: C_11  and  C_12
REMARK   11  A    between atoms: C_12  and  C_13
REMARK   12  A    between atoms: C_13  and  C_14
REMARK   13  A    between atoms: C_13  and  O_18
REMARK   14  A    between atoms: C_14  and  O_15
REMARK   15  A    between atoms: C_14  and  C_16
REMARK   16  A    between atoms: C_14  and  C_17
REMARK                            x       y       z     vdW  Elec       q    Type
REMARK                         _______ _______ _______ _____ _____    ______ ____
ROOT
ATOM      1  C   UNL     1      89.095  47.267  41.843  0.00  0.00    -0.085 C 
ATOM      2  C   UNL     1      89.527  46.133  42.441  0.00  0.00    -0.076 C 
ATOM      3  C   UNL     1      90.905  46.032  43.052  0.00  0.00    -0.044 C 
ENDROOT
BRANCH   1   4
ATOM      4  C   UNL     1      89.900  48.538  41.742  0.00  0.00    -0.031 C 
BRANCH   4   5
ATOM      5  C   UNL     1      89.369  49.597  42.716  0.00  0.00    -0.028 C 
BRANCH   5   7
ATOM      6  C   UNL     1      89.519  51.076  40.752  0.00  0.00    +0.021 C 
ATOM      7  C   UNL     1      89.000  50.866  41.982  0.00  0.00    -0.066 C 
ATOM      8  C   UNL     1      88.071  51.845  42.653  0.00  0.00    -0.043 C 
BRANCH   6   9
ATOM      9  C   UNL     1      89.279  52.250  39.886  0.00  0.00    +0.332 C 
ATOM     10  O   UNL     1      88.558  52.177  38.854  0.00  0.00    -0.246 OA
BRANCH   9  12
ATOM     11  C   UNL     1      90.857  54.102  39.431  0.00  0.00    +0.082 C 
ATOM     12  O   UNL     1      89.874  53.465  40.239  0.00  0.00    -0.465 OA
ENDBRANCH   9  12
ENDBRANCH   6   9
ENDBRANCH   5   7
ENDBRANCH   4   5
ENDBRANCH   1   4
BRANCH   2  13
ATOM     13  C   UNL     1      88.600  44.935  42.505  0.00  0.00    -0.030 C 
BRANCH  13  14
ATOM     14  C   UNL     1      87.137  45.306  42.207  0.00  0.00    -0.020 C 
BRANCH  14  15
ATOM     15  C   UNL     1      86.153  44.803  43.292  0.00  0.00    +0.084 C 
BRANCH  15  16
ATOM     16  C   UNL     1      85.246  45.943  43.859  0.00  0.00    +0.086 C 
ATOM     17  C   UNL     1      83.934  46.071  43.060  0.00  0.00    -0.034 C 
ATOM     18  C   UNL     1      85.996  47.290  43.792  0.00  0.00    -0.034 C 
BRANCH  16  19
ATOM     19  O   UNL     1      84.908  45.675  45.200  0.00  0.00    -0.387 OA
ATOM     20  H   UNL     1      85.091  44.743  45.400  0.00  0.00    +0.000 HD
ENDBRANCH  16  19
ENDBRANCH  15  16
BRANCH  15  21
ATOM     21  O   UNL     1      86.874  44.202  44.340  0.00  0.00    -0.389 OA
ATOM     22  H   UNL     1      86.392  44.318  45.173  0.00  0.00    +0.000 HD
ENDBRANCH  15  21
ENDBRANCH  14  15
ENDBRANCH  13  14
ENDBRANCH   2  13
TORSDOF 11
ENDMDL
MODEL 2
REMARK VINA RESULT:    -6.749      5.167      8.944
REMARK INTER + INTRA:         -11.465
REMARK INTER:                 -10.187
REMARK INTRA:                  -1.278
REMARK UNBOUND:                -0.770
REMARK  Name = 
REMARK  16 active torsions:
REMARK  status: ('A' for Active; 'I' for Inactive)
REMARK    1  A    between atoms: C_1  and  O_2
REMARK    2  A    between atoms: O_2  and  C_3
REMARK    3  A    between atoms: C_3  and  C_5
REMARK    4  A    between atoms: C_6  and  C_7
REMARK    5  A    between atoms: C_6  and  C_20
REMARK    6  A    between atoms: C_7  and  C_8
REMARK    7  A    between atoms: C_8  and  C_9
REMARK    8  A    between atoms: C_10  and  C_11
REMARK    9  A    between atoms: C_10  and  C_19
REMARK   10  A    between atoms: C_11  and  C_12
REMARK   11  A    between atoms: C_12  and  C_13
REMARK   12  A    between atoms: C_13  and  C_14
REMARK   13  A    between atoms: C_13  and  O_18
REMARK   14  A    between atoms: C_14  and  O_15
REMARK   15  A    between atoms: C_14  and  C_16
REMARK   16  A    between atoms: C_14  and  C_17
REMARK                            x       y       z     vdW  Elec       q    Type
REMARK                         _______ _______ _______ _____ _____    ______ ____
ROOT
ATOM      1  C   UNL     1      85.242  53.582  46.244  0.00  0.00    -0.085 C 
ATOM      2  C   UNL     1      85.148  54.317  47.375  0.00  0.00    -0.076 C 
ATOM      3  C   UNL     1      85.628  53.791  48.708  0.00  0.00    -0.044 C 
ENDROOT
BRANCH   1   4
ATOM      4  C   UNL     1      85.845  52.201  46.172  0.00  0.00    -0.031 C 
BRANCH   4   5
ATOM      5  C   UNL     1      87.309  52.271  45.725  0.00  0.00    -0.028 C 
BRANCH   5   7
ATOM      6  C   UNL     1      87.113  52.711  43.309  0.00  0.00    +0.021 C 
ATOM      7  C   UNL     1      87.453  51.838  44.283  0.00  0.00    -0.066 C 
ATOM      8  C   UNL     1      87.965  50.451  43.992  0.00  0.00    -0.043 C 
BRANCH   6   9
ATOM      9  C   UNL     1      87.180  52.472  41.852  0.00  0.00    +0.332 C 
ATOM     10  O   UNL     1      86.299  51.801  41.249  0.00  0.00    -0.246 OA
BRANCH   9  12
ATOM     11  C   UNL     1      89.539  52.401  41.105  0.00  0.00    +0.082 C 
ATOM     12  O   UNL     1      88.254  53.013  41.141  0.00  0.00    -0.465 OA
ENDBRANCH   9  12
ENDBRANCH   6   9
ENDBRANCH   5   7
ENDBRANCH   4   5
ENDBRANCH   1   4
BRANCH   2  13
ATOM     13  C   UNL     1      84.552  55.709  47.303  0.00  0.00    -0.030 C 
BRANCH  13  14
ATOM     14  C   UNL     1      85.425  56.682  46.490  0.00  0.00    -0.020 C 
BRANCH  14  15
ATOM     15  C   UNL     1      84.677  57.307  45.288  0.00  0.00    +0.084 C 
BRANCH  15  16
ATOM     16  C   UNL     1      85.457  57.148  43.943  0.00  0.00    +0.086 C 
ATOM     17  C   UNL     1      84.607  56.428  42.878  0.00  0.00    -0.034 C 
ATOM     18  C   UNL     1      86.745  56.330  44.179  0.00  0.00    -0.034 C 
BRANCH  16  19
ATOM     19  O   UNL     1      85.808  58.412  43.430  0.00  0.00    -0.387 OA
ATOM     20  H   UNL     1      86.756  58.426  43.224  0.00  0.00    +0.000 HD
ENDBRANCH  16  19
ENDBRANCH  15  16
BRANCH  15  21
ATOM     21  O   UNL     1      84.435  58.670  45.540  0.00  0.00    -0.389 OA
ATOM     22  H   UNL     1      83.806  59.013  44.887  0.00  0.00    +0.000 HD
ENDBRANCH  15  21
ENDBRANCH  14  15
ENDBRANCH  13  14
ENDBRANCH   2  13
TORSDOF 11
ENDMDL
MODEL 3
REMARK VINA RESULT:    -6.703      5.227      7.097
REMARK INTER + INTRA:         -11.392
REMARK INTER:                 -10.145
REMARK INTRA:                  -1.248
REMARK UNBOUND:                -0.770
REMARK  Name = 
REMARK  16 active torsions:
REMARK  status: ('A' for Active; 'I' for Inactive)
REMARK    1  A    between atoms: C_1  and  O_2
REMARK    2  A    between atoms: O_2  and  C_3
REMARK    3  A    between atoms: C_3  and  C_5
REMARK    4  A    between atoms: C_6  and  C_7
REMARK    5  A    between atoms: C_6  and  C_20
REMARK    6  A    between atoms: C_7  and  C_8
REMARK    7  A    between atoms: C_8  and  C_9
REMARK    8  A    between atoms: C_10  and  C_11
REMARK    9  A    between atoms: C_10  and  C_19
REMARK   10  A    between atoms: C_11  and  C_12
REMARK   11  A    between atoms: C_12  and  C_13
REMARK   12  A    between atoms: C_13  and  C_14
REMARK   13  A    between atoms: C_13  and  O_18
REMARK   14  A    between atoms: C_14  and  O_15
REMARK   15  A    between atoms: C_14  and  C_16
REMARK   16  A    between atoms: C_14  and  C_17
REMARK                            x       y       z     vdW  Elec       q    Type
REMARK                         _______ _______ _______ _____ _____    ______ ____
ROOT
ATOM      1  C   UNL     1      86.066  52.707  46.914  0.00  0.00    -0.085 C 
ATOM      2  C   UNL     1      86.245  51.773  47.876  0.00  0.00    -0.076 C 
ATOM      3  C   UNL     1      85.748  51.981  49.288  0.00  0.00    -0.044 C 
ENDROOT
BRANCH   1   4
ATOM      4  C   UNL     1      85.346  54.016  47.119  0.00  0.00    -0.031 C 
BRANCH   4   5
ATOM      5  C   UNL     1      86.285  55.199  46.863  0.00  0.00    -0.028 C 
BRANCH   5   7
ATOM      6  C   UNL     1      86.186  56.433  44.734  0.00  0.00    +0.021 C 
ATOM      7  C   UNL     1      85.636  56.213  45.948  0.00  0.00    -0.066 C 
ATOM      8  C   UNL     1      84.405  56.938  46.430  0.00  0.00    -0.043 C 
BRANCH   6   9
ATOM      9  C   UNL     1      85.700  57.382  43.708  0.00  0.00    +0.332 C 
ATOM     10  O   UNL     1      86.023  58.601  43.726  0.00  0.00    -0.246 OA
BRANCH   9  12
ATOM     11  C   UNL     1      84.773  55.511  42.379  0.00  0.00    +0.082 C 
ATOM     12  O   UNL     1      84.865  56.895  42.699  0.00  0.00    -0.465 OA
ENDBRANCH   9  12
ENDBRANCH   6   9
ENDBRANCH   5   7
ENDBRANCH   4   5
ENDBRANCH   1   4
BRANCH   2  13
ATOM     13  C   UNL     1      86.956  50.481  47.527  0.00  0.00    -0.030 C 
BRANCH  13  14
ATOM     14  C   UNL     1      87.663  50.549  46.161  0.00  0.00    -0.020 C 
BRANCH  14  15
ATOM     15  C   UNL     1      87.060  49.574  45.120  0.00  0.00    +0.084 C 
BRANCH  15  16
ATOM     16  C   UNL     1      86.481  50.311  43.869  0.00  0.00    +0.086 C 
ATOM     17  C   UNL     1      87.200  51.651  43.620  0.00  0.00    -0.034 C 
ATOM     18  C   UNL     1      84.977  50.591  44.076  0.00  0.00    -0.034 C 
BRANCH  16  19
ATOM     19  O   UNL     1      86.642  49.516  42.717  0.00  0.00    -0.387 OA
ATOM     20  H   UNL     1      86.258  49.974  41.952  0.00  0.00    +0.000 HD
ENDBRANCH  16  19
ENDBRANCH  15  16
BRANCH  15  21
ATOM     21  O   UNL     1      86.052  48.801  45.726  0.00  0.00    -0.389 OA
ATOM     22  H   UNL     1      86.419  48.336  46.494  0.00  0.00    +0.000 HD
ENDBRANCH  15  21
ENDBRANCH  14  15
ENDBRANCH  13  14
ENDBRANCH   2  13
TORSDOF 11
ENDMDL
MODEL 4
REMARK VINA RESULT:    -6.674      5.126      7.476
REMARK INTER + INTRA:         -11.346
REMARK INTER:                 -10.390
REMARK INTRA:                  -0.956
REMARK UNBOUND:                -0.770
REMARK  Name = 
REMARK  16 active torsions:
REMARK  status: ('A' for Active; 'I' for Inactive)
REMARK    1  A    between atoms: C_1  and  O_2
REMARK    2  A    between atoms: O_2  and  C_3
REMARK    3  A    between atoms: C_3  and  C_5
REMARK    4  A    between atoms: C_6  and  C_7
REMARK    5  A    between atoms: C_6  and  C_20
REMARK    6  A    between atoms: C_7  and  C_8
REMARK    7  A    between atoms: C_8  and  C_9
REMARK    8  A    between atoms: C_10  and  C_11
REMARK    9  A    between atoms: C_10  and  C_19
REMARK   10  A    between atoms: C_11  and  C_12
REMARK   11  A    between atoms: C_12  and  C_13
REMARK   12  A    between atoms: C_13  and  C_14
REMARK   13  A    between atoms: C_13  and  O_18
REMARK   14  A    between atoms: C_14  and  O_15
REMARK   15  A    between atoms: C_14  and  C_16
REMARK   16  A    between atoms: C_14  and  C_17
REMARK                            x       y       z     vdW  Elec       q    Type
REMARK                         _______ _______ _______ _____ _____    ______ ____
ROOT
ATOM      1  C   UNL     1      86.678  52.249  46.283  0.00  0.00    -0.085 C 
ATOM      2  C   UNL     1      86.400  51.603  47.439  0.00  0.00    -0.076 C 
ATOM      3  C   UNL     1      86.870  50.189  47.694  0.00  0.00    -0.044 C 
ENDROOT
BRANCH   1   4
ATOM      4  C   UNL     1      87.493  51.666  45.156  0.00  0.00    -0.031 C 
BRANCH   4   5
ATOM      5  C   UNL     1      87.066  52.264  43.811  0.00  0.00    -0.028 C 
BRANCH   5   7
ATOM      6  C   UNL     1      88.158  52.680  41.643  0.00  0.00    +0.021 C 
ATOM      7  C   UNL     1      88.031  51.869  42.716  0.00  0.00    -0.066 C 
ATOM      8  C   UNL     1      88.807  50.585  42.865  0.00  0.00    -0.043 C 
BRANCH   6   9
ATOM      9  C   UNL     1      89.042  52.463  40.477  0.00  0.00    +0.332 C 
ATOM     10  O   UNL     1      88.656  51.818  39.464  0.00  0.00    -0.246 OA
BRANCH   9  12
ATOM     11  C   UNL     1      90.891  53.737  39.437  0.00  0.00    +0.082 C 
ATOM     12  O   UNL     1      90.333  52.996  40.517  0.00  0.00    -0.465 OA
ENDBRANCH   9  12
ENDBRANCH   6   9
ENDBRANCH   5   7
ENDBRANCH   4   5
ENDBRANCH   1   4
BRANCH   2  13
ATOM     13  C   UNL     1      85.599  52.318  48.509  0.00  0.00    -0.030 C 
BRANCH  13  14
ATOM     14  C   UNL     1      85.774  53.846  48.452  0.00  0.00    -0.020 C 
BRANCH  14  15
ATOM     15  C   UNL     1      84.500  54.584  47.974  0.00  0.00    +0.084 C 
BRANCH  15  16
ATOM     16  C   UNL     1      84.803  55.679  46.901  0.00  0.00    +0.086 C 
ATOM     17  C   UNL     1      84.601  55.141  45.471  0.00  0.00    -0.034 C 
ATOM     18  C   UNL     1      86.263  56.161  47.043  0.00  0.00    -0.034 C 
BRANCH  16  19
ATOM     19  O   UNL     1      83.941  56.781  47.072  0.00  0.00    -0.387 OA
ATOM     20  H   UNL     1      84.351  57.574  46.690  0.00  0.00    +0.000 HD
ENDBRANCH  16  19
ENDBRANCH  15  16
BRANCH  15  21
ATOM     21  O   UNL     1      83.851  55.166  49.079  0.00  0.00    -0.389 OA
ATOM     22  H   UNL     1      83.395  54.477  49.586  0.00  0.00    +0.000 HD
ENDBRANCH  15  21
ENDBRANCH  14  15
ENDBRANCH  13  14
ENDBRANCH   2  13
TORSDOF 11
ENDMDL
MODEL 5
REMARK VINA RESULT:    -6.643      5.265      9.033
REMARK INTER + INTRA:         -11.297
REMARK INTER:                 -10.163
REMARK INTRA:                  -1.134
REMARK UNBOUND:                -0.770
REMARK  Name = 
REMARK  16 active torsions:
REMARK  status: ('A' for Active; 'I' for Inactive)
REMARK    1  A    between atoms: C_1  and  O_2
REMARK    2  A    between atoms: O_2  and  C_3
REMARK    3  A    between atoms: C_3  and  C_5
REMARK    4  A    between atoms: C_6  and  C_7
REMARK    5  A    between atoms: C_6  and  C_20
REMARK    6  A    between atoms: C_7  and  C_8
REMARK    7  A    between atoms: C_8  and  C_9
REMARK    8  A    between atoms: C_10  and  C_11
REMARK    9  A    between atoms: C_10  and  C_19
REMARK   10  A    between atoms: C_11  and  C_12
REMARK   11  A    between atoms: C_12  and  C_13
REMARK   12  A    between atoms: C_13  and  C_14
REMARK   13  A    between atoms: C_13  and  O_18
REMARK   14  A    between atoms: C_14  and  O_15
REMARK   15  A    between atoms: C_14  and  C_16
REMARK   16  A    between atoms: C_14  and  C_17
REMARK                            x       y       z     vdW  Elec       q    Type
REMARK                         _______ _______ _______ _____ _____    ______ ____
ROOT
ATOM      1  C   UNL     1      85.423  53.525  46.313  0.00  0.00    -0.085 C 
ATOM      2  C   UNL     1      85.255  54.218  47.463  0.00  0.00    -0.076 C 
ATOM      3  C   UNL     1      85.562  53.607  48.811  0.00  0.00    -0.044 C 
ENDROOT
BRANCH   1   4
ATOM      4  C   UNL     1      85.948  52.114  46.237  0.00  0.00    -0.031 C 
BRANCH   4   5
ATOM      5  C   UNL     1      87.440  52.107  45.886  0.00  0.00    -0.028 C 
BRANCH   5   7
ATOM      6  C   UNL     1      88.148  50.149  44.569  0.00  0.00    +0.021 C 
ATOM      7  C   UNL     1      87.678  51.416  44.562  0.00  0.00    -0.066 C 
ATOM      8  C   UNL     1      87.385  52.170  43.290  0.00  0.00    -0.043 C 
BRANCH   6   9
ATOM      9  C   UNL     1      88.445  49.316  43.385  0.00  0.00    +0.332 C 
ATOM     10  O   UNL     1      87.561  48.600  42.839  0.00  0.00    -0.246 OA
BRANCH   9  12
ATOM     11  C   UNL     1      90.105  50.108  41.729  0.00  0.00    +0.082 C 
ATOM     12  O   UNL     1      89.744  49.337  42.869  0.00  0.00    -0.465 OA
ENDBRANCH   9  12
ENDBRANCH   6   9
ENDBRANCH   5   7
ENDBRANCH   4   5
ENDBRANCH   1   4
BRANCH   2  13
ATOM     13  C   UNL     1      84.753  55.646  47.397  0.00  0.00    -0.030 C 
BRANCH  13  14
ATOM     14  C   UNL     1      85.569  56.513  46.422  0.00  0.00    -0.020 C 
BRANCH  14  15
ATOM     15  C   UNL     1      84.713  57.108  45.278  0.00  0.00    +0.084 C 
BRANCH  15  16
ATOM     16  C   UNL     1      85.414  57.010  43.885  0.00  0.00    +0.086 C 
ATOM     17  C   UNL     1      84.480  56.396  42.824  0.00  0.00    -0.034 C 
ATOM     18  C   UNL     1      86.677  56.129  43.996  0.00  0.00    -0.034 C 
BRANCH  16  19
ATOM     19  O   UNL     1      85.791  58.291  43.437  0.00  0.00    -0.387 OA
ATOM     20  H   UNL     1      85.211  58.958  43.838  0.00  0.00    +0.000 HD
ENDBRANCH  16  19
ENDBRANCH  15  16
BRANCH  15  21
ATOM     21  O   UNL     1      84.411  58.453  45.566  0.00  0.00    -0.389 OA
ATOM     22  H   UNL     1      84.978  59.032  45.034  0.00  0.00    +0.000 HD
ENDBRANCH  15  21
ENDBRANCH  14  15
ENDBRANCH  13  14
ENDBRANCH   2  13
TORSDOF 11
ENDMDL
MODEL 6
REMARK VINA RESULT:    -6.555      4.978      7.201
REMARK INTER + INTRA:         -11.158
REMARK INTER:                  -9.963
REMARK INTRA:                  -1.195
REMARK UNBOUND:                -0.770
REMARK  Name = 
REMARK  16 active torsions:
REMARK  status: ('A' for Active; 'I' for Inactive)
REMARK    1  A    between atoms: C_1  and  O_2
REMARK    2  A    between atoms: O_2  and  C_3
REMARK    3  A    between atoms: C_3  and  C_5
REMARK    4  A    between atoms: C_6  and  C_7
REMARK    5  A    between atoms: C_6  and  C_20
REMARK    6  A    between atoms: C_7  and  C_8
REMARK    7  A    between atoms: C_8  and  C_9
REMARK    8  A    between atoms: C_10  and  C_11
REMARK    9  A    between atoms: C_10  and  C_19
REMARK   10  A    between atoms: C_11  and  C_12
REMARK   11  A    between atoms: C_12  and  C_13
REMARK   12  A    between atoms: C_13  and  C_14
REMARK   13  A    between atoms: C_13  and  O_18
REMARK   14  A    between atoms: C_14  and  O_15
REMARK   15  A    between atoms: C_14  and  C_16
REMARK   16  A    between atoms: C_14  and  C_17
REMARK                            x       y       z     vdW  Elec       q    Type
REMARK                         _______ _______ _______ _____ _____    ______ ____
ROOT
ATOM      1  C   UNL     1      86.022  54.384  47.268  0.00  0.00    -0.085 C 
ATOM      2  C   UNL     1      85.471  53.439  48.064  0.00  0.00    -0.076 C 
ATOM      3  C   UNL     1      84.314  53.751  48.985  0.00  0.00    -0.044 C 
ENDROOT
BRANCH   1   4
ATOM      4  C   UNL     1      85.544  55.812  47.183  0.00  0.00    -0.031 C 
BRANCH   4   5
ATOM      5  C   UNL     1      84.482  55.965  46.087  0.00  0.00    -0.028 C 
BRANCH   5   7
ATOM      6  C   UNL     1      84.773  55.175  43.773  0.00  0.00    +0.021 C 
ATOM      7  C   UNL     1      85.127  56.067  44.724  0.00  0.00    -0.066 C 
ATOM      8  C   UNL     1      86.141  57.157  44.483  0.00  0.00    -0.043 C 
BRANCH   6   9
ATOM      9  C   UNL     1      85.293  55.111  42.390  0.00  0.00    +0.332 C 
ATOM     10  O   UNL     1      84.799  55.809  41.463  0.00  0.00    -0.246 OA
BRANCH   9  12
ATOM     11  C   UNL     1      86.875  53.341  43.090  0.00  0.00    +0.082 C 
ATOM     12  O   UNL     1      86.361  54.251  42.124  0.00  0.00    -0.465 OA
ENDBRANCH   9  12
ENDBRANCH   6   9
ENDBRANCH   5   7
ENDBRANCH   4   5
ENDBRANCH   1   4
BRANCH   2  13
ATOM     13  C   UNL     1      86.026  52.029  48.026  0.00  0.00    -0.030 C 
BRANCH  13  14
ATOM     14  C   UNL     1      86.644  51.676  46.662  0.00  0.00    -0.020 C 
BRANCH  14  15
ATOM     15  C   UNL     1      86.854  50.154  46.469  0.00  0.00    +0.084 C 
BRANCH  15  16
ATOM     16  C   UNL     1      86.253  49.628  45.125  0.00  0.00    +0.086 C 
ATOM     17  C   UNL     1      87.304  49.633  43.997  0.00  0.00    -0.034 C 
ATOM     18  C   UNL     1      85.069  50.520  44.697  0.00  0.00    -0.034 C 
BRANCH  16  19
ATOM     19  O   UNL     1      85.795  48.305  45.280  0.00  0.00    -0.387 OA
ATOM     20  H   UNL     1      84.939  48.311  45.737  0.00  0.00    +0.000 HD
ENDBRANCH  16  19
ENDBRANCH  15  16
BRANCH  15  21
ATOM     21  O   UNL     1      86.282  49.459  47.550  0.00  0.00    -0.389 OA
ATOM     22  H   UNL     1      85.857  50.089  48.152  0.00  0.00    +0.000 HD
ENDBRANCH  15  21
ENDBRANCH  14  15
ENDBRANCH  13  14
ENDBRANCH   2  13
TORSDOF 11
ENDMDL
MODEL 7
REMARK VINA RESULT:    -6.548      4.646      7.818
REMARK INTER + INTRA:         -11.146
REMARK INTER:                  -9.933
REMARK INTRA:                  -1.213
REMARK UNBOUND:                -0.770
REMARK  Name = 
REMARK  16 active torsions:
REMARK  status: ('A' for Active; 'I' for Inactive)
REMARK    1  A    between atoms: C_1  and  O_2
REMARK    2  A    between atoms: O_2  and  C_3
REMARK    3  A    between atoms: C_3  and  C_5
REMARK    4  A    between atoms: C_6  and  C_7
REMARK    5  A    between atoms: C_6  and  C_20
REMARK    6  A    between atoms: C_7  and  C_8
REMARK    7  A    between atoms: C_8  and  C_9
REMARK    8  A    between atoms: C_10  and  C_11
REMARK    9  A    between atoms: C_10  and  C_19
REMARK   10  A    between atoms: C_11  and  C_12
REMARK   11  A    between atoms: C_12  and  C_13
REMARK   12  A    between atoms: C_13  and  C_14
REMARK   13  A    between atoms: C_13  and  O_18
REMARK   14  A    between atoms: C_14  and  O_15
REMARK   15  A    between atoms: C_14  and  C_16
REMARK   16  A    between atoms: C_14  and  C_17
REMARK                            x       y       z     vdW  Elec       q    Type
REMARK                         _______ _______ _______ _____ _____    ______ ____
ROOT
ATOM      1  C   UNL     1      86.640  53.241  46.274  0.00  0.00    -0.085 C 
ATOM      2  C   UNL     1      86.240  52.800  45.059  0.00  0.00    -0.076 C 
ATOM      3  C   UNL     1      84.840  53.042  44.547  0.00  0.00    -0.044 C 
ENDROOT
BRANCH   1   4
ATOM      4  C   UNL     1      85.773  54.030  47.222  0.00  0.00    -0.031 C 
BRANCH   4   5
ATOM      5  C   UNL     1      86.193  55.504  47.244  0.00  0.00    -0.028 C 
BRANCH   5   7
ATOM      6  C   UNL     1      86.000  56.572  45.033  0.00  0.00    +0.021 C 
ATOM      7  C   UNL     1      85.415  56.300  46.220  0.00  0.00    -0.066 C 
ATOM      8  C   UNL     1      84.023  56.760  46.568  0.00  0.00    -0.043 C 
BRANCH   6   9
ATOM      9  C   UNL     1      85.405  57.334  43.915  0.00  0.00    +0.332 C 
ATOM     10  O   UNL     1      85.861  58.455  43.559  0.00  0.00    -0.246 OA
BRANCH   9  12
ATOM     11  C   UNL     1      84.452  55.887  42.147  0.00  0.00    +0.082 C 
ATOM     12  O   UNL     1      84.310  56.781  43.245  0.00  0.00    -0.465 OA
ENDBRANCH   9  12
ENDBRANCH   6   9
ENDBRANCH   5   7
ENDBRANCH   4   5
ENDBRANCH   1   4
BRANCH   2  13
ATOM     13  C   UNL     1      87.226  52.047  44.187  0.00  0.00    -0.030 C 
BRANCH  13  14
ATOM     14  C   UNL     1      86.616  51.625  42.839  0.00  0.00    -0.020 C 
BRANCH  14  15
ATOM     15  C   UNL     1      87.227  52.382  41.635  0.00  0.00    +0.084 C 
BRANCH  15  16
ATOM     16  C   UNL     1      88.353  51.567  40.919  0.00  0.00    +0.086 C 
ATOM     17  C   UNL     1      88.266  50.066  41.258  0.00  0.00    -0.034 C 
ATOM     18  C   UNL     1      89.737  52.091  41.356  0.00  0.00    -0.034 C 
BRANCH  16  19
ATOM     19  O   UNL     1      88.236  51.699  39.521  0.00  0.00    -0.387 OA
ATOM     20  H   UNL     1      88.234  52.640  39.284  0.00  0.00    +0.000 HD
ENDBRANCH  16  19
ENDBRANCH  15  16
BRANCH  15  21
ATOM     21  O   UNL     1      87.738  53.620  42.067  0.00  0.00    -0.389 OA
ATOM     22  H   UNL     1      87.224  53.934  42.827  0.00  0.00    +0.000 HD
ENDBRANCH  15  21
ENDBRANCH  14  15
ENDBRANCH  13  14
ENDBRANCH   2  13
TORSDOF 11
ENDMDL
MODEL 8
REMARK VINA RESULT:    -6.491      6.340      9.946
REMARK INTER + INTRA:         -11.055
REMARK INTER:                  -9.975
REMARK INTRA:                  -1.081
REMARK UNBOUND:                -0.770
REMARK  Name = 
REMARK  16 active torsions:
REMARK  status: ('A' for Active; 'I' for Inactive)
REMARK    1  A    between atoms: C_1  and  O_2
REMARK    2  A    between atoms: O_2  and  C_3
REMARK    3  A    between atoms: C_3  and  C_5
REMARK    4  A    between atoms: C_6  and  C_7
REMARK    5  A    between atoms: C_6  and  C_20
REMARK    6  A    between atoms: C_7  and  C_8
REMARK    7  A    between atoms: C_8  and  C_9
REMARK    8  A    between atoms: C_10  and  C_11
REMARK    9  A    between atoms: C_10  and  C_19
REMARK   10  A    between atoms: C_11  and  C_12
REMARK   11  A    between atoms: C_12  and  C_13
REMARK   12  A    between atoms: C_13  and  C_14
REMARK   13  A    between atoms: C_13  and  O_18
REMARK   14  A    between atoms: C_14  and  O_15
REMARK   15  A    between atoms: C_14  and  C_16
REMARK   16  A    between atoms: C_14  and  C_17
REMARK                            x       y       z     vdW  Elec       q    Type
REMARK                         _______ _______ _______ _____ _____    ______ ____
ROOT
ATOM      1  C   UNL     1      84.454  52.758  45.857  0.00  0.00    -0.085 C 
ATOM      2  C   UNL     1      85.520  53.488  46.260  0.00  0.00    -0.076 C 
ATOM      3  C   UNL     1      86.890  53.296  45.652  0.00  0.00    -0.044 C 
ENDROOT
BRANCH   1   4
ATOM      4  C   UNL     1      84.496  51.719  44.765  0.00  0.00    -0.031 C 
BRANCH   4   5
ATOM      5  C   UNL     1      83.745  52.206  43.521  0.00  0.00    -0.028 C 
BRANCH   5   7
ATOM      6  C   UNL     1      82.769  49.948  43.644  0.00  0.00    +0.021 C 
ATOM      7  C   UNL     1      82.838  51.124  42.981  0.00  0.00    -0.066 C 
ATOM      8  C   UNL     1      82.051  51.400  41.726  0.00  0.00    -0.043 C 
BRANCH   6   9
ATOM      9  C   UNL     1      81.947  48.777  43.271  0.00  0.00    +0.332 C 
ATOM     10  O   UNL     1      82.463  47.731  42.790  0.00  0.00    -0.246 OA
BRANCH   9  12
ATOM     11  C   UNL     1      79.962  48.688  44.746  0.00  0.00    +0.082 C 
ATOM     12  O   UNL     1      80.565  48.848  43.467  0.00  0.00    -0.465 OA
ENDBRANCH   9  12
ENDBRANCH   6   9
ENDBRANCH   5   7
ENDBRANCH   4   5
ENDBRANCH   1   4
BRANCH   2  13
ATOM     13  C   UNL     1      85.332  54.529  47.345  0.00  0.00    -0.030 C 
BRANCH  13  14
ATOM     14  C   UNL     1      85.513  55.964  46.822  0.00  0.00    -0.020 C 
BRANCH  14  15
ATOM     15  C   UNL     1      84.346  56.429  45.916  0.00  0.00    +0.084 C 
BRANCH  15  16
ATOM     16  C   UNL     1      84.839  57.076  44.581  0.00  0.00    +0.086 C 
ATOM     17  C   UNL     1      84.178  56.416  43.355  0.00  0.00    -0.034 C 
ATOM     18  C   UNL     1      86.370  56.919  44.458  0.00  0.00    -0.034 C 
BRANCH  16  19
ATOM     19  O   UNL     1      84.519  58.448  44.557  0.00  0.00    -0.387 OA
ATOM     20  H   UNL     1      85.045  58.890  43.872  0.00  0.00    +0.000 HD
ENDBRANCH  16  19
ENDBRANCH  15  16
BRANCH  15  21
ATOM     21  O   UNL     1      83.539  57.343  46.619  0.00  0.00    -0.389 OA
ATOM     22  H   UNL     1      83.412  58.141  46.083  0.00  0.00    +0.000 HD
ENDBRANCH  15  21
ENDBRANCH  14  15
ENDBRANCH  13  14
ENDBRANCH   2  13
TORSDOF 11
ENDMDL
MODEL 9
REMARK VINA RESULT:    -6.449      5.223      8.422
REMARK INTER + INTRA:         -10.989
REMARK INTER:                 -10.219
REMARK INTRA:                  -0.770
REMARK UNBOUND:                -0.770
REMARK  Name = 
REMARK  16 active torsions:
REMARK  status: ('A' for Active; 'I' for Inactive)
REMARK    1  A    between atoms: C_1  and  O_2
REMARK    2  A    between atoms: O_2  and  C_3
REMARK    3  A    between atoms: C_3  and  C_5
REMARK    4  A    between atoms: C_6  and  C_7
REMARK    5  A    between atoms: C_6  and  C_20
REMARK    6  A    between atoms: C_7  and  C_8
REMARK    7  A    between atoms: C_8  and  C_9
REMARK    8  A    between atoms: C_10  and  C_11
REMARK    9  A    between atoms: C_10  and  C_19
REMARK   10  A    between atoms: C_11  and  C_12
REMARK   11  A    between atoms: C_12  and  C_13
REMARK   12  A    between atoms: C_13  and  C_14
REMARK   13  A    between atoms: C_13  and  O_18
REMARK   14  A    between atoms: C_14  and  O_15
REMARK   15  A    between atoms: C_14  and  C_16
REMARK   16  A    between atoms: C_14  and  C_17
REMARK                            x       y       z     vdW  Elec       q    Type
REMARK                         _______ _______ _______ _____ _____    ______ ____
ROOT
ATOM      1  C   UNL     1      86.372  52.718  46.313  0.00  0.00    -0.085 C 
ATOM      2  C   UNL     1      85.969  53.086  47.551  0.00  0.00    -0.076 C 
ATOM      3  C   UNL     1      85.698  52.068  48.634  0.00  0.00    -0.044 C 
ENDROOT
BRANCH   1   4
ATOM      4  C   UNL     1      86.621  51.293  45.885  0.00  0.00    -0.031 C 
BRANCH   4   5
ATOM      5  C   UNL     1      87.811  51.215  44.923  0.00  0.00    -0.028 C 
BRANCH   5   7
ATOM      6  C   UNL     1      88.303  50.405  42.650  0.00  0.00    +0.021 C 
ATOM      7  C   UNL     1      87.364  50.770  43.549  0.00  0.00    -0.066 C 
ATOM      8  C   UNL     1      85.888  50.754  43.239  0.00  0.00    -0.043 C 
BRANCH   6   9
ATOM      9  C   UNL     1      88.063  49.947  41.264  0.00  0.00    +0.332 C 
ATOM     10  O   UNL     1      87.801  48.742  41.000  0.00  0.00    -0.246 OA
BRANCH   9  12
ATOM     11  C   UNL     1      89.301  51.653  39.967  0.00  0.00    +0.082 C 
ATOM     12  O   UNL     1      88.130  50.890  40.235  0.00  0.00    -0.465 OA
ENDBRANCH   9  12
ENDBRANCH   6   9
ENDBRANCH   5   7
ENDBRANCH   4   5
ENDBRANCH   1   4
BRANCH   2  13
ATOM     13  C   UNL     1      85.791  54.559  47.861  0.00  0.00    -0.030 C 
BRANCH  13  14
ATOM     14  C   UNL     1      86.012  55.451  46.627  0.00  0.00    -0.020 C 
BRANCH  14  15
ATOM     15  C   UNL     1      84.696  56.042  46.064  0.00  0.00    +0.084 C 
BRANCH  15  16
ATOM     16  C   UNL     1      84.943  57.124  44.964  0.00  0.00    +0.086 C 
ATOM     17  C   UNL     1      86.335  56.968  44.320  0.00  0.00    -0.034 C 
ATOM     18  C   UNL     1      84.845  58.534  45.585  0.00  0.00    -0.034 C 
BRANCH  16  19
ATOM     19  O   UNL     1      83.981  57.009  43.941  0.00  0.00    -0.387 OA
ATOM     20  H   UNL     1      83.899  57.858  43.477  0.00  0.00    +0.000 HD
ENDBRANCH  16  19
ENDBRANCH  15  16
BRANCH  15  21
ATOM     21  O   UNL     1      83.941  56.595  47.115  0.00  0.00    -0.389 OA
ATOM     22  H   UNL     1      84.507  56.715  47.892  0.00  0.00    +0.000 HD
ENDBRANCH  15  21
ENDBRANCH  14  15
ENDBRANCH  13  14
ENDBRANCH   2  13
TORSDOF 11
ENDMDL
