MODEL 1
REMARK VINA RESULT:    -8.684      0.000      0.000
REMARK INTER + INTRA:         -11.939
REMARK INTER:                 -11.052
REMARK INTRA:                  -0.887
REMARK UNBOUND:                -0.970
REMARK  Name = 
REMARK  11 active torsions:
REMARK  status: ('A' for Active; 'I' for Inactive)
REMARK    1  A    between atoms: C_1  and  O_2
REMARK    2  A    between atoms: O_2  and  C_3
REMARK    3  A    between atoms: C_5  and  C_6
REMARK    4  A    between atoms: C_8  and  C_30
REMARK    5  A    between atoms: C_12  and  O_29
REMARK    6  A    between atoms: C_13  and  C_14
REMARK    7  A    between atoms: C_15  and  C_16
REMARK    8  A    between atoms: C_18  and  O_27
REMARK    9  A    between atoms: C_24  and  O_25
REMARK   10  A    between atoms: O_25  and  C_26
REMARK   11  A    between atoms: O_27  and  C_28
REMARK                            x       y       z     vdW  Elec       q    Type
REMARK                         _______ _______ _______ _____ _____    ______ ____
ROOT
ATOM      1  C   UNL     1      84.952  53.094  45.300  0.00  0.00    +0.136 A 
ATOM      2  C   UNL     1      85.055  54.498  45.234  0.00  0.00    +0.015 A 
ATOM      3  C   UNL     1      84.924  55.363  46.464  0.00  0.00    +0.034 C 
ATOM      4  C   UNL     1      83.477  55.832  46.672  0.00  0.00    -0.045 C 
ATOM      5  N   UNL     1      85.873  56.487  46.403  0.00  0.00    -0.307 N 
ATOM      6  C   UNL     1      85.879  57.307  45.164  0.00  0.00    +0.009 C 
ATOM      7  C   UNL     1      85.238  56.625  43.926  0.00  0.00    -0.012 C 
ATOM      8  C   UNL     1      85.266  55.127  44.001  0.00  0.00    -0.034 A 
ATOM      9  C   UNL     1      85.357  54.361  42.832  0.00  0.00    -0.016 A 
ATOM     10  C   UNL     1      85.257  52.969  42.882  0.00  0.00    +0.128 A 
ATOM     11  C   UNL     1      85.065  52.323  44.122  0.00  0.00    +0.066 A 
ATOM     12  C   UNL     1      85.255  58.690  45.404  0.00  0.00    -0.049 C 
ATOM     13  H   UNL     1      86.811  56.104  46.521  0.00  0.00    +0.000 HD
ATOM     14  H   UNL     1      85.571  57.126  47.139  0.00  0.00    +0.000 HD
ENDROOT
BRANCH  11  15
ATOM     15  C   UNL     1      84.934  50.844  44.187  0.00  0.00    +0.000 A 
ATOM     16  C   UNL     1      86.063  50.065  44.518  0.00  0.00    -0.038 A 
ATOM     17  C   UNL     1      87.403  50.702  44.795  0.00  0.00    -0.039 C 
ATOM     18  C   UNL     1      85.952  48.673  44.572  0.00  0.00    -0.016 A 
ATOM     19  C   UNL     1      84.731  48.023  44.329  0.00  0.00    +0.132 A 
ATOM     20  C   UNL     1      83.582  48.789  44.005  0.00  0.00    +0.066 A 
ATOM     21  C   UNL     1      83.692  50.209  43.925  0.00  0.00    -0.003 A 
ATOM     22  C   UNL     1      82.555  50.968  43.575  0.00  0.00    -0.053 A 
ATOM     23  C   UNL     1      81.335  50.351  43.326  0.00  0.00    -0.058 A 
ATOM     24  C   UNL     1      81.216  48.970  43.415  0.00  0.00    -0.019 A 
ATOM     25  C   UNL     1      82.324  48.172  43.750  0.00  0.00    +0.131 A 
BRANCH  25  26
ATOM     26  O   UNL     1      82.197  46.774  43.833  0.00  0.00    -0.494 OA
ATOM     27  C   UNL     1      81.137  46.087  44.490  0.00  0.00    +0.079 C 
ENDBRANCH  25  26
BRANCH  19  28
ATOM     28  O   UNL     1      84.642  46.621  44.402  0.00  0.00    -0.494 OA
ATOM     29  C   UNL     1      85.745  45.722  44.336  0.00  0.00    +0.079 C 
ENDBRANCH  19  28
ENDBRANCH  11  15
BRANCH   1  31
ATOM     30  C   UNL     1      85.703  52.329  47.524  0.00  0.00    +0.079 C 
ATOM     31  O   UNL     1      84.696  52.478  46.531  0.00  0.00    -0.494 OA
ENDBRANCH   1  31
BRANCH  10  32
ATOM     32  O   UNL     1      85.332  52.257  41.683  0.00  0.00    -0.506 OA
ATOM     33  H   UNL     1      84.970  52.620  40.899  0.00  0.00    +0.000 HD
ENDBRANCH  10  32
TORSDOF 5
ENDMDL
MODEL 2
REMARK VINA RESULT:    -8.639      2.147      3.787
REMARK INTER + INTRA:         -11.881
REMARK INTER:                 -10.907
REMARK INTRA:                  -0.973
REMARK UNBOUND:                -0.970
REMARK  Name = 
REMARK  11 active torsions:
REMARK  status: ('A' for Active; 'I' for Inactive)
REMARK    1  A    between atoms: C_1  and  O_2
REMARK    2  A    between atoms: O_2  and  C_3
REMARK    3  A    between atoms: C_5  and  C_6
REMARK    4  A    between atoms: C_8  and  C_30
REMARK    5  A    between atoms: C_12  and  O_29
REMARK    6  A    between atoms: C_13  and  C_14
REMARK    7  A    between atoms: C_15  and  C_16
REMARK    8  A    between atoms: C_18  and  O_27
REMARK    9  A    between atoms: C_24  and  O_25
REMARK   10  A    between atoms: O_25  and  C_26
REMARK   11  A    between atoms: O_27  and  C_28
REMARK                            x       y       z     vdW  Elec       q    Type
REMARK                         _______ _______ _______ _____ _____    ______ ____
ROOT
ATOM      1  C   UNL     1      85.915  53.282  44.669  0.00  0.00    +0.136 A 
ATOM      2  C   UNL     1      85.530  54.633  44.791  0.00  0.00    +0.015 A 
ATOM      3  C   UNL     1      85.983  55.486  45.951  0.00  0.00    +0.034 C 
ATOM      4  C   UNL     1      84.967  55.460  47.102  0.00  0.00    -0.045 C 
ATOM      5  N   UNL     1      86.278  56.855  45.495  0.00  0.00    -0.307 N 
ATOM      6  C   UNL     1      85.235  57.544  44.692  0.00  0.00    +0.009 C 
ATOM      7  C   UNL     1      84.181  56.606  44.045  0.00  0.00    -0.012 C 
ATOM      8  C   UNL     1      84.691  55.211  43.831  0.00  0.00    -0.034 A 
ATOM      9  C   UNL     1      84.221  54.442  42.760  0.00  0.00    -0.016 A 
ATOM     10  C   UNL     1      84.593  53.103  42.625  0.00  0.00    +0.128 A 
ATOM     11  C   UNL     1      85.455  52.515  43.577  0.00  0.00    +0.066 A 
ATOM     12  C   UNL     1      84.547  58.654  45.502  0.00  0.00    -0.049 C 
ATOM     13  H   UNL     1      87.124  56.815  44.928  0.00  0.00    +0.000 HD
ATOM     14  H   UNL     1      86.356  57.405  46.351  0.00  0.00    +0.000 HD
ENDROOT
BRANCH  11  15
ATOM     15  C   UNL     1      85.841  51.084  43.459  0.00  0.00    +0.000 A 
ATOM     16  C   UNL     1      84.965  50.092  43.948  0.00  0.00    -0.038 A 
ATOM     17  C   UNL     1      83.652  50.454  44.600  0.00  0.00    -0.039 C 
ATOM     18  C   UNL     1      85.322  48.744  43.850  0.00  0.00    -0.016 A 
ATOM     19  C   UNL     1      86.527  48.345  43.250  0.00  0.00    +0.132 A 
ATOM     20  C   UNL     1      87.416  49.328  42.742  0.00  0.00    +0.066 A 
ATOM     21  C   UNL     1      87.069  50.706  42.858  0.00  0.00    -0.003 A 
ATOM     22  C   UNL     1      87.967  51.684  42.379  0.00  0.00    -0.053 A 
ATOM     23  C   UNL     1      89.168  51.318  41.783  0.00  0.00    -0.058 A 
ATOM     24  C   UNL     1      89.507  49.977  41.653  0.00  0.00    -0.019 A 
ATOM     25  C   UNL     1      88.648  48.968  42.126  0.00  0.00    +0.131 A 
BRANCH  25  26
ATOM     26  O   UNL     1      89.001  47.613  41.995  0.00  0.00    -0.494 OA
ATOM     27  C   UNL     1      90.250  47.051  42.384  0.00  0.00    +0.079 C 
ENDBRANCH  25  26
BRANCH  19  28
ATOM     28  O   UNL     1      86.858  46.982  43.151  0.00  0.00    -0.494 OA
ATOM     29  C   UNL     1      85.922  45.913  43.052  0.00  0.00    +0.079 C 
ENDBRANCH  19  28
ENDBRANCH  11  15
BRANCH   1  31
ATOM     30  C   UNL     1      86.162  52.090  46.817  0.00  0.00    +0.079 C 
ATOM     31  O   UNL     1      86.717  52.701  45.659  0.00  0.00    -0.494 OA
ENDBRANCH   1  31
BRANCH  10  32
ATOM     32  O   UNL     1      84.076  52.377  41.551  0.00  0.00    -0.506 OA
ATOM     33  H   UNL     1      83.738  52.826  40.801  0.00  0.00    +0.000 HD
ENDBRANCH  10  32
TORSDOF 5
ENDMDL
MODEL 3
REMARK VINA RESULT:    -8.439      2.320      3.230
REMARK INTER + INTRA:         -11.629
REMARK INTER:                 -10.664
REMARK INTRA:                  -0.965
REMARK UNBOUND:                -0.970
REMARK  Name = 
REMARK  11 active torsions:
REMARK  status: ('A' for Active; 'I' for Inactive)
REMARK    1  A    between atoms: C_1  and  O_2
REMARK    2  A    between atoms: O_2  and  C_3
REMARK    3  A    between atoms: C_5  and  C_6
REMARK    4  A    between atoms: C_8  and  C_30
REMARK    5  A    between atoms: C_12  and  O_29
REMARK    6  A    between atoms: C_13  and  C_14
REMARK    7  A    between atoms: C_15  and  C_16
REMARK    8  A    between atoms: C_18  and  O_27
REMARK    9  A    between atoms: C_24  and  O_25
REMARK   10  A    between atoms: O_25  and  C_26
REMARK   11  A    between atoms: O_27  and  C_28
REMARK                            x       y       z     vdW  Elec       q    Type
REMARK                         _______ _______ _______ _____ _____    ______ ____
ROOT
ATOM      1  C   UNL     1      86.809  52.516  44.780  0.00  0.00    +0.136 A 
ATOM      2  C   UNL     1      86.213  53.716  45.217  0.00  0.00    +0.015 A 
ATOM      3  C   UNL     1      86.449  54.261  46.604  0.00  0.00    +0.034 C 
ATOM      4  C   UNL     1      85.374  53.782  47.590  0.00  0.00    -0.045 C 
ATOM      5  N   UNL     1      86.560  55.729  46.566  0.00  0.00    -0.307 N 
ATOM      6  C   UNL     1      85.480  56.475  45.869  0.00  0.00    +0.009 C 
ATOM      7  C   UNL     1      84.629  55.628  44.885  0.00  0.00    -0.012 C 
ATOM      8  C   UNL     1      85.362  54.426  44.362  0.00  0.00    -0.034 A 
ATOM      9  C   UNL     1      85.089  53.934  43.079  0.00  0.00    -0.016 A 
ATOM     10  C   UNL     1      85.672  52.747  42.633  0.00  0.00    +0.128 A 
ATOM     11  C   UNL     1      86.547  52.033  43.479  0.00  0.00    +0.066 A 
ATOM     12  C   UNL     1      84.575  57.214  46.867  0.00  0.00    -0.049 C 
ATOM     13  H   UNL     1      87.439  55.960  46.103  0.00  0.00    +0.000 HD
ATOM     14  H   UNL     1      86.494  56.023  47.541  0.00  0.00    +0.000 HD
ENDROOT
BRANCH  11  15
ATOM     15  C   UNL     1      87.156  50.755  43.024  0.00  0.00    +0.000 A 
ATOM     16  C   UNL     1      88.410  50.780  42.379  0.00  0.00    -0.038 A 
ATOM     17  C   UNL     1      89.141  52.078  42.130  0.00  0.00    -0.039 C 
ATOM     18  C   UNL     1      88.988  49.584  41.940  0.00  0.00    -0.016 A 
ATOM     19  C   UNL     1      88.358  48.346  42.147  0.00  0.00    +0.132 A 
ATOM     20  C   UNL     1      87.102  48.300  42.804  0.00  0.00    +0.066 A 
ATOM     21  C   UNL     1      86.496  49.517  43.235  0.00  0.00    -0.003 A 
ATOM     22  C   UNL     1      85.232  49.471  43.862  0.00  0.00    -0.053 A 
ATOM     23  C   UNL     1      84.587  48.261  44.077  0.00  0.00    -0.058 A 
ATOM     24  C   UNL     1      85.176  47.069  43.673  0.00  0.00    -0.019 A 
ATOM     25  C   UNL     1      86.429  47.066  43.034  0.00  0.00    +0.131 A 
BRANCH  25  26
ATOM     26  O   UNL     1      87.016  45.856  42.624  0.00  0.00    -0.494 OA
ATOM     27  C   UNL     1      87.007  44.646  43.374  0.00  0.00    +0.079 C 
ENDBRANCH  25  26
BRANCH  19  28
ATOM     28  O   UNL     1      88.965  47.156  41.708  0.00  0.00    -0.494 OA
ATOM     29  C   UNL     1      90.297  46.750  42.011  0.00  0.00    +0.079 C 
ENDBRANCH  19  28
ENDBRANCH  11  15
BRANCH   1  31
ATOM     30  C   UNL     1      87.083  50.861  46.591  0.00  0.00    +0.079 C 
ATOM     31  O   UNL     1      87.622  51.790  45.658  0.00  0.00    -0.494 OA
ENDBRANCH   1  31
BRANCH  10  32
ATOM     32  O   UNL     1      85.346  52.290  41.353  0.00  0.00    -0.506 OA
ATOM     33  H   UNL     1      84.885  51.482  41.247  0.00  0.00    +0.000 HD
ENDBRANCH  10  32
TORSDOF 5
ENDMDL
MODEL 4
REMARK VINA RESULT:    -8.398      1.699      2.355
REMARK INTER + INTRA:         -11.577
REMARK INTER:                 -10.516
REMARK INTRA:                  -1.062
REMARK UNBOUND:                -0.970
REMARK  Name = 
REMARK  11 active torsions:
REMARK  status: ('A' for Active; 'I' for Inactive)
REMARK    1  A    between atoms: C_1  and  O_2
REMARK    2  A    between atoms: O_2  and  C_3
REMARK    3  A    between atoms: C_5  and  C_6
REMARK    4  A    between atoms: C_8  and  C_30
REMARK    5  A    between atoms: C_12  and  O_29
REMARK    6  A    between atoms: C_13  and  C_14
REMARK    7  A    between atoms: C_15  and  C_16
REMARK    8  A    between atoms: C_18  and  O_27
REMARK    9  A    between atoms: C_24  and  O_25
REMARK   10  A    between atoms: O_25  and  C_26
REMARK   11  A    between atoms: O_27  and  C_28
REMARK                            x       y       z     vdW  Elec       q    Type
REMARK                         _______ _______ _______ _____ _____    ______ ____
ROOT
ATOM      1  C   UNL     1      85.883  51.649  45.397  0.00  0.00    +0.136 A 
ATOM      2  C   UNL     1      85.544  52.968  45.758  0.00  0.00    +0.015 A 
ATOM      3  C   UNL     1      85.571  53.430  47.195  0.00  0.00    +0.034 C 
ATOM      4  C   UNL     1      84.199  53.270  47.866  0.00  0.00    -0.045 C 
ATOM      5  N   UNL     1      86.078  54.810  47.280  0.00  0.00    -0.307 N 
ATOM      6  C   UNL     1      85.442  55.823  46.398  0.00  0.00    +0.009 C 
ATOM      7  C   UNL     1      84.663  55.242  45.188  0.00  0.00    -0.012 C 
ATOM      8  C   UNL     1      85.150  53.884  44.775  0.00  0.00    -0.034 A 
ATOM      9  C   UNL     1      85.077  53.483  43.435  0.00  0.00    -0.016 A 
ATOM     10  C   UNL     1      85.410  52.180  43.062  0.00  0.00    +0.128 A 
ATOM     11  C   UNL     1      85.827  51.253  44.042  0.00  0.00    +0.066 A 
ATOM     12  C   UNL     1      84.554  56.787  47.201  0.00  0.00    -0.049 C 
ATOM     13  H   UNL     1      87.072  54.787  47.052  0.00  0.00    +0.000 HD
ATOM     14  H   UNL     1      85.858  55.113  48.228  0.00  0.00    +0.000 HD
ENDROOT
BRANCH  11  15
ATOM     15  C   UNL     1      86.162  49.855  43.662  0.00  0.00    +0.000 A 
ATOM     16  C   UNL     1      87.488  49.539  43.298  0.00  0.00    -0.038 A 
ATOM     17  C   UNL     1      88.570  50.592  43.276  0.00  0.00    -0.039 C 
ATOM     18  C   UNL     1      87.811  48.230  42.930  0.00  0.00    -0.016 A 
ATOM     19  C   UNL     1      86.849  47.207  42.936  0.00  0.00    +0.132 A 
ATOM     20  C   UNL     1      85.513  47.503  43.309  0.00  0.00    +0.066 A 
ATOM     21  C   UNL     1      85.170  48.841  43.664  0.00  0.00    -0.003 A 
ATOM     22  C   UNL     1      83.834  49.141  44.007  0.00  0.00    -0.053 A 
ATOM     23  C   UNL     1      82.862  48.149  44.018  0.00  0.00    -0.058 A 
ATOM     24  C   UNL     1      83.190  46.840  43.687  0.00  0.00    -0.019 A 
ATOM     25  C   UNL     1      84.506  46.497  43.328  0.00  0.00    +0.131 A 
BRANCH  25  26
ATOM     26  O   UNL     1      84.829  45.171  42.990  0.00  0.00    -0.494 OA
ATOM     27  C   UNL     1      84.593  44.034  43.814  0.00  0.00    +0.079 C 
ENDBRANCH  25  26
BRANCH  19  28
ATOM     28  O   UNL     1      87.202  45.894  42.574  0.00  0.00    -0.494 OA
ATOM     29  C   UNL     1      88.499  45.322  42.715  0.00  0.00    +0.079 C 
ENDBRANCH  19  28
ENDBRANCH  11  15
BRANCH   1  31
ATOM     30  C   UNL     1      87.563  50.604  46.873  0.00  0.00    +0.079 C 
ATOM     31  O   UNL     1      86.230  50.728  46.393  0.00  0.00    -0.494 OA
ENDBRANCH   1  31
BRANCH  10  32
ATOM     32  O   UNL     1      85.297  51.827  41.715  0.00  0.00    -0.506 OA
ATOM     33  H   UNL     1      84.735  51.122  41.461  0.00  0.00    +0.000 HD
ENDBRANCH  10  32
TORSDOF 5
ENDMDL
MODEL 5
REMARK VINA RESULT:    -8.384      2.627      7.629
REMARK INTER + INTRA:         -11.559
REMARK INTER:                 -10.702
REMARK INTRA:                  -0.857
REMARK UNBOUND:                -0.970
REMARK  Name = 
REMARK  11 active torsions:
REMARK  status: ('A' for Active; 'I' for Inactive)
REMARK    1  A    between atoms: C_1  and  O_2
REMARK    2  A    between atoms: O_2  and  C_3
REMARK    3  A    between atoms: C_5  and  C_6
REMARK    4  A    between atoms: C_8  and  C_30
REMARK    5  A    between atoms: C_12  and  O_29
REMARK    6  A    between atoms: C_13  and  C_14
REMARK    7  A    between atoms: C_15  and  C_16
REMARK    8  A    between atoms: C_18  and  O_27
REMARK    9  A    between atoms: C_24  and  O_25
REMARK   10  A    between atoms: O_25  and  C_26
REMARK   11  A    between atoms: O_27  and  C_28
REMARK                            x       y       z     vdW  Elec       q    Type
REMARK                         _______ _______ _______ _____ _____    ______ ____
ROOT
ATOM      1  C   UNL     1      85.261  49.969  44.197  0.00  0.00    +0.136 A 
ATOM      2  C   UNL     1      84.928  48.604  44.087  0.00  0.00    +0.015 A 
ATOM      3  C   UNL     1      85.948  47.515  44.316  0.00  0.00    +0.034 C 
ATOM      4  C   UNL     1      86.626  47.092  43.005  0.00  0.00    -0.045 C 
ATOM      5  N   UNL     1      85.334  46.378  45.022  0.00  0.00    -0.307 N 
ATOM      6  C   UNL     1      84.075  45.828  44.458  0.00  0.00    +0.009 C 
ATOM      7  C   UNL     1      83.319  46.779  43.493  0.00  0.00    -0.012 C 
ATOM      8  C   UNL     1      83.625  48.228  43.738  0.00  0.00    -0.034 A 
ATOM      9  C   UNL     1      82.659  49.209  43.482  0.00  0.00    -0.016 A 
ATOM     10  C   UNL     1      82.974  50.565  43.587  0.00  0.00    +0.128 A 
ATOM     11  C   UNL     1      84.279  50.955  43.958  0.00  0.00    +0.066 A 
ATOM     12  C   UNL     1      84.307  44.460  43.798  0.00  0.00    -0.049 C 
ATOM     13  H   UNL     1      85.137  46.678  45.976  0.00  0.00    +0.000 HD
ATOM     14  H   UNL     1      86.012  45.621  44.938  0.00  0.00    +0.000 HD
ENDROOT
BRANCH  11  15
ATOM     15  C   UNL     1      84.635  52.396  44.050  0.00  0.00    +0.000 A 
ATOM     16  C   UNL     1      85.022  53.086  42.883  0.00  0.00    -0.038 A 
ATOM     17  C   UNL     1      85.095  52.390  41.545  0.00  0.00    -0.039 C 
ATOM     18  C   UNL     1      85.367  54.439  42.960  0.00  0.00    -0.016 A 
ATOM     19  C   UNL     1      85.315  55.141  44.175  0.00  0.00    +0.132 A 
ATOM     20  C   UNL     1      84.917  54.467  45.358  0.00  0.00    +0.066 A 
ATOM     21  C   UNL     1      84.585  53.081  45.291  0.00  0.00    -0.003 A 
ATOM     22  C   UNL     1      84.218  52.404  46.474  0.00  0.00    -0.053 A 
ATOM     23  C   UNL     1      84.161  53.074  47.690  0.00  0.00    -0.058 A 
ATOM     24  C   UNL     1      84.469  54.427  47.761  0.00  0.00    -0.019 A 
ATOM     25  C   UNL     1      84.850  55.140  46.611  0.00  0.00    +0.131 A 
BRANCH  25  26
ATOM     26  O   UNL     1      85.166  56.508  46.693  0.00  0.00    -0.494 OA
ATOM     27  C   UNL     1      84.248  57.540  47.039  0.00  0.00    +0.079 C 
ENDBRANCH  25  26
BRANCH  19  28
ATOM     28  O   UNL     1      85.654  56.505  44.225  0.00  0.00    -0.494 OA
ATOM     29  C   UNL     1      84.990  57.545  43.513  0.00  0.00    +0.079 C 
ENDBRANCH  19  28
ENDBRANCH  11  15
BRANCH   1  31
ATOM     30  C   UNL     1      87.560  50.526  43.491  0.00  0.00    +0.079 C 
ATOM     31  O   UNL     1      86.578  50.335  44.501  0.00  0.00    -0.494 OA
ENDBRANCH   1  31
BRANCH  10  32
ATOM     32  O   UNL     1      81.979  51.500  43.298  0.00  0.00    -0.506 OA
ATOM     33  H   UNL     1      82.213  52.362  43.015  0.00  0.00    +0.000 HD
ENDBRANCH  10  32
TORSDOF 5
ENDMDL
MODEL 6
REMARK VINA RESULT:    -8.277      2.003      4.314
REMARK INTER + INTRA:         -11.424
REMARK INTER:                 -10.634
REMARK INTRA:                  -0.790
REMARK UNBOUND:                -0.970
REMARK  Name = 
REMARK  11 active torsions:
REMARK  status: ('A' for Active; 'I' for Inactive)
REMARK    1  A    between atoms: C_1  and  O_2
REMARK    2  A    between atoms: O_2  and  C_3
REMARK    3  A    between atoms: C_5  and  C_6
REMARK    4  A    between atoms: C_8  and  C_30
REMARK    5  A    between atoms: C_12  and  O_29
REMARK    6  A    between atoms: C_13  and  C_14
REMARK    7  A    between atoms: C_15  and  C_16
REMARK    8  A    between atoms: C_18  and  O_27
REMARK    9  A    between atoms: C_24  and  O_25
REMARK   10  A    between atoms: O_25  and  C_26
REMARK   11  A    between atoms: O_27  and  C_28
REMARK                            x       y       z     vdW  Elec       q    Type
REMARK                         _______ _______ _______ _____ _____    ______ ____
ROOT
ATOM      1  C   UNL     1      85.520  52.115  44.279  0.00  0.00    +0.136 A 
ATOM      2  C   UNL     1      85.570  53.380  44.899  0.00  0.00    +0.015 A 
ATOM      3  C   UNL     1      85.241  54.647  44.147  0.00  0.00    +0.034 C 
ATOM      4  C   UNL     1      86.498  55.286  43.540  0.00  0.00    -0.045 C 
ATOM      5  N   UNL     1      84.501  55.579  45.014  0.00  0.00    -0.307 N 
ATOM      6  C   UNL     1      85.085  55.878  46.347  0.00  0.00    +0.009 C 
ATOM      7  C   UNL     1      86.131  54.847  46.849  0.00  0.00    -0.012 C 
ATOM      8  C   UNL     1      85.952  53.486  46.241  0.00  0.00    -0.034 A 
ATOM      9  C   UNL     1      86.300  52.337  46.963  0.00  0.00    -0.016 A 
ATOM     10  C   UNL     1      86.255  51.078  46.362  0.00  0.00    +0.128 A 
ATOM     11  C   UNL     1      85.852  50.957  45.014  0.00  0.00    +0.066 A 
ATOM     12  C   UNL     1      85.660  57.302  46.400  0.00  0.00    -0.049 C 
ATOM     13  H   UNL     1      83.573  55.185  45.168  0.00  0.00    +0.000 HD
ATOM     14  H   UNL     1      84.515  56.469  44.516  0.00  0.00    +0.000 HD
ENDROOT
BRANCH  11  15
ATOM     15  C   UNL     1      85.823  49.624  44.356  0.00  0.00    +0.000 A 
ATOM     16  C   UNL     1      84.588  48.959  44.201  0.00  0.00    -0.038 A 
ATOM     17  C   UNL     1      83.300  49.567  44.701  0.00  0.00    -0.039 C 
ATOM     18  C   UNL     1      84.551  47.702  43.591  0.00  0.00    -0.016 A 
ATOM     19  C   UNL     1      85.715  47.088  43.102  0.00  0.00    +0.132 A 
ATOM     20  C   UNL     1      86.965  47.745  43.239  0.00  0.00    +0.066 A 
ATOM     21  C   UNL     1      87.014  49.019  43.881  0.00  0.00    -0.003 A 
ATOM     22  C   UNL     1      88.262  49.658  44.042  0.00  0.00    -0.053 A 
ATOM     23  C   UNL     1      89.430  49.073  43.571  0.00  0.00    -0.058 A 
ATOM     24  C   UNL     1      89.389  47.839  42.933  0.00  0.00    -0.019 A 
ATOM     25  C   UNL     1      88.170  47.159  42.759  0.00  0.00    +0.131 A 
BRANCH  25  26
ATOM     26  O   UNL     1      88.137  45.909  42.116  0.00  0.00    -0.494 OA
ATOM     27  C   UNL     1      88.658  44.698  42.655  0.00  0.00    +0.079 C 
ENDBRANCH  25  26
BRANCH  19  28
ATOM     28  O   UNL     1      85.650  45.828  42.481  0.00  0.00    -0.494 OA
ATOM     29  C   UNL     1      84.882  44.721  42.943  0.00  0.00    +0.079 C 
ENDBRANCH  19  28
ENDBRANCH  11  15
BRANCH   1  31
ATOM     30  C   UNL     1      86.167  52.029  41.898  0.00  0.00    +0.079 C 
ATOM     31  O   UNL     1      85.182  52.024  42.923  0.00  0.00    -0.494 OA
ENDBRANCH   1  31
BRANCH  10  32
ATOM     32  O   UNL     1      86.635  49.969  47.121  0.00  0.00    -0.506 OA
ATOM     33  H   UNL     1      87.094  49.259  46.717  0.00  0.00    +0.000 HD
ENDBRANCH  10  32
TORSDOF 5
ENDMDL
MODEL 7
REMARK VINA RESULT:    -8.225      1.333      2.573
REMARK INTER + INTRA:         -11.359
REMARK INTER:                 -10.503
REMARK INTRA:                  -0.856
REMARK UNBOUND:                -0.970
REMARK  Name = 
REMARK  11 active torsions:
REMARK  status: ('A' for Active; 'I' for Inactive)
REMARK    1  A    between atoms: C_1  and  O_2
REMARK    2  A    between atoms: O_2  and  C_3
REMARK    3  A    between atoms: C_5  and  C_6
REMARK    4  A    between atoms: C_8  and  C_30
REMARK    5  A    between atoms: C_12  and  O_29
REMARK    6  A    between atoms: C_13  and  C_14
REMARK    7  A    between atoms: C_15  and  C_16
REMARK    8  A    between atoms: C_18  and  O_27
REMARK    9  A    between atoms: C_24  and  O_25
REMARK   10  A    between atoms: O_25  and  C_26
REMARK   11  A    between atoms: O_27  and  C_28
REMARK                            x       y       z     vdW  Elec       q    Type
REMARK                         _______ _______ _______ _____ _____    ______ ____
ROOT
ATOM      1  C   UNL     1      85.176  53.369  44.718  0.00  0.00    +0.136 A 
ATOM      2  C   UNL     1      84.991  54.684  45.189  0.00  0.00    +0.015 A 
ATOM      3  C   UNL     1      84.874  55.856  44.245  0.00  0.00    +0.034 C 
ATOM      4  C   UNL     1      86.237  56.515  43.991  0.00  0.00    -0.045 C 
ATOM      5  N   UNL     1      83.872  56.815  44.740  0.00  0.00    -0.307 N 
ATOM      6  C   UNL     1      84.002  57.267  46.150  0.00  0.00    +0.009 C 
ATOM      7  C   UNL     1      84.870  56.351  47.054  0.00  0.00    -0.012 C 
ATOM      8  C   UNL     1      84.931  54.933  46.565  0.00  0.00    -0.034 A 
ATOM      9  C   UNL     1      85.071  53.877  47.474  0.00  0.00    -0.016 A 
ATOM     10  C   UNL     1      85.255  52.569  47.023  0.00  0.00    +0.128 A 
ATOM     11  C   UNL     1      85.297  52.303  45.637  0.00  0.00    +0.066 A 
ATOM     12  C   UNL     1      84.488  58.723  46.229  0.00  0.00    -0.049 C 
ATOM     13  H   UNL     1      82.955  56.380  44.642  0.00  0.00    +0.000 HD
ATOM     14  H   UNL     1      84.015  57.656  44.181  0.00  0.00    +0.000 HD
ENDROOT
BRANCH  11  15
ATOM     15  C   UNL     1      85.515  50.917  45.144  0.00  0.00    +0.000 A 
ATOM     16  C   UNL     1      86.822  50.385  45.140  0.00  0.00    -0.038 A 
ATOM     17  C   UNL     1      88.003  51.197  45.614  0.00  0.00    -0.039 C 
ATOM     18  C   UNL     1      87.039  49.087  44.670  0.00  0.00    -0.016 A 
ATOM     19  C   UNL     1      85.980  48.282  44.220  0.00  0.00    +0.132 A 
ATOM     20  C   UNL     1      84.658  48.796  44.226  0.00  0.00    +0.066 A 
ATOM     21  C   UNL     1      84.431  50.127  44.684  0.00  0.00    -0.003 A 
ATOM     22  C   UNL     1      83.119  50.647  44.662  0.00  0.00    -0.053 A 
ATOM     23  C   UNL     1      82.053  49.874  44.220  0.00  0.00    -0.058 A 
ATOM     24  C   UNL     1      82.263  48.572  43.786  0.00  0.00    -0.019 A 
ATOM     25  C   UNL     1      83.554  48.014  43.779  0.00  0.00    +0.131 A 
BRANCH  25  26
ATOM     26  O   UNL     1      83.759  46.697  43.334  0.00  0.00    -0.494 OA
ATOM     27  C   UNL     1      83.224  45.531  43.952  0.00  0.00    +0.079 C 
ENDBRANCH  25  26
BRANCH  19  28
ATOM     28  O   UNL     1      86.222  46.973  43.764  0.00  0.00    -0.494 OA
ATOM     29  C   UNL     1      87.220  46.604  42.817  0.00  0.00    +0.079 C 
ENDBRANCH  19  28
ENDBRANCH  11  15
BRANCH   1  31
ATOM     30  C   UNL     1      86.536  53.105  42.675  0.00  0.00    +0.079 C 
ATOM     31  O   UNL     1      85.280  53.136  43.342  0.00  0.00    -0.494 OA
ENDBRANCH   1  31
BRANCH  10  32
ATOM     32  O   UNL     1      85.413  51.557  47.973  0.00  0.00    -0.506 OA
ATOM     33  H   UNL     1      85.766  50.727  47.720  0.00  0.00    +0.000 HD
ENDBRANCH  10  32
TORSDOF 5
ENDMDL
MODEL 8
REMARK VINA RESULT:    -6.281      3.100      5.236
REMARK INTER + INTRA:          -8.903
REMARK INTER:                  -7.934
REMARK INTRA:                  -0.970
REMARK UNBOUND:                -0.970
REMARK  Name = 
REMARK  11 active torsions:
REMARK  status: ('A' for Active; 'I' for Inactive)
REMARK    1  A    between atoms: C_1  and  O_2
REMARK    2  A    between atoms: O_2  and  C_3
REMARK    3  A    between atoms: C_5  and  C_6
REMARK    4  A    between atoms: C_8  and  C_30
REMARK    5  A    between atoms: C_12  and  O_29
REMARK    6  A    between atoms: C_13  and  C_14
REMARK    7  A    between atoms: C_15  and  C_16
REMARK    8  A    between atoms: C_18  and  O_27
REMARK    9  A    between atoms: C_24  and  O_25
REMARK   10  A    between atoms: O_25  and  C_26
REMARK   11  A    between atoms: O_27  and  C_28
REMARK                            x       y       z     vdW  Elec       q    Type
REMARK                         _______ _______ _______ _____ _____    ______ ____
ROOT
ATOM      1  C   UNL     1      84.728  53.081  43.076  0.00  0.00    +0.136 A 
ATOM      2  C   UNL     1      83.620  53.613  42.386  0.00  0.00    +0.015 A 
ATOM      3  C   UNL     1      83.676  54.964  41.716  0.00  0.00    +0.034 C 
ATOM      4  C   UNL     1      83.183  56.079  42.649  0.00  0.00    -0.045 C 
ATOM      5  N   UNL     1      82.938  54.934  40.441  0.00  0.00    -0.307 N 
ATOM      6  C   UNL     1      81.551  54.403  40.471  0.00  0.00    +0.009 C 
ATOM      7  C   UNL     1      81.210  53.530  41.708  0.00  0.00    -0.012 C 
ATOM      8  C   UNL     1      82.420  52.894  42.328  0.00  0.00    -0.034 A 
ATOM      9  C   UNL     1      82.317  51.652  42.968  0.00  0.00    -0.016 A 
ATOM     10  C   UNL     1      83.406  51.112  43.655  0.00  0.00    +0.128 A 
ATOM     11  C   UNL     1      84.627  51.820  43.704  0.00  0.00    +0.066 A 
ATOM     12  C   UNL     1      80.517  55.526  40.299  0.00  0.00    -0.049 C 
ATOM     13  H   UNL     1      83.472  54.360  39.790  0.00  0.00    +0.000 HD
ATOM     14  H   UNL     1      82.838  55.913  40.173  0.00  0.00    +0.000 HD
ENDROOT
BRANCH  11  15
ATOM     15  C   UNL     1      85.787  51.267  44.451  0.00  0.00    +0.000 A 
ATOM     16  C   UNL     1      85.870  51.471  45.845  0.00  0.00    -0.038 A 
ATOM     17  C   UNL     1      84.812  52.250  46.590  0.00  0.00    -0.039 C 
ATOM     18  C   UNL     1      86.961  50.962  46.556  0.00  0.00    -0.016 A 
ATOM     19  C   UNL     1      87.973  50.227  45.919  0.00  0.00    +0.132 A 
ATOM     20  C   UNL     1      87.902  50.001  44.520  0.00  0.00    +0.066 A 
ATOM     21  C   UNL     1      86.803  50.536  43.784  0.00  0.00    -0.003 A 
ATOM     22  C   UNL     1      86.749  50.336  42.388  0.00  0.00    -0.053 A 
ATOM     23  C   UNL     1      87.738  49.614  41.732  0.00  0.00    -0.058 A 
ATOM     24  C   UNL     1      88.804  49.079  42.443  0.00  0.00    -0.019 A 
ATOM     25  C   UNL     1      88.907  49.261  43.834  0.00  0.00    +0.131 A 
BRANCH  25  26
ATOM     26  O   UNL     1      89.991  48.720  44.546  0.00  0.00    -0.494 OA
ATOM     27  C   UNL     1      91.283  48.467  44.002  0.00  0.00    +0.079 C 
ENDBRANCH  25  26
BRANCH  19  28
ATOM     28  O   UNL     1      89.054  49.714  46.658  0.00  0.00    -0.494 OA
ATOM     29  C   UNL     1      89.183  49.771  48.076  0.00  0.00    +0.079 C 
ENDBRANCH  19  28
ENDBRANCH  11  15
BRANCH   1  31
ATOM     30  C   UNL     1      86.137  54.748  44.228  0.00  0.00    +0.079 C 
ATOM     31  O   UNL     1      85.907  53.829  43.168  0.00  0.00    -0.494 OA
ENDBRANCH   1  31
BRANCH  10  32
ATOM     32  O   UNL     1      83.240  49.882  44.295  0.00  0.00    -0.506 OA
ATOM     33  H   UNL     1      83.498  49.781  45.190  0.00  0.00    +0.000 HD
ENDBRANCH  10  32
TORSDOF 5
ENDMDL
MODEL 9
REMARK VINA RESULT:    -6.266     14.000     16.388
REMARK INTER + INTRA:          -8.884
REMARK INTER:                  -8.168
REMARK INTRA:                  -0.717
REMARK UNBOUND:                -0.970
REMARK  Name = 
REMARK  11 active torsions:
REMARK  status: ('A' for Active; 'I' for Inactive)
REMARK    1  A    between atoms: C_1  and  O_2
REMARK    2  A    between atoms: O_2  and  C_3
REMARK    3  A    between atoms: C_5  and  C_6
REMARK    4  A    between atoms: C_8  and  C_30
REMARK    5  A    between atoms: C_12  and  O_29
REMARK    6  A    between atoms: C_13  and  C_14
REMARK    7  A    between atoms: C_15  and  C_16
REMARK    8  A    between atoms: C_18  and  O_27
REMARK    9  A    between atoms: C_24  and  O_25
REMARK   10  A    between atoms: O_25  and  C_26
REMARK   11  A    between atoms: O_27  and  C_28
REMARK                            x       y       z     vdW  Elec       q    Type
REMARK                         _______ _______ _______ _____ _____    ______ ____
ROOT
ATOM      1  C   UNL     1      76.480  45.719  32.743  0.00  0.00    +0.136 A 
ATOM      2  C   UNL     1      75.540  46.766  32.815  0.00  0.00    +0.015 A 
ATOM      3  C   UNL     1      75.854  48.069  33.508  0.00  0.00    +0.034 C 
ATOM      4  C   UNL     1      75.415  48.047  34.979  0.00  0.00    -0.045 C 
ATOM      5  N   UNL     1      75.269  49.199  32.766  0.00  0.00    -0.307 N 
ATOM      6  C   UNL     1      73.829  49.108  32.414  0.00  0.00    +0.009 C 
ATOM      7  C   UNL     1      73.235  47.674  32.452  0.00  0.00    -0.012 C 
ATOM      8  C   UNL     1      74.269  46.605  32.251  0.00  0.00    -0.034 A 
ATOM      9  C   UNL     1      73.927  45.397  31.630  0.00  0.00    -0.016 A 
ATOM     10  C   UNL     1      74.847  44.351  31.551  0.00  0.00    +0.128 A 
ATOM     11  C   UNL     1      76.139  44.509  32.099  0.00  0.00    +0.066 A 
ATOM     12  C   UNL     1      72.982  50.067  33.264  0.00  0.00    -0.049 C 
ATOM     13  H   UNL     1      75.791  49.298  31.896  0.00  0.00    +0.000 HD
ATOM     14  H   UNL     1      75.334  49.993  33.403  0.00  0.00    +0.000 HD
ENDROOT
BRANCH  11  15
ATOM     15  C   UNL     1      77.121  43.394  32.043  0.00  0.00    +0.000 A 
ATOM     16  C   UNL     1      78.136  43.419  31.063  0.00  0.00    -0.038 A 
ATOM     17  C   UNL     1      78.238  44.547  30.064  0.00  0.00    -0.039 C 
ATOM     18  C   UNL     1      79.059  42.371  30.996  0.00  0.00    -0.016 A 
ATOM     19  C   UNL     1      79.018  41.298  31.900  0.00  0.00    +0.132 A 
ATOM     20  C   UNL     1      78.012  41.260  32.899  0.00  0.00    +0.066 A 
ATOM     21  C   UNL     1      77.053  42.314  32.960  0.00  0.00    -0.003 A 
ATOM     22  C   UNL     1      76.034  42.261  33.936  0.00  0.00    -0.053 A 
ATOM     23  C   UNL     1      75.969  41.210  34.841  0.00  0.00    -0.058 A 
ATOM     24  C   UNL     1      76.907  40.186  34.797  0.00  0.00    -0.019 A 
ATOM     25  C   UNL     1      77.933  40.191  33.836  0.00  0.00    +0.131 A 
BRANCH  25  26
ATOM     26  O   UNL     1      78.876  39.149  33.795  0.00  0.00    -0.494 OA
ATOM     27  C   UNL     1      79.985  39.013  34.679  0.00  0.00    +0.079 C 
ENDBRANCH  25  26
BRANCH  19  28
ATOM     28  O   UNL     1      79.966  40.262  31.820  0.00  0.00    -0.494 OA
ATOM     29  C   UNL     1      81.345  40.430  31.504  0.00  0.00    +0.079 C 
ENDBRANCH  19  28
ENDBRANCH  11  15
BRANCH   1  31
ATOM     30  C   UNL     1      77.980  45.450  34.686  0.00  0.00    +0.079 C 
ATOM     31  O   UNL     1      77.732  45.872  33.350  0.00  0.00    -0.494 OA
ENDBRANCH   1  31
BRANCH  10  32
ATOM     32  O   UNL     1      74.445  43.160  30.942  0.00  0.00    -0.506 OA
ATOM     33  H   UNL     1      73.719  43.159  30.350  0.00  0.00    +0.000 HD
ENDBRANCH  10  32
TORSDOF 5
ENDMDL
