MODEL 1
REMARK VINA RESULT:    -5.769      0.000      0.000
REMARK INTER + INTRA:          -9.961
REMARK INTER:                  -9.232
REMARK INTRA:                  -0.729
REMARK UNBOUND:                -1.494
REMARK  Name = 
REMARK  9 active torsions:
REMARK  status: ('A' for Active; 'I' for Inactive)
REMARK    1  A    between atoms: C_1  and  O_2
REMARK    2  A    between atoms: O_2  and  C_3
REMARK    3  A    between atoms: C_3  and  C_5
REMARK    4  A    between atoms: C_5  and  C_6
REMARK    5  A    between atoms: C_6  and  C_7
REMARK    6  A    between atoms: C_7  and  C_8
REMARK    7  A    between atoms: C_8  and  C_9
REMARK    8  A    between atoms: C_9  and  C_10
REMARK    9  A    between atoms: C_10  and  C_11
REMARK                            x       y       z     vdW  Elec       q    Type
REMARK                         _______ _______ _______ _____ _____    ______ ____
ROOT
ATOM      1  C   UNL     1      83.925  55.117  48.062  0.00  0.00    -0.053 C 
ENDROOT
BRANCH   1   2
ATOM      2  C   UNL     1      84.999  55.888  47.279  0.00  0.00    -0.053 C 
BRANCH   2   3
ATOM      3  C   UNL     1      84.409  56.763  46.165  0.00  0.00    -0.043 C 
BRANCH   3   4
ATOM      4  C   UNL     1      85.410  57.832  45.719  0.00  0.00    +0.045 C 
BRANCH   4   5
ATOM      5  C   UNL     1      85.941  57.516  44.356  0.00  0.00    +0.307 C 
ATOM      6  O   UNL     1      85.489  58.129  43.350  0.00  0.00    -0.251 OA
BRANCH   5   8
ATOM      7  C   UNL     1      86.604  55.249  43.623  0.00  0.00    +0.082 C 
ATOM      8  O   UNL     1      86.901  56.512  44.207  0.00  0.00    -0.468 OA
ENDBRANCH   5   8
ENDBRANCH   4   5
ENDBRANCH   3   4
ENDBRANCH   2   3
ENDBRANCH   1   2
BRANCH   1   9
ATOM      9  C   UNL     1      84.018  53.595  47.853  0.00  0.00    -0.049 C 
BRANCH   9  10
ATOM     10  C   UNL     1      85.179  52.970  48.642  0.00  0.00    -0.028 C 
BRANCH  10  11
ATOM     11  C   UNL     1      86.118  52.197  47.751  0.00  0.00    -0.047 A 
ATOM     12  C   UNL     1      86.715  51.012  48.213  0.00  0.00    -0.059 A 
ATOM     13  C   UNL     1      87.570  50.283  47.381  0.00  0.00    -0.062 A 
ATOM     14  C   UNL     1      87.832  50.728  46.082  0.00  0.00    -0.062 A 
ATOM     15  C   UNL     1      87.236  51.902  45.613  0.00  0.00    -0.062 A 
ATOM     16  C   UNL     1      86.382  52.635  46.442  0.00  0.00    -0.059 A 
ENDBRANCH  10  11
ENDBRANCH   9  10
ENDBRANCH   1   9
TORSDOF 8
ENDMDL
MODEL 2
REMARK VINA RESULT:    -5.585      1.431      1.529
REMARK INTER + INTRA:          -9.691
REMARK INTER:                  -8.852
REMARK INTRA:                  -0.839
REMARK UNBOUND:                -1.494
REMARK  Name = 
REMARK  9 active torsions:
REMARK  status: ('A' for Active; 'I' for Inactive)
REMARK    1  A    between atoms: C_1  and  O_2
REMARK    2  A    between atoms: O_2  and  C_3
REMARK    3  A    between atoms: C_3  and  C_5
REMARK    4  A    between atoms: C_5  and  C_6
REMARK    5  A    between atoms: C_6  and  C_7
REMARK    6  A    between atoms: C_7  and  C_8
REMARK    7  A    between atoms: C_8  and  C_9
REMARK    8  A    between atoms: C_9  and  C_10
REMARK    9  A    between atoms: C_10  and  C_11
REMARK                            x       y       z     vdW  Elec       q    Type
REMARK                         _______ _______ _______ _____ _____    ______ ____
ROOT
ATOM      1  C   UNL     1      84.035  55.378  47.501  0.00  0.00    -0.053 C 
ENDROOT
BRANCH   1   2
ATOM      2  C   UNL     1      84.489  56.657  46.782  0.00  0.00    -0.053 C 
BRANCH   2   3
ATOM      3  C   UNL     1      85.521  56.384  45.678  0.00  0.00    -0.043 C 
BRANCH   3   4
ATOM      4  C   UNL     1      84.887  55.617  44.514  0.00  0.00    +0.045 C 
BRANCH   4   5
ATOM      5  C   UNL     1      85.119  56.339  43.224  0.00  0.00    +0.307 C 
ATOM      6  O   UNL     1      85.122  57.600  43.203  0.00  0.00    -0.251 OA
BRANCH   5   8
ATOM      7  C   UNL     1      84.227  55.394  41.120  0.00  0.00    +0.082 C 
ATOM      8  O   UNL     1      85.286  55.606  42.046  0.00  0.00    -0.468 OA
ENDBRANCH   5   8
ENDBRANCH   4   5
ENDBRANCH   3   4
ENDBRANCH   2   3
ENDBRANCH   1   2
BRANCH   1   9
ATOM      9  C   UNL     1      85.148  54.758  48.365  0.00  0.00    -0.049 C 
BRANCH   9  10
ATOM     10  C   UNL     1      84.930  53.257  48.605  0.00  0.00    -0.028 C 
BRANCH  10  11
ATOM     11  C   UNL     1      85.940  52.412  47.871  0.00  0.00    -0.047 A 
ATOM     12  C   UNL     1      86.432  51.232  48.454  0.00  0.00    -0.059 A 
ATOM     13  C   UNL     1      87.353  50.436  47.766  0.00  0.00    -0.062 A 
ATOM     14  C   UNL     1      87.786  50.809  46.490  0.00  0.00    -0.062 A 
ATOM     15  C   UNL     1      87.296  51.978  45.901  0.00  0.00    -0.062 A 
ATOM     16  C   UNL     1      86.376  52.778  46.586  0.00  0.00    -0.059 A 
ENDBRANCH  10  11
ENDBRANCH   9  10
ENDBRANCH   1   9
TORSDOF 8
ENDMDL
MODEL 3
REMARK VINA RESULT:    -5.532      8.397      9.893
REMARK INTER + INTRA:          -9.613
REMARK INTER:                  -8.742
REMARK INTRA:                  -0.871
REMARK UNBOUND:                -1.494
REMARK  Name = 
REMARK  9 active torsions:
REMARK  status: ('A' for Active; 'I' for Inactive)
REMARK    1  A    between atoms: C_1  and  O_2
REMARK    2  A    between atoms: O_2  and  C_3
REMARK    3  A    between atoms: C_3  and  C_5
REMARK    4  A    between atoms: C_5  and  C_6
REMARK    5  A    between atoms: C_6  and  C_7
REMARK    6  A    between atoms: C_7  and  C_8
REMARK    7  A    between atoms: C_8  and  C_9
REMARK    8  A    between atoms: C_9  and  C_10
REMARK    9  A    between atoms: C_10  and  C_11
REMARK                            x       y       z     vdW  Elec       q    Type
REMARK                         _______ _______ _______ _____ _____    ______ ____
ROOT
ATOM      1  C   UNL     1      86.804  44.102  43.802  0.00  0.00    -0.053 C 
ENDROOT
BRANCH   1   2
ATOM      2  C   UNL     1      85.316  44.447  43.965  0.00  0.00    -0.053 C 
BRANCH   2   3
ATOM      3  C   UNL     1      85.059  45.960  44.023  0.00  0.00    -0.043 C 
BRANCH   3   4
ATOM      4  C   UNL     1      84.193  46.414  42.845  0.00  0.00    +0.045 C 
BRANCH   4   5
ATOM      5  C   UNL     1      82.833  46.818  43.320  0.00  0.00    +0.307 C 
ATOM      6  O   UNL     1      82.166  47.664  42.664  0.00  0.00    -0.251 OA
BRANCH   5   8
ATOM      7  C   UNL     1      80.959  46.352  44.864  0.00  0.00    +0.082 C 
ATOM      8  O   UNL     1      82.335  46.286  44.513  0.00  0.00    -0.468 OA
ENDBRANCH   5   8
ENDBRANCH   4   5
ENDBRANCH   3   4
ENDBRANCH   2   3
ENDBRANCH   1   2
BRANCH   1   9
ATOM      9  C   UNL     1      87.361  44.519  42.430  0.00  0.00    -0.049 C 
BRANCH   9  10
ATOM     10  C   UNL     1      88.830  44.960  42.508  0.00  0.00    -0.028 C 
BRANCH  10  11
ATOM     11  C   UNL     1      89.002  46.420  42.172  0.00  0.00    -0.047 A 
ATOM     12  C   UNL     1      87.881  47.216  41.882  0.00  0.00    -0.059 A 
ATOM     13  C   UNL     1      88.038  48.574  41.591  0.00  0.00    -0.062 A 
ATOM     14  C   UNL     1      89.312  49.149  41.591  0.00  0.00    -0.062 A 
ATOM     15  C   UNL     1      90.431  48.366  41.885  0.00  0.00    -0.062 A 
ATOM     16  C   UNL     1      90.280  47.006  42.175  0.00  0.00    -0.059 A 
ENDBRANCH  10  11
ENDBRANCH   9  10
ENDBRANCH   1   9
TORSDOF 8
ENDMDL
MODEL 4
REMARK VINA RESULT:    -5.507      6.826      8.439
REMARK INTER + INTRA:          -9.577
REMARK INTER:                  -9.074
REMARK INTRA:                  -0.502
REMARK UNBOUND:                -1.494
REMARK  Name = 
REMARK  9 active torsions:
REMARK  status: ('A' for Active; 'I' for Inactive)
REMARK    1  A    between atoms: C_1  and  O_2
REMARK    2  A    between atoms: O_2  and  C_3
REMARK    3  A    between atoms: C_3  and  C_5
REMARK    4  A    between atoms: C_5  and  C_6
REMARK    5  A    between atoms: C_6  and  C_7
REMARK    6  A    between atoms: C_7  and  C_8
REMARK    7  A    between atoms: C_8  and  C_9
REMARK    8  A    between atoms: C_9  and  C_10
REMARK    9  A    between atoms: C_10  and  C_11
REMARK                            x       y       z     vdW  Elec       q    Type
REMARK                         _______ _______ _______ _____ _____    ______ ____
ROOT
ATOM      1  C   UNL     1      90.524  48.236  42.729  0.00  0.00    -0.053 C 
ENDROOT
BRANCH   1   2
ATOM      2  C   UNL     1      90.463  49.387  41.712  0.00  0.00    -0.053 C 
BRANCH   2   3
ATOM      3  C   UNL     1      89.408  50.442  42.073  0.00  0.00    -0.043 C 
BRANCH   3   4
ATOM      4  C   UNL     1      89.073  51.318  40.862  0.00  0.00    +0.045 C 
BRANCH   4   5
ATOM      5  C   UNL     1      89.560  52.717  41.078  0.00  0.00    +0.307 C 
ATOM      6  O   UNL     1      88.817  53.557  41.655  0.00  0.00    -0.251 OA
BRANCH   5   8
ATOM      7  C   UNL     1      90.984  53.873  39.419  0.00  0.00    +0.082 C 
ATOM      8  O   UNL     1      90.817  53.089  40.594  0.00  0.00    -0.468 OA
ENDBRANCH   5   8
ENDBRANCH   4   5
ENDBRANCH   3   4
ENDBRANCH   2   3
ENDBRANCH   1   2
BRANCH   1   9
ATOM      9  C   UNL     1      90.105  46.887  42.120  0.00  0.00    -0.049 C 
BRANCH   9  10
ATOM     10  C   UNL     1      88.626  46.869  41.706  0.00  0.00    -0.028 C 
BRANCH  10  11
ATOM     11  C   UNL     1      87.844  45.811  42.441  0.00  0.00    -0.047 A 
ATOM     12  C   UNL     1      86.570  46.105  42.957  0.00  0.00    -0.059 A 
ATOM     13  C   UNL     1      85.834  45.118  43.620  0.00  0.00    -0.062 A 
ATOM     14  C   UNL     1      86.360  43.832  43.769  0.00  0.00    -0.062 A 
ATOM     15  C   UNL     1      87.624  43.530  43.253  0.00  0.00    -0.062 A 
ATOM     16  C   UNL     1      88.364  44.514  42.590  0.00  0.00    -0.059 A 
ENDBRANCH  10  11
ENDBRANCH   9  10
ENDBRANCH   1   9
TORSDOF 8
ENDMDL
MODEL 5
REMARK VINA RESULT:    -5.414      6.278      8.512
REMARK INTER + INTRA:          -9.441
REMARK INTER:                  -8.910
REMARK INTRA:                  -0.531
REMARK UNBOUND:                -1.494
REMARK  Name = 
REMARK  9 active torsions:
REMARK  status: ('A' for Active; 'I' for Inactive)
REMARK    1  A    between atoms: C_1  and  O_2
REMARK    2  A    between atoms: O_2  and  C_3
REMARK    3  A    between atoms: C_3  and  C_5
REMARK    4  A    between atoms: C_5  and  C_6
REMARK    5  A    between atoms: C_6  and  C_7
REMARK    6  A    between atoms: C_7  and  C_8
REMARK    7  A    between atoms: C_8  and  C_9
REMARK    8  A    between atoms: C_9  and  C_10
REMARK    9  A    between atoms: C_10  and  C_11
REMARK                            x       y       z     vdW  Elec       q    Type
REMARK                         _______ _______ _______ _____ _____    ______ ____
ROOT
ATOM      1  C   UNL     1      90.447  48.577  41.806  0.00  0.00    -0.053 C 
ENDROOT
BRANCH   1   2
ATOM      2  C   UNL     1      89.370  49.555  41.311  0.00  0.00    -0.053 C 
BRANCH   2   3
ATOM      3  C   UNL     1      89.552  50.973  41.872  0.00  0.00    -0.043 C 
BRANCH   3   4
ATOM      4  C   UNL     1      89.880  51.966  40.753  0.00  0.00    +0.045 C 
BRANCH   4   5
ATOM      5  C   UNL     1      88.626  52.434  40.084  0.00  0.00    +0.307 C 
ATOM      6  O   UNL     1      88.445  52.199  38.858  0.00  0.00    -0.251 OA
BRANCH   5   8
ATOM      7  C   UNL     1      86.338  52.747  40.967  0.00  0.00    +0.082 C 
ATOM      8  O   UNL     1      87.688  53.167  40.816  0.00  0.00    -0.468 OA
ENDBRANCH   5   8
ENDBRANCH   4   5
ENDBRANCH   3   4
ENDBRANCH   2   3
ENDBRANCH   1   2
BRANCH   1   9
ATOM      9  C   UNL     1      89.978  47.113  41.769  0.00  0.00    -0.049 C 
BRANCH   9  10
ATOM     10  C   UNL     1      88.448  46.989  41.825  0.00  0.00    -0.028 C 
BRANCH  10  11
ATOM     11  C   UNL     1      88.006  45.633  42.312  0.00  0.00    -0.047 A 
ATOM     12  C   UNL     1      88.956  44.692  42.743  0.00  0.00    -0.059 A 
ATOM     13  C   UNL     1      88.546  43.441  43.215  0.00  0.00    -0.062 A 
ATOM     14  C   UNL     1      87.186  43.122  43.265  0.00  0.00    -0.062 A 
ATOM     15  C   UNL     1      86.234  44.055  42.844  0.00  0.00    -0.062 A 
ATOM     16  C   UNL     1      86.640  45.307  42.369  0.00  0.00    -0.059 A 
ENDBRANCH  10  11
ENDBRANCH   9  10
ENDBRANCH   1   9
TORSDOF 8
ENDMDL
MODEL 6
REMARK VINA RESULT:    -5.310      2.701      4.754
REMARK INTER + INTRA:          -9.287
REMARK INTER:                  -7.792
REMARK INTRA:                  -1.495
REMARK UNBOUND:                -1.494
REMARK  Name = 
REMARK  9 active torsions:
REMARK  status: ('A' for Active; 'I' for Inactive)
REMARK    1  A    between atoms: C_1  and  O_2
REMARK    2  A    between atoms: O_2  and  C_3
REMARK    3  A    between atoms: C_3  and  C_5
REMARK    4  A    between atoms: C_5  and  C_6
REMARK    5  A    between atoms: C_6  and  C_7
REMARK    6  A    between atoms: C_7  and  C_8
REMARK    7  A    between atoms: C_8  and  C_9
REMARK    8  A    between atoms: C_9  and  C_10
REMARK    9  A    between atoms: C_10  and  C_11
REMARK                            x       y       z     vdW  Elec       q    Type
REMARK                         _______ _______ _______ _____ _____    ______ ____
ROOT
ATOM      1  C   UNL     1      85.634  56.880  43.582  0.00  0.00    -0.053 C 
ENDROOT
BRANCH   1   2
ATOM      2  C   UNL     1      84.755  55.786  42.956  0.00  0.00    -0.053 C 
BRANCH   2   3
ATOM      3  C   UNL     1      84.764  54.481  43.764  0.00  0.00    -0.043 C 
BRANCH   3   4
ATOM      4  C   UNL     1      86.196  53.997  44.007  0.00  0.00    +0.045 C 
BRANCH   4   5
ATOM      5  C   UNL     1      86.752  53.367  42.768  0.00  0.00    +0.307 C 
ATOM      6  O   UNL     1      87.742  53.891  42.189  0.00  0.00    -0.251 OA
BRANCH   5   8
ATOM      7  C   UNL     1      86.848  51.256  41.485  0.00  0.00    +0.082 C 
ATOM      8  O   UNL     1      86.138  52.228  42.241  0.00  0.00    -0.468 OA
ENDBRANCH   5   8
ENDBRANCH   4   5
ENDBRANCH   3   4
ENDBRANCH   2   3
ENDBRANCH   1   2
BRANCH   1   9
ATOM      9  C   UNL     1      84.851  57.791  44.543  0.00  0.00    -0.049 C 
BRANCH   9  10
ATOM     10  C   UNL     1      85.453  57.801  45.956  0.00  0.00    -0.028 C 
BRANCH  10  11
ATOM     11  C   UNL     1      85.147  56.534  46.712  0.00  0.00    -0.047 A 
ATOM     12  C   UNL     1      86.192  55.747  47.226  0.00  0.00    -0.059 A 
ATOM     13  C   UNL     1      85.909  54.582  47.946  0.00  0.00    -0.062 A 
ATOM     14  C   UNL     1      84.583  54.196  48.162  0.00  0.00    -0.062 A 
ATOM     15  C   UNL     1      83.538  54.976  47.660  0.00  0.00    -0.062 A 
ATOM     16  C   UNL     1      83.816  56.141  46.938  0.00  0.00    -0.059 A 
ENDBRANCH  10  11
ENDBRANCH   9  10
ENDBRANCH   1   9
TORSDOF 8
ENDMDL
MODEL 7
REMARK VINA RESULT:    -5.306      2.952      5.021
REMARK INTER + INTRA:          -9.282
REMARK INTER:                  -8.241
REMARK INTRA:                  -1.041
REMARK UNBOUND:                -1.494
REMARK  Name = 
REMARK  9 active torsions:
REMARK  status: ('A' for Active; 'I' for Inactive)
REMARK    1  A    between atoms: C_1  and  O_2
REMARK    2  A    between atoms: O_2  and  C_3
REMARK    3  A    between atoms: C_3  and  C_5
REMARK    4  A    between atoms: C_5  and  C_6
REMARK    5  A    between atoms: C_6  and  C_7
REMARK    6  A    between atoms: C_7  and  C_8
REMARK    7  A    between atoms: C_8  and  C_9
REMARK    8  A    between atoms: C_9  and  C_10
REMARK    9  A    between atoms: C_10  and  C_11
REMARK                            x       y       z     vdW  Elec       q    Type
REMARK                         _______ _______ _______ _____ _____    ______ ____
ROOT
ATOM      1  C   UNL     1      85.331  56.831  43.520  0.00  0.00    -0.053 C 
ENDROOT
BRANCH   1   2
ATOM      2  C   UNL     1      84.175  55.908  43.103  0.00  0.00    -0.053 C 
BRANCH   2   3
ATOM      3  C   UNL     1      84.543  54.420  43.187  0.00  0.00    -0.043 C 
BRANCH   3   4
ATOM      4  C   UNL     1      85.526  54.035  42.078  0.00  0.00    +0.045 C 
BRANCH   4   5
ATOM      5  C   UNL     1      84.789  53.685  40.824  0.00  0.00    +0.307 C 
ATOM      6  O   UNL     1      83.786  52.922  40.879  0.00  0.00    -0.251 OA
BRANCH   5   8
ATOM      7  C   UNL     1      84.475  55.046  38.784  0.00  0.00    +0.082 C 
ATOM      8  O   UNL     1      85.248  54.172  39.597  0.00  0.00    -0.468 OA
ENDBRANCH   5   8
ENDBRANCH   4   5
ENDBRANCH   3   4
ENDBRANCH   2   3
ENDBRANCH   1   2
BRANCH   1   9
ATOM      9  C   UNL     1      84.884  57.939  44.488  0.00  0.00    -0.049 C 
BRANCH   9  10
ATOM     10  C   UNL     1      85.556  57.818  45.863  0.00  0.00    -0.028 C 
BRANCH  10  11
ATOM     11  C   UNL     1      85.238  56.507  46.536  0.00  0.00    -0.047 A 
ATOM     12  C   UNL     1      86.254  55.563  46.761  0.00  0.00    -0.059 A 
ATOM     13  C   UNL     1      85.965  54.356  47.405  0.00  0.00    -0.062 A 
ATOM     14  C   UNL     1      84.662  54.084  47.832  0.00  0.00    -0.062 A 
ATOM     15  C   UNL     1      83.647  55.020  47.618  0.00  0.00    -0.062 A 
ATOM     16  C   UNL     1      83.932  56.229  46.973  0.00  0.00    -0.059 A 
ENDBRANCH  10  11
ENDBRANCH   9  10
ENDBRANCH   1   9
TORSDOF 8
ENDMDL
MODEL 8
REMARK VINA RESULT:    -5.276      5.559      6.869
REMARK INTER + INTRA:          -9.238
REMARK INTER:                  -7.744
REMARK INTRA:                  -1.494
REMARK UNBOUND:                -1.494
REMARK  Name = 
REMARK  9 active torsions:
REMARK  status: ('A' for Active; 'I' for Inactive)
REMARK    1  A    between atoms: C_1  and  O_2
REMARK    2  A    between atoms: O_2  and  C_3
REMARK    3  A    between atoms: C_3  and  C_5
REMARK    4  A    between atoms: C_5  and  C_6
REMARK    5  A    between atoms: C_6  and  C_7
REMARK    6  A    between atoms: C_7  and  C_8
REMARK    7  A    between atoms: C_8  and  C_9
REMARK    8  A    between atoms: C_9  and  C_10
REMARK    9  A    between atoms: C_10  and  C_11
REMARK                            x       y       z     vdW  Elec       q    Type
REMARK                         _______ _______ _______ _____ _____    ______ ____
ROOT
ATOM      1  C   UNL     1      86.540  50.948  42.075  0.00  0.00    -0.053 C 
ENDROOT
BRANCH   1   2
ATOM      2  C   UNL     1      87.304  52.210  42.504  0.00  0.00    -0.053 C 
BRANCH   2   3
ATOM      3  C   UNL     1      88.741  52.247  41.965  0.00  0.00    -0.043 C 
BRANCH   3   4
ATOM      4  C   UNL     1      88.834  51.548  40.605  0.00  0.00    +0.045 C 
BRANCH   4   5
ATOM      5  C   UNL     1      88.887  52.557  39.501  0.00  0.00    +0.307 C 
ATOM      6  O   UNL     1      87.822  53.097  39.095  0.00  0.00    -0.251 OA
BRANCH   5   8
ATOM      7  C   UNL     1      90.990  53.853  39.408  0.00  0.00    +0.082 C 
ATOM      8  O   UNL     1      90.112  52.856  38.900  0.00  0.00    -0.468 OA
ENDBRANCH   5   8
ENDBRANCH   4   5
ENDBRANCH   3   4
ENDBRANCH   2   3
ENDBRANCH   1   2
BRANCH   1   9
ATOM      9  C   UNL     1      86.174  50.045  43.265  0.00  0.00    -0.049 C 
BRANCH   9  10
ATOM     10  C   UNL     1      86.631  48.594  43.058  0.00  0.00    -0.028 C 
BRANCH  10  11
ATOM     11  C   UNL     1      88.101  48.503  42.733  0.00  0.00    -0.047 A 
ATOM     12  C   UNL     1      88.527  47.859  41.560  0.00  0.00    -0.059 A 
ATOM     13  C   UNL     1      89.889  47.792  41.247  0.00  0.00    -0.062 A 
ATOM     14  C   UNL     1      90.833  48.371  42.100  0.00  0.00    -0.062 A 
ATOM     15  C   UNL     1      90.416  49.019  43.266  0.00  0.00    -0.062 A 
ATOM     16  C   UNL     1      89.056  49.086  43.584  0.00  0.00    -0.059 A 
ENDBRANCH  10  11
ENDBRANCH   9  10
ENDBRANCH   1   9
TORSDOF 8
ENDMDL
MODEL 9
REMARK VINA RESULT:    -5.271      3.593      5.789
REMARK INTER + INTRA:          -9.230
REMARK INTER:                  -8.723
REMARK INTRA:                  -0.507
REMARK UNBOUND:                -1.494
REMARK  Name = 
REMARK  9 active torsions:
REMARK  status: ('A' for Active; 'I' for Inactive)
REMARK    1  A    between atoms: C_1  and  O_2
REMARK    2  A    between atoms: O_2  and  C_3
REMARK    3  A    between atoms: C_3  and  C_5
REMARK    4  A    between atoms: C_5  and  C_6
REMARK    5  A    between atoms: C_6  and  C_7
REMARK    6  A    between atoms: C_7  and  C_8
REMARK    7  A    between atoms: C_8  and  C_9
REMARK    8  A    between atoms: C_9  and  C_10
REMARK    9  A    between atoms: C_10  and  C_11
REMARK                            x       y       z     vdW  Elec       q    Type
REMARK                         _______ _______ _______ _____ _____    ______ ____
ROOT
ATOM      1  C   UNL     1      87.844  50.052  43.930  0.00  0.00    -0.053 C 
ENDROOT
BRANCH   1   2
ATOM      2  C   UNL     1      87.729  51.492  43.406  0.00  0.00    -0.053 C 
BRANCH   2   3
ATOM      3  C   UNL     1      88.741  51.802  42.295  0.00  0.00    -0.043 C 
BRANCH   3   4
ATOM      4  C   UNL     1      88.141  51.522  40.914  0.00  0.00    +0.045 C 
BRANCH   4   5
ATOM      5  C   UNL     1      88.889  52.271  39.856  0.00  0.00    +0.307 C 
ATOM      6  O   UNL     1      88.979  51.791  38.694  0.00  0.00    -0.251 OA
BRANCH   5   8
ATOM      7  C   UNL     1      90.764  53.866  39.613  0.00  0.00    +0.082 C 
ATOM      8  O   UNL     1      89.520  53.475  40.182  0.00  0.00    -0.468 OA
ENDBRANCH   5   8
ENDBRANCH   4   5
ENDBRANCH   3   4
ENDBRANCH   2   3
ENDBRANCH   1   2
BRANCH   1   9
ATOM      9  C   UNL     1      87.034  49.826  45.219  0.00  0.00    -0.049 C 
BRANCH   9  10
ATOM     10  C   UNL     1      87.729  50.415  46.455  0.00  0.00    -0.028 C 
BRANCH  10  11
ATOM     11  C   UNL     1      86.875  51.444  47.150  0.00  0.00    -0.047 A 
ATOM     12  C   UNL     1      86.506  52.624  46.481  0.00  0.00    -0.059 A 
ATOM     13  C   UNL     1      85.696  53.570  47.117  0.00  0.00    -0.062 A 
ATOM     14  C   UNL     1      85.246  53.345  48.421  0.00  0.00    -0.062 A 
ATOM     15  C   UNL     1      85.604  52.171  49.090  0.00  0.00    -0.062 A 
ATOM     16  C   UNL     1      86.415  51.223  48.459  0.00  0.00    -0.059 A 
ENDBRANCH  10  11
ENDBRANCH   9  10
ENDBRANCH   1   9
TORSDOF 8
ENDMDL
