MODEL 1
REMARK VINA RESULT:    -6.584      0.000      0.000
REMARK INTER + INTRA:         -11.678
REMARK INTER:                 -10.386
REMARK INTRA:                  -1.292
REMARK UNBOUND:                -1.245
REMARK  Name = 
REMARK  16 active torsions:
REMARK  status: ('A' for Active; 'I' for Inactive)
REMARK    1  A    between atoms: C_1  and  O_2
REMARK    2  A    between atoms: O_2  and  C_3
REMARK    3  A    between atoms: C_3  and  C_5
REMARK    4  A    between atoms: C_6  and  C_7
REMARK    5  A    between atoms: C_6  and  C_20
REMARK    6  A    between atoms: C_7  and  C_8
REMARK    7  A    between atoms: C_8  and  C_9
REMARK    8  A    between atoms: C_10  and  C_11
REMARK    9  A    between atoms: C_10  and  C_19
REMARK   10  A    between atoms: C_11  and  C_12
REMARK   11  A    between atoms: C_12  and  C_13
REMARK   12  A    between atoms: C_13  and  C_14
REMARK   13  A    between atoms: C_13  and  O_18
REMARK   14  A    between atoms: C_14  and  O_15
REMARK   15  A    between atoms: C_14  and  C_16
REMARK   16  A    between atoms: C_14  and  C_17
REMARK                            x       y       z     vdW  Elec       q    Type
REMARK                         _______ _______ _______ _____ _____    ______ ____
ROOT
ATOM      1  C   UNL     1      86.671  53.012  45.843  0.00  0.00    -0.085 C 
ATOM      2  C   UNL     1      86.077  52.575  44.709  0.00  0.00    -0.076 C 
ATOM      3  C   UNL     1      84.616  52.835  44.425  0.00  0.00    -0.044 C 
ENDROOT
BRANCH   1   4
ATOM      4  C   UNL     1      85.976  53.813  46.915  0.00  0.00    -0.031 C 
BRANCH   4   5
ATOM      5  C   UNL     1      86.471  55.264  46.916  0.00  0.00    -0.028 C 
BRANCH   5   7
ATOM      6  C   UNL     1      85.999  56.414  44.790  0.00  0.00    +0.021 C 
ATOM      7  C   UNL     1      85.591  56.133  46.047  0.00  0.00    -0.066 C 
ATOM      8  C   UNL     1      84.297  56.653  46.619  0.00  0.00    -0.043 C 
BRANCH   6   9
ATOM      9  C   UNL     1      85.282  57.244  43.798  0.00  0.00    +0.332 C 
ATOM     10  O   UNL     1      85.583  58.453  43.603  0.00  0.00    -0.246 OA
BRANCH   9  12
ATOM     11  C   UNL     1      84.484  55.679  42.054  0.00  0.00    +0.082 C 
ATOM     12  O   UNL     1      84.249  56.654  43.064  0.00  0.00    -0.465 OA
ENDBRANCH   9  12
ENDBRANCH   6   9
ENDBRANCH   5   7
ENDBRANCH   4   5
ENDBRANCH   1   4
BRANCH   2  13
ATOM     13  C   UNL     1      86.902  51.809  43.693  0.00  0.00    -0.030 C 
BRANCH  13  14
ATOM     14  C   UNL     1      87.520  52.727  42.624  0.00  0.00    -0.020 C 
BRANCH  14  15
ATOM     15  C   UNL     1      87.322  52.195  41.183  0.00  0.00    +0.084 C 
BRANCH  15  16
ATOM     16  C   UNL     1      88.669  51.801  40.496  0.00  0.00    +0.086 C 
ATOM     17  C   UNL     1      89.165  50.422  40.973  0.00  0.00    -0.034 C 
ATOM     18  C   UNL     1      89.751  52.853  40.823  0.00  0.00    -0.034 C 
BRANCH  16  19
ATOM     19  O   UNL     1      88.504  51.739  39.098  0.00  0.00    -0.387 OA
ATOM     20  H   UNL     1      87.757  51.155  38.887  0.00  0.00    +0.000 HD
ENDBRANCH  16  19
ENDBRANCH  15  16
BRANCH  15  21
ATOM     21  O   UNL     1      86.658  53.166  40.410  0.00  0.00    -0.389 OA
ATOM     22  H   UNL     1      87.089  53.240  39.545  0.00  0.00    +0.000 HD
ENDBRANCH  15  21
ENDBRANCH  14  15
ENDBRANCH  13  14
ENDBRANCH   2  13
TORSDOF 11
ENDMDL
MODEL 2
REMARK VINA RESULT:    -6.459      1.447      5.872
REMARK INTER + INTRA:         -11.480
REMARK INTER:                 -10.135
REMARK INTRA:                  -1.344
REMARK UNBOUND:                -1.245
REMARK  Name = 
REMARK  16 active torsions:
REMARK  status: ('A' for Active; 'I' for Inactive)
REMARK    1  A    between atoms: C_1  and  O_2
REMARK    2  A    between atoms: O_2  and  C_3
REMARK    3  A    between atoms: C_3  and  C_5
REMARK    4  A    between atoms: C_6  and  C_7
REMARK    5  A    between atoms: C_6  and  C_20
REMARK    6  A    between atoms: C_7  and  C_8
REMARK    7  A    between atoms: C_8  and  C_9
REMARK    8  A    between atoms: C_10  and  C_11
REMARK    9  A    between atoms: C_10  and  C_19
REMARK   10  A    between atoms: C_11  and  C_12
REMARK   11  A    between atoms: C_12  and  C_13
REMARK   12  A    between atoms: C_13  and  C_14
REMARK   13  A    between atoms: C_13  and  O_18
REMARK   14  A    between atoms: C_14  and  O_15
REMARK   15  A    between atoms: C_14  and  C_16
REMARK   16  A    between atoms: C_14  and  C_17
REMARK                            x       y       z     vdW  Elec       q    Type
REMARK                         _______ _______ _______ _____ _____    ______ ____
ROOT
ATOM      1  C   UNL     1      84.873  53.563  46.270  0.00  0.00    -0.085 C 
ATOM      2  C   UNL     1      84.785  54.260  47.426  0.00  0.00    -0.076 C 
ATOM      3  C   UNL     1      85.279  53.693  48.737  0.00  0.00    -0.044 C 
ENDROOT
BRANCH   1   4
ATOM      4  C   UNL     1      85.482  52.189  46.147  0.00  0.00    -0.031 C 
BRANCH   4   5
ATOM      5  C   UNL     1      87.000  52.283  45.958  0.00  0.00    -0.028 C 
BRANCH   5   7
ATOM      6  C   UNL     1      87.202  52.939  43.593  0.00  0.00    +0.021 C 
ATOM      7  C   UNL     1      87.384  51.981  44.527  0.00  0.00    -0.066 C 
ATOM      8  C   UNL     1      87.951  50.622  44.202  0.00  0.00    -0.043 C 
BRANCH   6   9
ATOM      9  C   UNL     1      87.511  52.831  42.151  0.00  0.00    +0.332 C 
ATOM     10  O   UNL     1      86.744  52.229  41.351  0.00  0.00    -0.246 OA
BRANCH   9  12
ATOM     11  C   UNL     1      89.708  52.679  41.021  0.00  0.00    +0.082 C 
ATOM     12  O   UNL     1      88.687  53.421  41.680  0.00  0.00    -0.465 OA
ENDBRANCH   9  12
ENDBRANCH   6   9
ENDBRANCH   5   7
ENDBRANCH   4   5
ENDBRANCH   1   4
BRANCH   2  13
ATOM     13  C   UNL     1      84.182  55.650  47.405  0.00  0.00    -0.030 C 
BRANCH  13  14
ATOM     14  C   UNL     1      85.113  56.687  46.751  0.00  0.00    -0.020 C 
BRANCH  14  15
ATOM     15  C   UNL     1      84.524  57.297  45.455  0.00  0.00    +0.084 C 
BRANCH  15  16
ATOM     16  C   UNL     1      85.439  57.065  44.210  0.00  0.00    +0.086 C 
ATOM     17  C   UNL     1      84.771  56.127  43.185  0.00  0.00    -0.034 C 
ATOM     18  C   UNL     1      86.777  56.437  44.653  0.00  0.00    -0.034 C 
BRANCH  16  19
ATOM     19  O   UNL     1      85.702  58.290  43.564  0.00  0.00    -0.387 OA
ATOM     20  H   UNL     1      85.818  58.135  42.613  0.00  0.00    +0.000 HD
ENDBRANCH  16  19
ENDBRANCH  15  16
BRANCH  15  21
ATOM     21  O   UNL     1      84.309  58.676  45.639  0.00  0.00    -0.389 OA
ATOM     22  H   UNL     1      85.162  59.135  45.666  0.00  0.00    +0.000 HD
ENDBRANCH  15  21
ENDBRANCH  14  15
ENDBRANCH  13  14
ENDBRANCH   2  13
TORSDOF 11
ENDMDL
MODEL 3
REMARK VINA RESULT:    -6.399      2.842      6.593
REMARK INTER + INTRA:         -11.385
REMARK INTER:                 -10.358
REMARK INTRA:                  -1.027
REMARK UNBOUND:                -1.245
REMARK  Name = 
REMARK  16 active torsions:
REMARK  status: ('A' for Active; 'I' for Inactive)
REMARK    1  A    between atoms: C_1  and  O_2
REMARK    2  A    between atoms: O_2  and  C_3
REMARK    3  A    between atoms: C_3  and  C_5
REMARK    4  A    between atoms: C_6  and  C_7
REMARK    5  A    between atoms: C_6  and  C_20
REMARK    6  A    between atoms: C_7  and  C_8
REMARK    7  A    between atoms: C_8  and  C_9
REMARK    8  A    between atoms: C_10  and  C_11
REMARK    9  A    between atoms: C_10  and  C_19
REMARK   10  A    between atoms: C_11  and  C_12
REMARK   11  A    between atoms: C_12  and  C_13
REMARK   12  A    between atoms: C_13  and  C_14
REMARK   13  A    between atoms: C_13  and  O_18
REMARK   14  A    between atoms: C_14  and  O_15
REMARK   15  A    between atoms: C_14  and  C_16
REMARK   16  A    between atoms: C_14  and  C_17
REMARK                            x       y       z     vdW  Elec       q    Type
REMARK                         _______ _______ _______ _____ _____    ______ ____
ROOT
ATOM      1  C   UNL     1      84.635  53.982  46.431  0.00  0.00    -0.085 C 
ATOM      2  C   UNL     1      84.370  54.718  47.535  0.00  0.00    -0.076 C 
ATOM      3  C   UNL     1      84.556  54.159  48.927  0.00  0.00    -0.044 C 
ENDROOT
BRANCH   1   4
ATOM      4  C   UNL     1      85.160  52.568  46.455  0.00  0.00    -0.031 C 
BRANCH   4   5
ATOM      5  C   UNL     1      86.682  52.556  46.639  0.00  0.00    -0.028 C 
BRANCH   5   7
ATOM      6  C   UNL     1      87.257  50.950  44.862  0.00  0.00    +0.021 C 
ATOM      7  C   UNL     1      87.269  51.240  46.182  0.00  0.00    -0.066 C 
ATOM      8  C   UNL     1      87.840  50.305  47.217  0.00  0.00    -0.043 C 
BRANCH   6   9
ATOM      9  C   UNL     1      87.778  49.720  44.228  0.00  0.00    +0.332 C 
ATOM     10  O   UNL     1      88.898  49.696  43.650  0.00  0.00    -0.246 OA
BRANCH   9  12
ATOM     11  C   UNL     1      85.625  48.544  43.897  0.00  0.00    +0.082 C 
ATOM     12  O   UNL     1      86.995  48.564  44.284  0.00  0.00    -0.465 OA
ENDBRANCH   9  12
ENDBRANCH   6   9
ENDBRANCH   5   7
ENDBRANCH   4   5
ENDBRANCH   1   4
BRANCH   2  13
ATOM     13  C   UNL     1      83.880  56.142  47.371  0.00  0.00    -0.030 C 
BRANCH  13  14
ATOM     14  C   UNL     1      84.902  57.037  46.647  0.00  0.00    -0.020 C 
BRANCH  14  15
ATOM     15  C   UNL     1      84.380  57.578  45.293  0.00  0.00    +0.084 C 
BRANCH  15  16
ATOM     16  C   UNL     1      85.329  57.233  44.100  0.00  0.00    +0.086 C 
ATOM     17  C   UNL     1      84.630  56.330  43.065  0.00  0.00    -0.034 C 
ATOM     18  C   UNL     1      86.583  56.502  44.623  0.00  0.00    -0.034 C 
BRANCH  16  19
ATOM     19  O   UNL     1      85.730  58.412  43.440  0.00  0.00    -0.387 OA
ATOM     20  H   UNL     1      85.919  58.213  42.509  0.00  0.00    +0.000 HD
ENDBRANCH  16  19
ENDBRANCH  15  16
BRANCH  15  21
ATOM     21  O   UNL     1      84.208  58.972  45.378  0.00  0.00    -0.389 OA
ATOM     22  H   UNL     1      84.885  59.414  44.843  0.00  0.00    +0.000 HD
ENDBRANCH  15  21
ENDBRANCH  14  15
ENDBRANCH  13  14
ENDBRANCH   2  13
TORSDOF 11
ENDMDL
MODEL 4
REMARK VINA RESULT:    -6.399      2.315      6.653
REMARK INTER + INTRA:         -11.385
REMARK INTER:                 -10.221
REMARK INTRA:                  -1.164
REMARK UNBOUND:                -1.245
REMARK  Name = 
REMARK  16 active torsions:
REMARK  status: ('A' for Active; 'I' for Inactive)
REMARK    1  A    between atoms: C_1  and  O_2
REMARK    2  A    between atoms: O_2  and  C_3
REMARK    3  A    between atoms: C_3  and  C_5
REMARK    4  A    between atoms: C_6  and  C_7
REMARK    5  A    between atoms: C_6  and  C_20
REMARK    6  A    between atoms: C_7  and  C_8
REMARK    7  A    between atoms: C_8  and  C_9
REMARK    8  A    between atoms: C_10  and  C_11
REMARK    9  A    between atoms: C_10  and  C_19
REMARK   10  A    between atoms: C_11  and  C_12
REMARK   11  A    between atoms: C_12  and  C_13
REMARK   12  A    between atoms: C_13  and  C_14
REMARK   13  A    between atoms: C_13  and  O_18
REMARK   14  A    between atoms: C_14  and  O_15
REMARK   15  A    between atoms: C_14  and  C_16
REMARK   16  A    between atoms: C_14  and  C_17
REMARK                            x       y       z     vdW  Elec       q    Type
REMARK                         _______ _______ _______ _____ _____    ______ ____
ROOT
ATOM      1  C   UNL     1      85.037  53.529  46.377  0.00  0.00    -0.085 C 
ATOM      2  C   UNL     1      84.887  54.305  47.474  0.00  0.00    -0.076 C 
ATOM      3  C   UNL     1      85.369  53.861  48.836  0.00  0.00    -0.044 C 
ENDROOT
BRANCH   1   4
ATOM      4  C   UNL     1      85.710  52.179  46.374  0.00  0.00    -0.031 C 
BRANCH   4   5
ATOM      5  C   UNL     1      87.194  52.312  46.018  0.00  0.00    -0.028 C 
BRANCH   5   7
ATOM      6  C   UNL     1      87.871  50.218  44.911  0.00  0.00    +0.021 C 
ATOM      7  C   UNL     1      87.524  51.517  44.775  0.00  0.00    -0.066 C 
ATOM      8  C   UNL     1      87.454  52.207  43.436  0.00  0.00    -0.043 C 
BRANCH   6   9
ATOM      9  C   UNL     1      88.229  49.286  43.821  0.00  0.00    +0.332 C 
ATOM     10  O   UNL     1      87.370  48.538  43.279  0.00  0.00    -0.246 OA
BRANCH   9  12
ATOM     11  C   UNL     1      89.960  49.683  42.097  0.00  0.00    +0.082 C 
ATOM     12  O   UNL     1      89.558  49.248  43.392  0.00  0.00    -0.465 OA
ENDBRANCH   9  12
ENDBRANCH   6   9
ENDBRANCH   5   7
ENDBRANCH   4   5
ENDBRANCH   1   4
BRANCH   2  13
ATOM     13  C   UNL     1      84.224  55.661  47.333  0.00  0.00    -0.030 C 
BRANCH  13  14
ATOM     14  C   UNL     1      85.122  56.684  46.615  0.00  0.00    -0.020 C 
BRANCH  14  15
ATOM     15  C   UNL     1      84.461  57.286  45.351  0.00  0.00    +0.084 C 
BRANCH  15  16
ATOM     16  C   UNL     1      85.335  57.102  44.068  0.00  0.00    +0.086 C 
ATOM     17  C   UNL     1      84.585  56.303  42.984  0.00  0.00    -0.034 C 
ATOM     18  C   UNL     1      86.634  56.349  44.423  0.00  0.00    -0.034 C 
BRANCH  16  19
ATOM     19  O   UNL     1      85.670  58.357  43.522  0.00  0.00    -0.387 OA
ATOM     20  H   UNL     1      86.060  58.233  42.642  0.00  0.00    +0.000 HD
ENDBRANCH  16  19
ENDBRANCH  15  16
BRANCH  15  21
ATOM     21  O   UNL     1      84.204  58.654  45.560  0.00  0.00    -0.389 OA
ATOM     22  H   UNL     1      84.797  58.993  46.248  0.00  0.00    +0.000 HD
ENDBRANCH  15  21
ENDBRANCH  14  15
ENDBRANCH  13  14
ENDBRANCH   2  13
TORSDOF 11
ENDMDL
MODEL 5
REMARK VINA RESULT:    -6.101      1.588      5.943
REMARK INTER + INTRA:         -10.912
REMARK INTER:                  -9.933
REMARK INTRA:                  -0.979
REMARK UNBOUND:                -1.245
REMARK  Name = 
REMARK  16 active torsions:
REMARK  status: ('A' for Active; 'I' for Inactive)
REMARK    1  A    between atoms: C_1  and  O_2
REMARK    2  A    between atoms: O_2  and  C_3
REMARK    3  A    between atoms: C_3  and  C_5
REMARK    4  A    between atoms: C_6  and  C_7
REMARK    5  A    between atoms: C_6  and  C_20
REMARK    6  A    between atoms: C_7  and  C_8
REMARK    7  A    between atoms: C_8  and  C_9
REMARK    8  A    between atoms: C_10  and  C_11
REMARK    9  A    between atoms: C_10  and  C_19
REMARK   10  A    between atoms: C_11  and  C_12
REMARK   11  A    between atoms: C_12  and  C_13
REMARK   12  A    between atoms: C_13  and  C_14
REMARK   13  A    between atoms: C_13  and  O_18
REMARK   14  A    between atoms: C_14  and  O_15
REMARK   15  A    between atoms: C_14  and  C_16
REMARK   16  A    between atoms: C_14  and  C_17
REMARK                            x       y       z     vdW  Elec       q    Type
REMARK                         _______ _______ _______ _____ _____    ______ ____
ROOT
ATOM      1  C   UNL     1      86.657  52.694  46.268  0.00  0.00    -0.085 C 
ATOM      2  C   UNL     1      86.144  53.459  47.259  0.00  0.00    -0.076 C 
ATOM      3  C   UNL     1      85.678  52.861  48.566  0.00  0.00    -0.044 C 
ENDROOT
BRANCH   1   4
ATOM      4  C   UNL     1      86.848  51.200  46.357  0.00  0.00    -0.031 C 
BRANCH   4   5
ATOM      5  C   UNL     1      87.812  50.711  45.270  0.00  0.00    -0.028 C 
BRANCH   5   7
ATOM      6  C   UNL     1      87.934  51.633  42.990  0.00  0.00    +0.021 C 
ATOM      7  C   UNL     1      87.224  50.922  43.894  0.00  0.00    -0.066 C 
ATOM      8  C   UNL     1      85.870  50.335  43.588  0.00  0.00    -0.043 C 
BRANCH   6   9
ATOM      9  C   UNL     1      87.526  51.947  41.604  0.00  0.00    +0.332 C 
ATOM     10  O   UNL     1      87.710  51.133  40.658  0.00  0.00    -0.246 OA
BRANCH   9  12
ATOM     11  C   UNL     1      85.512  53.331  41.212  0.00  0.00    +0.082 C 
ATOM     12  O   UNL     1      86.920  53.182  41.355  0.00  0.00    -0.465 OA
ENDBRANCH   9  12
ENDBRANCH   6   9
ENDBRANCH   5   7
ENDBRANCH   4   5
ENDBRANCH   1   4
BRANCH   2  13
ATOM     13  C   UNL     1      86.040  54.957  47.054  0.00  0.00    -0.030 C 
BRANCH  13  14
ATOM     14  C   UNL     1      85.621  55.328  45.620  0.00  0.00    -0.020 C 
BRANCH  14  15
ATOM     15  C   UNL     1      86.333  56.597  45.091  0.00  0.00    +0.084 C 
BRANCH  15  16
ATOM     16  C   UNL     1      85.334  57.651  44.512  0.00  0.00    +0.086 C 
ATOM     17  C   UNL     1      84.655  58.461  45.634  0.00  0.00    -0.034 C 
ATOM     18  C   UNL     1      84.240  56.939  43.689  0.00  0.00    -0.034 C 
BRANCH  16  19
ATOM     19  O   UNL     1      86.014  58.560  43.677  0.00  0.00    -0.387 OA
ATOM     20  H   UNL     1      86.556  59.154  44.220  0.00  0.00    +0.000 HD
ENDBRANCH  16  19
ENDBRANCH  15  16
BRANCH  15  21
ATOM     21  O   UNL     1      87.269  56.235  44.104  0.00  0.00    -0.389 OA
ATOM     22  H   UNL     1      87.039  55.365  43.744  0.00  0.00    +0.000 HD
ENDBRANCH  15  21
ENDBRANCH  14  15
ENDBRANCH  13  14
ENDBRANCH   2  13
TORSDOF 11
ENDMDL
MODEL 6
REMARK VINA RESULT:    -5.994      2.984      5.055
REMARK INTER + INTRA:         -10.742
REMARK INTER:                  -9.524
REMARK INTRA:                  -1.219
REMARK UNBOUND:                -1.245
REMARK  Name = 
REMARK  16 active torsions:
REMARK  status: ('A' for Active; 'I' for Inactive)
REMARK    1  A    between atoms: C_1  and  O_2
REMARK    2  A    between atoms: O_2  and  C_3
REMARK    3  A    between atoms: C_3  and  C_5
REMARK    4  A    between atoms: C_6  and  C_7
REMARK    5  A    between atoms: C_6  and  C_20
REMARK    6  A    between atoms: C_7  and  C_8
REMARK    7  A    between atoms: C_8  and  C_9
REMARK    8  A    between atoms: C_10  and  C_11
REMARK    9  A    between atoms: C_10  and  C_19
REMARK   10  A    between atoms: C_11  and  C_12
REMARK   11  A    between atoms: C_12  and  C_13
REMARK   12  A    between atoms: C_13  and  C_14
REMARK   13  A    between atoms: C_13  and  O_18
REMARK   14  A    between atoms: C_14  and  O_15
REMARK   15  A    between atoms: C_14  and  C_16
REMARK   16  A    between atoms: C_14  and  C_17
REMARK                            x       y       z     vdW  Elec       q    Type
REMARK                         _______ _______ _______ _____ _____    ______ ____
ROOT
ATOM      1  C   UNL     1      84.501  56.129  45.650  0.00  0.00    -0.085 C 
ATOM      2  C   UNL     1      84.686  57.209  44.858  0.00  0.00    -0.076 C 
ATOM      3  C   UNL     1      84.975  58.577  45.432  0.00  0.00    -0.044 C 
ENDROOT
BRANCH   1   4
ATOM      4  C   UNL     1      84.588  56.150  47.156  0.00  0.00    -0.031 C 
BRANCH   4   5
ATOM      5  C   UNL     1      85.827  55.390  47.640  0.00  0.00    -0.028 C 
BRANCH   5   7
ATOM      6  C   UNL     1      86.791  53.654  46.182  0.00  0.00    +0.021 C 
ATOM      7  C   UNL     1      85.844  53.982  47.088  0.00  0.00    -0.066 C 
ATOM      8  C   UNL     1      84.802  53.005  47.570  0.00  0.00    -0.043 C 
BRANCH   6   9
ATOM      9  C   UNL     1      86.965  52.337  45.531  0.00  0.00    +0.332 C 
ATOM     10  O   UNL     1      86.619  52.138  44.335  0.00  0.00    -0.246 OA
BRANCH   9  12
ATOM     11  C   UNL     1      87.268  49.927  46.007  0.00  0.00    +0.082 C 
ATOM     12  O   UNL     1      87.532  51.300  46.277  0.00  0.00    -0.465 OA
ENDBRANCH   9  12
ENDBRANCH   6   9
ENDBRANCH   5   7
ENDBRANCH   4   5
ENDBRANCH   1   4
BRANCH   2  13
ATOM     13  C   UNL     1      84.606  57.042  43.353  0.00  0.00    -0.030 C 
BRANCH  13  14
ATOM     14  C   UNL     1      83.916  55.730  42.942  0.00  0.00    -0.020 C 
BRANCH  14  15
ATOM     15  C   UNL     1      84.678  54.968  41.830  0.00  0.00    +0.084 C 
BRANCH  15  16
ATOM     16  C   UNL     1      83.811  53.856  41.158  0.00  0.00    +0.086 C 
ATOM     17  C   UNL     1      82.307  54.185  41.239  0.00  0.00    -0.034 C 
ATOM     18  C   UNL     1      84.056  52.504  41.862  0.00  0.00    -0.034 C 
BRANCH  16  19
ATOM     19  O   UNL     1      84.150  53.728  39.796  0.00  0.00    -0.387 OA
ATOM     20  H   UNL     1      84.263  52.789  39.578  0.00  0.00    +0.000 HD
ENDBRANCH  16  19
ENDBRANCH  15  16
BRANCH  15  21
ATOM     21  O   UNL     1      85.850  54.401  42.365  0.00  0.00    -0.389 OA
ATOM     22  H   UNL     1      86.192  53.730  41.755  0.00  0.00    +0.000 HD
ENDBRANCH  15  21
ENDBRANCH  14  15
ENDBRANCH  13  14
ENDBRANCH   2  13
TORSDOF 11
ENDMDL
MODEL 7
REMARK VINA RESULT:    -5.904      1.823      3.428
REMARK INTER + INTRA:         -10.601
REMARK INTER:                  -9.356
REMARK INTRA:                  -1.245
REMARK UNBOUND:                -1.245
REMARK  Name = 
REMARK  16 active torsions:
REMARK  status: ('A' for Active; 'I' for Inactive)
REMARK    1  A    between atoms: C_1  and  O_2
REMARK    2  A    between atoms: O_2  and  C_3
REMARK    3  A    between atoms: C_3  and  C_5
REMARK    4  A    between atoms: C_6  and  C_7
REMARK    5  A    between atoms: C_6  and  C_20
REMARK    6  A    between atoms: C_7  and  C_8
REMARK    7  A    between atoms: C_8  and  C_9
REMARK    8  A    between atoms: C_10  and  C_11
REMARK    9  A    between atoms: C_10  and  C_19
REMARK   10  A    between atoms: C_11  and  C_12
REMARK   11  A    between atoms: C_12  and  C_13
REMARK   12  A    between atoms: C_13  and  C_14
REMARK   13  A    between atoms: C_13  and  O_18
REMARK   14  A    between atoms: C_14  and  O_15
REMARK   15  A    between atoms: C_14  and  C_16
REMARK   16  A    between atoms: C_14  and  C_17
REMARK                            x       y       z     vdW  Elec       q    Type
REMARK                         _______ _______ _______ _____ _____    ______ ____
ROOT
ATOM      1  C   UNL     1      83.565  52.350  41.871  0.00  0.00    -0.085 C 
ATOM      2  C   UNL     1      84.440  51.951  42.823  0.00  0.00    -0.076 C 
ATOM      3  C   UNL     1      84.114  52.049  44.295  0.00  0.00    -0.044 C 
ENDROOT
BRANCH   1   4
ATOM      4  C   UNL     1      82.188  52.897  42.155  0.00  0.00    -0.031 C 
BRANCH   4   5
ATOM      5  C   UNL     1      81.995  54.259  41.479  0.00  0.00    -0.028 C 
BRANCH   5   7
ATOM      6  C   UNL     1      83.663  55.555  42.746  0.00  0.00    +0.021 C 
ATOM      7  C   UNL     1      83.264  55.078  41.547  0.00  0.00    -0.066 C 
ATOM      8  C   UNL     1      84.030  55.330  40.272  0.00  0.00    -0.043 C 
BRANCH   6   9
ATOM      9  C   UNL     1      84.867  56.373  43.010  0.00  0.00    +0.332 C 
ATOM     10  O   UNL     1      84.798  57.622  43.169  0.00  0.00    -0.246 OA
BRANCH   9  12
ATOM     11  C   UNL     1      86.480  54.915  44.193  0.00  0.00    +0.082 C 
ATOM     12  O   UNL     1      86.103  55.726  43.085  0.00  0.00    -0.465 OA
ENDBRANCH   9  12
ENDBRANCH   6   9
ENDBRANCH   5   7
ENDBRANCH   4   5
ENDBRANCH   1   4
BRANCH   2  13
ATOM     13  C   UNL     1      85.780  51.384  42.400  0.00  0.00    -0.030 C 
BRANCH  13  14
ATOM     14  C   UNL     1      86.447  52.215  41.290  0.00  0.00    -0.020 C 
BRANCH  14  15
ATOM     15  C   UNL     1      87.917  52.582  41.609  0.00  0.00    +0.084 C 
BRANCH  15  16
ATOM     16  C   UNL     1      88.920  52.040  40.540  0.00  0.00    +0.086 C 
ATOM     17  C   UNL     1      89.414  50.624  40.895  0.00  0.00    -0.034 C 
ATOM     18  C   UNL     1      90.143  52.978  40.448  0.00  0.00    -0.034 C 
BRANCH  16  19
ATOM     19  O   UNL     1      88.299  51.976  39.277  0.00  0.00    -0.387 OA
ATOM     20  H   UNL     1      87.413  52.366  39.333  0.00  0.00    +0.000 HD
ENDBRANCH  16  19
ENDBRANCH  15  16
BRANCH  15  21
ATOM     21  O   UNL     1      88.261  52.085  42.880  0.00  0.00    -0.389 OA
ATOM     22  H   UNL     1      88.904  52.679  43.297  0.00  0.00    +0.000 HD
ENDBRANCH  15  21
ENDBRANCH  14  15
ENDBRANCH  13  14
ENDBRANCH   2  13
TORSDOF 11
ENDMDL
MODEL 8
REMARK VINA RESULT:    -5.896     15.523     18.080
REMARK INTER + INTRA:         -10.588
REMARK INTER:                  -9.421
REMARK INTRA:                  -1.167
REMARK UNBOUND:                -1.245
REMARK  Name = 
REMARK  16 active torsions:
REMARK  status: ('A' for Active; 'I' for Inactive)
REMARK    1  A    between atoms: C_1  and  O_2
REMARK    2  A    between atoms: O_2  and  C_3
REMARK    3  A    between atoms: C_3  and  C_5
REMARK    4  A    between atoms: C_6  and  C_7
REMARK    5  A    between atoms: C_6  and  C_20
REMARK    6  A    between atoms: C_7  and  C_8
REMARK    7  A    between atoms: C_8  and  C_9
REMARK    8  A    between atoms: C_10  and  C_11
REMARK    9  A    between atoms: C_10  and  C_19
REMARK   10  A    between atoms: C_11  and  C_12
REMARK   11  A    between atoms: C_12  and  C_13
REMARK   12  A    between atoms: C_13  and  C_14
REMARK   13  A    between atoms: C_13  and  O_18
REMARK   14  A    between atoms: C_14  and  O_15
REMARK   15  A    between atoms: C_14  and  C_16
REMARK   16  A    between atoms: C_14  and  C_17
REMARK                            x       y       z     vdW  Elec       q    Type
REMARK                         _______ _______ _______ _____ _____    ______ ____
ROOT
ATOM      1  C   UNL     1      77.108  46.038  33.177  0.00  0.00    -0.085 C 
ATOM      2  C   UNL     1      77.632  46.526  34.324  0.00  0.00    -0.076 C 
ATOM      3  C   UNL     1      78.767  45.831  35.039  0.00  0.00    -0.044 C 
ENDROOT
BRANCH   1   4
ATOM      4  C   UNL     1      77.598  44.795  32.477  0.00  0.00    -0.031 C 
BRANCH   4   5
ATOM      5  C   UNL     1      76.456  43.789  32.291  0.00  0.00    -0.028 C 
BRANCH   5   7
ATOM      6  C   UNL     1      75.560  41.807  33.446  0.00  0.00    +0.021 C 
ATOM      7  C   UNL     1      76.625  42.606  33.217  0.00  0.00    -0.066 C 
ATOM      8  C   UNL     1      77.974  42.368  33.846  0.00  0.00    -0.043 C 
BRANCH   6   9
ATOM      9  C   UNL     1      75.529  40.613  34.317  0.00  0.00    +0.332 C 
ATOM     10  O   UNL     1      75.590  40.706  35.573  0.00  0.00    -0.246 OA
BRANCH   9  12
ATOM     11  C   UNL     1      75.295  39.188  32.307  0.00  0.00    +0.082 C 
ATOM     12  O   UNL     1      75.426  39.356  33.714  0.00  0.00    -0.465 OA
ENDBRANCH   9  12
ENDBRANCH   6   9
ENDBRANCH   5   7
ENDBRANCH   4   5
ENDBRANCH   1   4
BRANCH   2  13
ATOM     13  C   UNL     1      77.069  47.808  34.905  0.00  0.00    -0.030 C 
BRANCH  13  14
ATOM     14  C   UNL     1      76.784  48.868  33.826  0.00  0.00    -0.020 C 
BRANCH  14  15
ATOM     15  C   UNL     1      75.570  49.766  34.165  0.00  0.00    +0.084 C 
BRANCH  15  16
ATOM     16  C   UNL     1      74.256  49.296  33.460  0.00  0.00    +0.086 C 
ATOM     17  C   UNL     1      73.474  48.295  34.333  0.00  0.00    -0.034 C 
ATOM     18  C   UNL     1      74.598  48.616  32.118  0.00  0.00    -0.034 C 
BRANCH  16  19
ATOM     19  O   UNL     1      73.415  50.398  33.211  0.00  0.00    -0.387 OA
ATOM     20  H   UNL     1      73.683  51.142  33.774  0.00  0.00    +0.000 HD
ENDBRANCH  16  19
ENDBRANCH  15  16
BRANCH  15  21
ATOM     21  O   UNL     1      75.853  51.097  33.806  0.00  0.00    -0.389 OA
ATOM     22  H   UNL     1      75.103  51.663  34.045  0.00  0.00    +0.000 HD
ENDBRANCH  15  21
ENDBRANCH  14  15
ENDBRANCH  13  14
ENDBRANCH   2  13
TORSDOF 11
ENDMDL
MODEL 9
REMARK VINA RESULT:    -5.861      2.673      3.627
REMARK INTER + INTRA:         -10.532
REMARK INTER:                  -8.740
REMARK INTRA:                  -1.793
REMARK UNBOUND:                -1.245
REMARK  Name = 
REMARK  16 active torsions:
REMARK  status: ('A' for Active; 'I' for Inactive)
REMARK    1  A    between atoms: C_1  and  O_2
REMARK    2  A    between atoms: O_2  and  C_3
REMARK    3  A    between atoms: C_3  and  C_5
REMARK    4  A    between atoms: C_6  and  C_7
REMARK    5  A    between atoms: C_6  and  C_20
REMARK    6  A    between atoms: C_7  and  C_8
REMARK    7  A    between atoms: C_8  and  C_9
REMARK    8  A    between atoms: C_10  and  C_11
REMARK    9  A    between atoms: C_10  and  C_19
REMARK   10  A    between atoms: C_11  and  C_12
REMARK   11  A    between atoms: C_12  and  C_13
REMARK   12  A    between atoms: C_13  and  C_14
REMARK   13  A    between atoms: C_13  and  O_18
REMARK   14  A    between atoms: C_14  and  O_15
REMARK   15  A    between atoms: C_14  and  C_16
REMARK   16  A    between atoms: C_14  and  C_17
REMARK                            x       y       z     vdW  Elec       q    Type
REMARK                         _______ _______ _______ _____ _____    ______ ____
ROOT
ATOM      1  C   UNL     1      84.204  52.528  45.435  0.00  0.00    -0.085 C 
ATOM      2  C   UNL     1      84.532  51.719  44.402  0.00  0.00    -0.076 C 
ATOM      3  C   UNL     1      85.896  51.077  44.296  0.00  0.00    -0.044 C 
ENDROOT
BRANCH   1   4
ATOM      4  C   UNL     1      85.122  52.854  46.587  0.00  0.00    -0.031 C 
BRANCH   4   5
ATOM      5  C   UNL     1      84.557  54.009  47.421  0.00  0.00    -0.028 C 
BRANCH   5   7
ATOM      6  C   UNL     1      84.071  56.267  46.566  0.00  0.00    +0.021 C 
ATOM      7  C   UNL     1      85.008  55.343  46.870  0.00  0.00    -0.066 C 
ATOM      8  C   UNL     1      86.484  55.584  46.679  0.00  0.00    -0.043 C 
BRANCH   6   9
ATOM      9  C   UNL     1      84.315  57.618  46.017  0.00  0.00    +0.332 C 
ATOM     10  O   UNL     1      84.164  58.656  46.717  0.00  0.00    -0.246 OA
BRANCH   9  12
ATOM     11  C   UNL     1      85.955  58.337  44.308  0.00  0.00    +0.082 C 
ATOM     12  O   UNL     1      84.725  57.727  44.685  0.00  0.00    -0.465 OA
ENDBRANCH   9  12
ENDBRANCH   6   9
ENDBRANCH   5   7
ENDBRANCH   4   5
ENDBRANCH   1   4
BRANCH   2  13
ATOM     13  C   UNL     1      83.502  51.444  43.325  0.00  0.00    -0.030 C 
BRANCH  13  14
ATOM     14  C   UNL     1      83.119  52.710  42.539  0.00  0.00    -0.020 C 
BRANCH  14  15
ATOM     15  C   UNL     1      84.289  53.278  41.699  0.00  0.00    +0.084 C 
BRANCH  15  16
ATOM     16  C   UNL     1      84.648  54.750  42.083  0.00  0.00    +0.086 C 
ATOM     17  C   UNL     1      85.893  54.810  42.990  0.00  0.00    -0.034 C 
ATOM     18  C   UNL     1      83.464  55.400  42.830  0.00  0.00    -0.034 C 
BRANCH  16  19
ATOM     19  O   UNL     1      84.923  55.503  40.924  0.00  0.00    -0.387 OA
ATOM     20  H   UNL     1      85.866  55.426  40.706  0.00  0.00    +0.000 HD
ENDBRANCH  16  19
ENDBRANCH  15  16
BRANCH  15  21
ATOM     21  O   UNL     1      83.964  53.208  40.332  0.00  0.00    -0.389 OA
ATOM     22  H   UNL     1      84.586  52.616  39.882  0.00  0.00    +0.000 HD
ENDBRANCH  15  21
ENDBRANCH  14  15
ENDBRANCH  13  14
ENDBRANCH   2  13
TORSDOF 11
ENDMDL
