MODEL 1
REMARK VINA RESULT:    -9.136      0.000      0.000
REMARK INTER + INTRA:         -12.282
REMARK INTER:                 -11.445
REMARK INTRA:                  -0.837
REMARK UNBOUND:                -0.742
REMARK  Name = 
REMARK  11 active torsions:
REMARK  status: ('A' for Active; 'I' for Inactive)
REMARK    1  A    between atoms: C_1  and  O_2
REMARK    2  A    between atoms: O_2  and  C_3
REMARK    3  A    between atoms: C_5  and  C_6
REMARK    4  A    between atoms: C_8  and  C_30
REMARK    5  A    between atoms: C_12  and  O_29
REMARK    6  A    between atoms: C_13  and  C_14
REMARK    7  A    between atoms: C_15  and  C_16
REMARK    8  A    between atoms: C_18  and  O_27
REMARK    9  A    between atoms: C_24  and  O_25
REMARK   10  A    between atoms: O_25  and  C_26
REMARK   11  A    between atoms: O_27  and  C_28
REMARK                            x       y       z     vdW  Elec       q    Type
REMARK                         _______ _______ _______ _____ _____    ______ ____
ROOT
ATOM      1  C   UNL     1      84.869  53.230  45.129  0.00  0.00    +0.136 A 
ATOM      2  C   UNL     1      84.937  54.638  45.140  0.00  0.00    +0.015 A 
ATOM      3  C   UNL     1      84.784  55.430  46.416  0.00  0.00    +0.034 C 
ATOM      4  C   UNL     1      83.326  55.850  46.648  0.00  0.00    -0.045 C 
ATOM      5  N   UNL     1      85.705  56.579  46.418  0.00  0.00    -0.307 N 
ATOM      6  C   UNL     1      85.690  57.466  45.226  0.00  0.00    +0.009 C 
ATOM      7  C   UNL     1      85.065  56.838  43.951  0.00  0.00    -0.012 C 
ATOM      8  C   UNL     1      85.131  55.338  43.944  0.00  0.00    -0.034 A 
ATOM      9  C   UNL     1      85.241  54.640  42.735  0.00  0.00    -0.016 A 
ATOM     10  C   UNL     1      85.176  53.246  42.708  0.00  0.00    +0.128 A 
ATOM     11  C   UNL     1      85.001  52.528  43.911  0.00  0.00    +0.066 A 
ATOM     12  C   UNL     1      85.031  58.818  45.541  0.00  0.00    -0.049 C 
ATOM     13  H   UNL     1      86.653  56.214  46.515  0.00  0.00    +0.000 HD
ATOM     14  H   UNL     1      85.388  57.169  47.187  0.00  0.00    +0.000 HD
ENDROOT
BRANCH  11  15
ATOM     15  C   UNL     1      84.906  51.044  43.894  0.00  0.00    +0.000 A 
ATOM     16  C   UNL     1      86.049  50.278  44.203  0.00  0.00    -0.038 A 
ATOM     17  C   UNL     1      87.368  50.932  44.539  0.00  0.00    -0.039 C 
ATOM     18  C   UNL     1      85.974  48.882  44.182  0.00  0.00    -0.016 A 
ATOM     19  C   UNL     1      84.775  48.216  43.881  0.00  0.00    +0.132 A 
ATOM     20  C   UNL     1      83.612  48.970  43.578  0.00  0.00    +0.066 A 
ATOM     21  C   UNL     1      83.686  50.394  43.576  0.00  0.00    -0.003 A 
ATOM     22  C   UNL     1      82.536  51.142  43.245  0.00  0.00    -0.053 A 
ATOM     23  C   UNL     1      81.337  50.510  42.941  0.00  0.00    -0.058 A 
ATOM     24  C   UNL     1      81.253  49.123  42.954  0.00  0.00    -0.019 A 
ATOM     25  C   UNL     1      82.375  48.336  43.267  0.00  0.00    +0.131 A 
BRANCH  25  26
ATOM     26  O   UNL     1      82.282  46.933  43.273  0.00  0.00    -0.494 OA
ATOM     27  C   UNL     1      81.285  46.181  43.957  0.00  0.00    +0.079 C 
ENDBRANCH  25  26
BRANCH  19  28
ATOM     28  O   UNL     1      84.721  46.811  43.878  0.00  0.00    -0.494 OA
ATOM     29  C   UNL     1      85.818  45.945  43.603  0.00  0.00    +0.079 C 
ENDBRANCH  19  28
ENDBRANCH  11  15
BRANCH   1  31
ATOM     30  C   UNL     1      85.639  52.366  47.310  0.00  0.00    +0.079 C 
ATOM     31  O   UNL     1      84.629  52.541  46.324  0.00  0.00    -0.494 OA
ENDBRANCH   1  31
BRANCH  10  32
ATOM     32  O   UNL     1      85.268  52.603  41.472  0.00  0.00    -0.506 OA
ATOM     33  H   UNL     1      85.027  51.701  41.394  0.00  0.00    +0.000 HD
ENDBRANCH  10  32
TORSDOF 5
ENDMDL
MODEL 2
REMARK VINA RESULT:    -8.900      2.131      3.843
REMARK INTER + INTRA:         -11.984
REMARK INTER:                 -11.056
REMARK INTRA:                  -0.928
REMARK UNBOUND:                -0.742
REMARK  Name = 
REMARK  11 active torsions:
REMARK  status: ('A' for Active; 'I' for Inactive)
REMARK    1  A    between atoms: C_1  and  O_2
REMARK    2  A    between atoms: O_2  and  C_3
REMARK    3  A    between atoms: C_5  and  C_6
REMARK    4  A    between atoms: C_8  and  C_30
REMARK    5  A    between atoms: C_12  and  O_29
REMARK    6  A    between atoms: C_13  and  C_14
REMARK    7  A    between atoms: C_15  and  C_16
REMARK    8  A    between atoms: C_18  and  O_27
REMARK    9  A    between atoms: C_24  and  O_25
REMARK   10  A    between atoms: O_25  and  C_26
REMARK   11  A    between atoms: O_27  and  C_28
REMARK                            x       y       z     vdW  Elec       q    Type
REMARK                         _______ _______ _______ _____ _____    ______ ____
ROOT
ATOM      1  C   UNL     1      86.012  53.466  44.482  0.00  0.00    +0.136 A 
ATOM      2  C   UNL     1      85.646  54.819  44.627  0.00  0.00    +0.015 A 
ATOM      3  C   UNL     1      85.937  55.589  45.892  0.00  0.00    +0.034 C 
ATOM      4  C   UNL     1      84.757  55.532  46.873  0.00  0.00    -0.045 C 
ATOM      5  N   UNL     1      86.332  56.971  45.571  0.00  0.00    -0.307 N 
ATOM      6  C   UNL     1      85.441  57.739  44.664  0.00  0.00    +0.009 C 
ATOM      7  C   UNL     1      84.475  56.876  43.808  0.00  0.00    -0.012 C 
ATOM      8  C   UNL     1      84.978  55.478  43.589  0.00  0.00    -0.034 A 
ATOM      9  C   UNL     1      84.658  54.788  42.413  0.00  0.00    -0.016 A 
ATOM     10  C   UNL     1      85.013  53.447  42.255  0.00  0.00    +0.128 A 
ATOM     11  C   UNL     1      85.705  52.778  43.287  0.00  0.00    +0.066 A 
ATOM     12  C   UNL     1      84.665  58.824  45.427  0.00  0.00    -0.049 C 
ATOM     13  H   UNL     1      87.254  56.935  45.136  0.00  0.00    +0.000 HD
ATOM     14  H   UNL     1      86.292  57.469  46.461  0.00  0.00    +0.000 HD
ENDROOT
BRANCH  11  15
ATOM     15  C   UNL     1      86.069  51.343  43.141  0.00  0.00    +0.000 A 
ATOM     16  C   UNL     1      85.143  50.354  43.533  0.00  0.00    -0.038 A 
ATOM     17  C   UNL     1      83.796  50.722  44.109  0.00  0.00    -0.039 C 
ATOM     18  C   UNL     1      85.478  49.003  43.408  0.00  0.00    -0.016 A 
ATOM     19  C   UNL     1      86.713  48.600  42.875  0.00  0.00    +0.132 A 
ATOM     20  C   UNL     1      87.654  49.580  42.466  0.00  0.00    +0.066 A 
ATOM     21  C   UNL     1      87.328  50.961  42.611  0.00  0.00    -0.003 A 
ATOM     22  C   UNL     1      88.276  51.934  42.230  0.00  0.00    -0.053 A 
ATOM     23  C   UNL     1      89.506  51.563  41.703  0.00  0.00    -0.058 A 
ATOM     24  C   UNL     1      89.826  50.221  41.546  0.00  0.00    -0.019 A 
ATOM     25  C   UNL     1      88.918  49.215  41.921  0.00  0.00    +0.131 A 
BRANCH  25  26
ATOM     26  O   UNL     1      89.251  47.858  41.763  0.00  0.00    -0.494 OA
ATOM     27  C   UNL     1      90.398  47.226  42.323  0.00  0.00    +0.079 C 
ENDBRANCH  25  26
BRANCH  19  28
ATOM     28  O   UNL     1      87.023  47.233  42.747  0.00  0.00    -0.494 OA
ATOM     29  C   UNL     1      86.074  46.170  42.756  0.00  0.00    +0.079 C 
ENDBRANCH  19  28
ENDBRANCH  11  15
BRANCH   1  31
ATOM     30  C   UNL     1      85.900  52.192  46.594  0.00  0.00    +0.079 C 
ATOM     31  O   UNL     1      86.639  52.803  45.544  0.00  0.00    -0.494 OA
ENDBRANCH   1  31
BRANCH  10  32
ATOM     32  O   UNL     1      84.648  52.801  41.072  0.00  0.00    -0.506 OA
ATOM     33  H   UNL     1      85.084  53.011  40.270  0.00  0.00    +0.000 HD
ENDBRANCH  10  32
TORSDOF 5
ENDMDL
MODEL 3
REMARK VINA RESULT:    -8.862      2.816      7.793
REMARK INTER + INTRA:         -11.935
REMARK INTER:                 -10.877
REMARK INTRA:                  -1.059
REMARK UNBOUND:                -0.742
REMARK  Name = 
REMARK  11 active torsions:
REMARK  status: ('A' for Active; 'I' for Inactive)
REMARK    1  A    between atoms: C_1  and  O_2
REMARK    2  A    between atoms: O_2  and  C_3
REMARK    3  A    between atoms: C_5  and  C_6
REMARK    4  A    between atoms: C_8  and  C_30
REMARK    5  A    between atoms: C_12  and  O_29
REMARK    6  A    between atoms: C_13  and  C_14
REMARK    7  A    between atoms: C_15  and  C_16
REMARK    8  A    between atoms: C_18  and  O_27
REMARK    9  A    between atoms: C_24  and  O_25
REMARK   10  A    between atoms: O_25  and  C_26
REMARK   11  A    between atoms: O_27  and  C_28
REMARK                            x       y       z     vdW  Elec       q    Type
REMARK                         _______ _______ _______ _____ _____    ______ ____
ROOT
ATOM      1  C   UNL     1      85.329  48.926  43.821  0.00  0.00    +0.136 A 
ATOM      2  C   UNL     1      85.755  47.664  43.360  0.00  0.00    +0.015 A 
ATOM      3  C   UNL     1      84.841  46.463  43.376  0.00  0.00    +0.034 C 
ATOM      4  C   UNL     1      84.997  45.651  44.670  0.00  0.00    -0.045 C 
ATOM      5  N   UNL     1      85.052  45.643  42.172  0.00  0.00    -0.307 N 
ATOM      6  C   UNL     1      86.449  45.254  41.850  0.00  0.00    +0.009 C 
ATOM      7  C   UNL     1      87.543  46.120  42.531  0.00  0.00    -0.012 C 
ATOM      8  C   UNL     1      87.062  47.495  42.890  0.00  0.00    -0.034 A 
ATOM      9  C   UNL     1      87.952  48.577  42.893  0.00  0.00    -0.016 A 
ATOM     10  C   UNL     1      87.545  49.833  43.346  0.00  0.00    +0.128 A 
ATOM     11  C   UNL     1      86.222  50.020  43.804  0.00  0.00    +0.066 A 
ATOM     12  C   UNL     1      86.693  43.762  42.122  0.00  0.00    -0.049 C 
ATOM     13  H   UNL     1      84.689  46.166  41.375  0.00  0.00    +0.000 HD
ATOM     14  H   UNL     1      84.573  44.763  42.366  0.00  0.00    +0.000 HD
ENDROOT
BRANCH  11  15
ATOM     15  C   UNL     1      85.783  51.347  44.311  0.00  0.00    +0.000 A 
ATOM     16  C   UNL     1      85.264  52.294  43.403  0.00  0.00    -0.038 A 
ATOM     17  C   UNL     1      85.158  51.993  41.927  0.00  0.00    -0.039 C 
ATOM     18  C   UNL     1      84.856  53.548  43.868  0.00  0.00    -0.016 A 
ATOM     19  C   UNL     1      84.926  53.884  45.229  0.00  0.00    +0.132 A 
ATOM     20  C   UNL     1      85.435  52.941  46.159  0.00  0.00    +0.066 A 
ATOM     21  C   UNL     1      85.874  51.668  45.689  0.00  0.00    -0.003 A 
ATOM     22  C   UNL     1      86.407  50.742  46.611  0.00  0.00    -0.053 A 
ATOM     23  C   UNL     1      86.490  51.050  47.963  0.00  0.00    -0.058 A 
ATOM     24  C   UNL     1      86.052  52.282  48.431  0.00  0.00    -0.019 A 
ATOM     25  C   UNL     1      85.524  53.241  47.548  0.00  0.00    +0.131 A 
BRANCH  25  26
ATOM     26  O   UNL     1      85.087  54.488  48.029  0.00  0.00    -0.494 OA
ATOM     27  C   UNL     1      84.164  54.676  49.097  0.00  0.00    +0.079 C 
ENDBRANCH  25  26
BRANCH  19  28
ATOM     28  O   UNL     1      84.497  55.148  45.674  0.00  0.00    -0.494 OA
ATOM     29  C   UNL     1      84.496  56.339  44.893  0.00  0.00    +0.079 C 
ENDBRANCH  19  28
ENDBRANCH  11  15
BRANCH   1  31
ATOM     30  C   UNL     1      82.926  49.393  43.499  0.00  0.00    +0.079 C 
ATOM     31  O   UNL     1      84.034  49.074  44.332  0.00  0.00    -0.494 OA
ENDBRANCH   1  31
BRANCH  10  32
ATOM     32  O   UNL     1      88.480  50.871  43.349  0.00  0.00    -0.506 OA
ATOM     33  H   UNL     1      88.350  51.620  42.802  0.00  0.00    +0.000 HD
ENDBRANCH  10  32
TORSDOF 5
ENDMDL
MODEL 4
REMARK VINA RESULT:    -8.737      1.388      2.617
REMARK INTER + INTRA:         -11.778
REMARK INTER:                 -10.954
REMARK INTRA:                  -0.824
REMARK UNBOUND:                -0.742
REMARK  Name = 
REMARK  11 active torsions:
REMARK  status: ('A' for Active; 'I' for Inactive)
REMARK    1  A    between atoms: C_1  and  O_2
REMARK    2  A    between atoms: O_2  and  C_3
REMARK    3  A    between atoms: C_5  and  C_6
REMARK    4  A    between atoms: C_8  and  C_30
REMARK    5  A    between atoms: C_12  and  O_29
REMARK    6  A    between atoms: C_13  and  C_14
REMARK    7  A    between atoms: C_15  and  C_16
REMARK    8  A    between atoms: C_18  and  O_27
REMARK    9  A    between atoms: C_24  and  O_25
REMARK   10  A    between atoms: O_25  and  C_26
REMARK   11  A    between atoms: O_27  and  C_28
REMARK                            x       y       z     vdW  Elec       q    Type
REMARK                         _______ _______ _______ _____ _____    ______ ____
ROOT
ATOM      1  C   UNL     1      85.258  53.061  44.217  0.00  0.00    +0.136 A 
ATOM      2  C   UNL     1      85.104  54.333  44.803  0.00  0.00    +0.015 A 
ATOM      3  C   UNL     1      84.832  55.563  43.971  0.00  0.00    +0.034 C 
ATOM      4  C   UNL     1      86.131  56.286  43.589  0.00  0.00    -0.045 C 
ATOM      5  N   UNL     1      83.880  56.449  44.663  0.00  0.00    -0.307 N 
ATOM      6  C   UNL     1      84.186  56.807  46.072  0.00  0.00    +0.009 C 
ATOM      7  C   UNL     1      85.190  55.862  46.785  0.00  0.00    -0.012 C 
ATOM      8  C   UNL     1      85.222  54.484  46.190  0.00  0.00    -0.034 A 
ATOM      9  C   UNL     1      85.510  53.373  46.992  0.00  0.00    -0.016 A 
ATOM     10  C   UNL     1      85.666  52.107  46.427  0.00  0.00    +0.128 A 
ATOM     11  C   UNL     1      85.529  51.939  45.031  0.00  0.00    +0.066 A 
ATOM     12  C   UNL     1      84.640  58.270  46.193  0.00  0.00    -0.049 C 
ATOM     13  H   UNL     1      82.970  55.990  44.654  0.00  0.00    +0.000 HD
ATOM     14  H   UNL     1      83.925  57.331  44.153  0.00  0.00    +0.000 HD
ENDROOT
BRANCH  11  15
ATOM     15  C   UNL     1      85.715  50.599  44.414  0.00  0.00    +0.000 A 
ATOM     16  C   UNL     1      87.022  50.137  44.152  0.00  0.00    -0.038 A 
ATOM     17  C   UNL     1      88.234  50.979  44.475  0.00  0.00    -0.039 C 
ATOM     18  C   UNL     1      87.208  48.883  43.564  0.00  0.00    -0.016 A 
ATOM     19  C   UNL     1      86.121  48.053  43.245  0.00  0.00    +0.132 A 
ATOM     20  C   UNL     1      84.800  48.496  43.510  0.00  0.00    +0.066 A 
ATOM     21  C   UNL     1      84.601  49.784  44.090  0.00  0.00    -0.003 A 
ATOM     22  C   UNL     1      83.285  50.235  44.326  0.00  0.00    -0.053 A 
ATOM     23  C   UNL     1      82.191  49.436  44.018  0.00  0.00    -0.058 A 
ATOM     24  C   UNL     1      82.376  48.175  43.466  0.00  0.00    -0.019 A 
ATOM     25  C   UNL     1      83.669  47.687  43.203  0.00  0.00    +0.131 A 
BRANCH  25  26
ATOM     26  O   UNL     1      83.847  46.412  42.639  0.00  0.00    -0.494 OA
ATOM     27  C   UNL     1      83.670  45.179  43.330  0.00  0.00    +0.079 C 
ENDBRANCH  25  26
BRANCH  19  28
ATOM     28  O   UNL     1      86.334  46.789  42.665  0.00  0.00    -0.494 OA
ATOM     29  C   UNL     1      87.578  46.317  42.156  0.00  0.00    +0.079 C 
ENDBRANCH  19  28
ENDBRANCH  11  15
BRANCH   1  31
ATOM     30  C   UNL     1      86.333  53.035  41.995  0.00  0.00    +0.079 C 
ATOM     31  O   UNL     1      85.184  52.928  42.826  0.00  0.00    -0.494 OA
ENDBRANCH   1  31
BRANCH  10  32
ATOM     32  O   UNL     1      85.976  51.038  47.271  0.00  0.00    -0.506 OA
ATOM     33  H   UNL     1      86.862  50.896  47.541  0.00  0.00    +0.000 HD
ENDBRANCH  10  32
TORSDOF 5
ENDMDL
MODEL 5
REMARK VINA RESULT:    -8.615      2.167      3.022
REMARK INTER + INTRA:         -11.623
REMARK INTER:                 -10.670
REMARK INTRA:                  -0.954
REMARK UNBOUND:                -0.742
REMARK  Name = 
REMARK  11 active torsions:
REMARK  status: ('A' for Active; 'I' for Inactive)
REMARK    1  A    between atoms: C_1  and  O_2
REMARK    2  A    between atoms: O_2  and  C_3
REMARK    3  A    between atoms: C_5  and  C_6
REMARK    4  A    between atoms: C_8  and  C_30
REMARK    5  A    between atoms: C_12  and  O_29
REMARK    6  A    between atoms: C_13  and  C_14
REMARK    7  A    between atoms: C_15  and  C_16
REMARK    8  A    between atoms: C_18  and  O_27
REMARK    9  A    between atoms: C_24  and  O_25
REMARK   10  A    between atoms: O_25  and  C_26
REMARK   11  A    between atoms: O_27  and  C_28
REMARK                            x       y       z     vdW  Elec       q    Type
REMARK                         _______ _______ _______ _____ _____    ______ ____
ROOT
ATOM      1  C   UNL     1      86.708  52.806  44.437  0.00  0.00    +0.136 A 
ATOM      2  C   UNL     1      86.118  54.029  44.815  0.00  0.00    +0.015 A 
ATOM      3  C   UNL     1      86.313  54.613  46.193  0.00  0.00    +0.034 C 
ATOM      4  C   UNL     1      85.194  54.183  47.152  0.00  0.00    -0.045 C 
ATOM      5  N   UNL     1      86.451  56.077  46.114  0.00  0.00    -0.307 N 
ATOM      6  C   UNL     1      85.411  56.819  45.356  0.00  0.00    +0.009 C 
ATOM      7  C   UNL     1      84.583  55.956  44.366  0.00  0.00    -0.012 C 
ATOM      8  C   UNL     1      85.312  54.727  43.907  0.00  0.00    -0.034 A 
ATOM      9  C   UNL     1      85.078  54.200  42.631  0.00  0.00    -0.016 A 
ATOM     10  C   UNL     1      85.655  52.990  42.243  0.00  0.00    +0.128 A 
ATOM     11  C   UNL     1      86.486  52.287  43.142  0.00  0.00    +0.066 A 
ATOM     12  C   UNL     1      84.484  57.604  46.296  0.00  0.00    -0.049 C 
ATOM     13  H   UNL     1      87.350  56.278  45.678  0.00  0.00    +0.000 HD
ATOM     14  H   UNL     1      86.355  56.401  47.077  0.00  0.00    +0.000 HD
ENDROOT
BRANCH  11  15
ATOM     15  C   UNL     1      87.088  50.986  42.750  0.00  0.00    +0.000 A 
ATOM     16  C   UNL     1      88.365  50.970  42.151  0.00  0.00    -0.038 A 
ATOM     17  C   UNL     1      89.127  52.247  41.889  0.00  0.00    -0.039 C 
ATOM     18  C   UNL     1      88.936  49.752  41.770  0.00  0.00    -0.016 A 
ATOM     19  C   UNL     1      88.278  48.532  41.991  0.00  0.00    +0.132 A 
ATOM     20  C   UNL     1      86.997  48.526  42.602  0.00  0.00    +0.066 A 
ATOM     21  C   UNL     1      86.398  49.766  42.973  0.00  0.00    -0.003 A 
ATOM     22  C   UNL     1      85.112  49.762  43.554  0.00  0.00    -0.053 A 
ATOM     23  C   UNL     1      84.437  48.569  43.782  0.00  0.00    -0.058 A 
ATOM     24  C   UNL     1      85.019  47.356  43.436  0.00  0.00    -0.019 A 
ATOM     25  C   UNL     1      86.295  47.312  42.845  0.00  0.00    +0.131 A 
BRANCH  25  26
ATOM     26  O   UNL     1      86.875  46.080  42.493  0.00  0.00    -0.494 OA
ATOM     27  C   UNL     1      86.710  44.862  43.213  0.00  0.00    +0.079 C 
ENDBRANCH  25  26
BRANCH  19  28
ATOM     28  O   UNL     1      88.879  47.318  41.611  0.00  0.00    -0.494 OA
ATOM     29  C   UNL     1      90.177  46.883  42.005  0.00  0.00    +0.079 C 
ENDBRANCH  19  28
ENDBRANCH  11  15
BRANCH   1  31
ATOM     30  C   UNL     1      86.887  51.197  46.301  0.00  0.00    +0.079 C 
ATOM     31  O   UNL     1      87.475  52.094  45.366  0.00  0.00    -0.494 OA
ENDBRANCH   1  31
BRANCH  10  32
ATOM     32  O   UNL     1      85.368  52.500  40.967  0.00  0.00    -0.506 OA
ATOM     33  H   UNL     1      84.553  52.068  40.802  0.00  0.00    +0.000 HD
ENDBRANCH  10  32
TORSDOF 5
ENDMDL
MODEL 6
REMARK VINA RESULT:    -8.590      1.820      3.548
REMARK INTER + INTRA:         -11.592
REMARK INTER:                 -10.525
REMARK INTRA:                  -1.067
REMARK UNBOUND:                -0.742
REMARK  Name = 
REMARK  11 active torsions:
REMARK  status: ('A' for Active; 'I' for Inactive)
REMARK    1  A    between atoms: C_1  and  O_2
REMARK    2  A    between atoms: O_2  and  C_3
REMARK    3  A    between atoms: C_5  and  C_6
REMARK    4  A    between atoms: C_8  and  C_30
REMARK    5  A    between atoms: C_12  and  O_29
REMARK    6  A    between atoms: C_13  and  C_14
REMARK    7  A    between atoms: C_15  and  C_16
REMARK    8  A    between atoms: C_18  and  O_27
REMARK    9  A    between atoms: C_24  and  O_25
REMARK   10  A    between atoms: O_25  and  C_26
REMARK   11  A    between atoms: O_27  and  C_28
REMARK                            x       y       z     vdW  Elec       q    Type
REMARK                         _______ _______ _______ _____ _____    ______ ____
ROOT
ATOM      1  C   UNL     1      85.484  51.825  45.135  0.00  0.00    +0.136 A 
ATOM      2  C   UNL     1      85.422  53.210  45.395  0.00  0.00    +0.015 A 
ATOM      3  C   UNL     1      85.574  53.764  46.790  0.00  0.00    +0.034 C 
ATOM      4  C   UNL     1      84.213  53.932  47.482  0.00  0.00    -0.045 C 
ATOM      5  N   UNL     1      86.347  55.017  46.763  0.00  0.00    -0.307 N 
ATOM      6  C   UNL     1      85.906  56.067  45.810  0.00  0.00    +0.009 C 
ATOM      7  C   UNL     1      84.999  55.564  44.654  0.00  0.00    -0.012 C 
ATOM      8  C   UNL     1      85.197  54.109  44.346  0.00  0.00    -0.034 A 
ATOM      9  C   UNL     1      85.015  53.631  43.042  0.00  0.00    -0.016 A 
ATOM     10  C   UNL     1      85.073  52.263  42.769  0.00  0.00    +0.128 A 
ATOM     11  C   UNL     1      85.320  51.348  43.816  0.00  0.00    +0.066 A 
ATOM     12  C   UNL     1      85.246  57.247  46.541  0.00  0.00    -0.049 C 
ATOM     13  H   UNL     1      87.311  54.778  46.531  0.00  0.00    +0.000 HD
ATOM     14  H   UNL     1      86.213  55.428  47.687  0.00  0.00    +0.000 HD
ENDROOT
BRANCH  11  15
ATOM     15  C   UNL     1      85.361  49.887  43.544  0.00  0.00    +0.000 A 
ATOM     16  C   UNL     1      84.173  49.134  43.646  0.00  0.00    -0.038 A 
ATOM     17  C   UNL     1      82.864  49.778  44.039  0.00  0.00    -0.039 C 
ATOM     18  C   UNL     1      84.202  47.758  43.400  0.00  0.00    -0.016 A 
ATOM     19  C   UNL     1      85.387  47.104  43.028  0.00  0.00    +0.132 A 
ATOM     20  C   UNL     1      86.590  47.847  42.909  0.00  0.00    +0.066 A 
ATOM     21  C   UNL     1      86.573  49.247  43.180  0.00  0.00    -0.003 A 
ATOM     22  C   UNL     1      87.776  49.979  43.090  0.00  0.00    -0.053 A 
ATOM     23  C   UNL     1      88.964  49.357  42.725  0.00  0.00    -0.058 A 
ATOM     24  C   UNL     1      88.986  47.996  42.447  0.00  0.00    -0.019 A 
ATOM     25  C   UNL     1      87.814  47.224  42.534  0.00  0.00    +0.131 A 
BRANCH  25  26
ATOM     26  O   UNL     1      87.847  45.846  42.255  0.00  0.00    -0.494 OA
ATOM     27  C   UNL     1      88.950  44.984  42.514  0.00  0.00    +0.079 C 
ENDBRANCH  25  26
BRANCH  19  28
ATOM     28  O   UNL     1      85.389  45.720  42.773  0.00  0.00    -0.494 OA
ATOM     29  C   UNL     1      84.867  44.722  43.646  0.00  0.00    +0.079 C 
ENDBRANCH  19  28
ENDBRANCH  11  15
BRANCH   1  31
ATOM     30  C   UNL     1      86.956  50.562  46.661  0.00  0.00    +0.079 C 
ATOM     31  O   UNL     1      85.664  50.932  46.198  0.00  0.00    -0.494 OA
ENDBRANCH   1  31
BRANCH  10  32
ATOM     32  O   UNL     1      84.862  51.840  41.455  0.00  0.00    -0.506 OA
ATOM     33  H   UNL     1      85.231  52.323  40.742  0.00  0.00    +0.000 HD
ENDBRANCH  10  32
TORSDOF 5
ENDMDL
MODEL 7
REMARK VINA RESULT:    -8.557      2.622      7.609
REMARK INTER + INTRA:         -11.550
REMARK INTER:                 -10.756
REMARK INTRA:                  -0.794
REMARK UNBOUND:                -0.742
REMARK  Name = 
REMARK  11 active torsions:
REMARK  status: ('A' for Active; 'I' for Inactive)
REMARK    1  A    between atoms: C_1  and  O_2
REMARK    2  A    between atoms: O_2  and  C_3
REMARK    3  A    between atoms: C_5  and  C_6
REMARK    4  A    between atoms: C_8  and  C_30
REMARK    5  A    between atoms: C_12  and  O_29
REMARK    6  A    between atoms: C_13  and  C_14
REMARK    7  A    between atoms: C_15  and  C_16
REMARK    8  A    between atoms: C_18  and  O_27
REMARK    9  A    between atoms: C_24  and  O_25
REMARK   10  A    between atoms: O_25  and  C_26
REMARK   11  A    between atoms: O_27  and  C_28
REMARK                            x       y       z     vdW  Elec       q    Type
REMARK                         _______ _______ _______ _____ _____    ______ ____
ROOT
ATOM      1  C   UNL     1      85.338  50.062  43.855  0.00  0.00    +0.136 A 
ATOM      2  C   UNL     1      84.989  48.702  43.730  0.00  0.00    +0.015 A 
ATOM      3  C   UNL     1      85.999  47.600  43.945  0.00  0.00    +0.034 C 
ATOM      4  C   UNL     1      86.671  47.185  42.630  0.00  0.00    -0.045 C 
ATOM      5  N   UNL     1      85.373  46.462  44.639  0.00  0.00    -0.307 N 
ATOM      6  C   UNL     1      84.108  45.931  44.070  0.00  0.00    +0.009 C 
ATOM      7  C   UNL     1      83.361  46.901  43.116  0.00  0.00    -0.012 C 
ATOM      8  C   UNL     1      83.683  48.344  43.378  0.00  0.00    -0.034 A 
ATOM      9  C   UNL     1      82.727  49.337  43.134  0.00  0.00    -0.016 A 
ATOM     10  C   UNL     1      83.056  50.688  43.254  0.00  0.00    +0.128 A 
ATOM     11  C   UNL     1      84.366  51.061  43.627  0.00  0.00    +0.066 A 
ATOM     12  C   UNL     1      84.325  44.568  43.395  0.00  0.00    -0.049 C 
ATOM     13  H   UNL     1      85.180  46.753  45.597  0.00  0.00    +0.000 HD
ATOM     14  H   UNL     1      86.043  45.698  44.546  0.00  0.00    +0.000 HD
ENDROOT
BRANCH  11  15
ATOM     15  C   UNL     1      84.737  52.497  43.736  0.00  0.00    +0.000 A 
ATOM     16  C   UNL     1      85.163  53.188  42.582  0.00  0.00    -0.038 A 
ATOM     17  C   UNL     1      85.262  52.496  41.243  0.00  0.00    -0.039 C 
ATOM     18  C   UNL     1      85.522  54.536  42.675  0.00  0.00    -0.016 A 
ATOM     19  C   UNL     1      85.446  55.233  43.891  0.00  0.00    +0.132 A 
ATOM     20  C   UNL     1      85.010  54.558  45.060  0.00  0.00    +0.066 A 
ATOM     21  C   UNL     1      84.663  53.177  44.978  0.00  0.00    -0.003 A 
ATOM     22  C   UNL     1      84.257  52.500  46.148  0.00  0.00    -0.053 A 
ATOM     23  C   UNL     1      84.176  53.165  47.365  0.00  0.00    -0.058 A 
ATOM     24  C   UNL     1      84.499  54.513  47.451  0.00  0.00    -0.019 A 
ATOM     25  C   UNL     1      84.919  55.227  46.314  0.00  0.00    +0.131 A 
BRANCH  25  26
ATOM     26  O   UNL     1      85.248  56.591  46.411  0.00  0.00    -0.494 OA
ATOM     27  C   UNL     1      84.320  57.642  46.655  0.00  0.00    +0.079 C 
ENDBRANCH  25  26
BRANCH  19  28
ATOM     28  O   UNL     1      85.801  56.593  43.957  0.00  0.00    -0.494 OA
ATOM     29  C   UNL     1      85.149  57.648  43.256  0.00  0.00    +0.079 C 
ENDBRANCH  19  28
ENDBRANCH  11  15
BRANCH   1  31
ATOM     30  C   UNL     1      87.155  50.382  45.494  0.00  0.00    +0.079 C 
ATOM     31  O   UNL     1      86.658  50.411  44.162  0.00  0.00    -0.494 OA
ENDBRANCH   1  31
BRANCH  10  32
ATOM     32  O   UNL     1      82.070  51.638  42.976  0.00  0.00    -0.506 OA
ATOM     33  H   UNL     1      81.425  51.846  43.622  0.00  0.00    +0.000 HD
ENDBRANCH  10  32
TORSDOF 5
ENDMDL
MODEL 8
REMARK VINA RESULT:    -8.545      2.849      7.640
REMARK INTER + INTRA:         -11.535
REMARK INTER:                 -10.480
REMARK INTRA:                  -1.055
REMARK UNBOUND:                -0.742
REMARK  Name = 
REMARK  11 active torsions:
REMARK  status: ('A' for Active; 'I' for Inactive)
REMARK    1  A    between atoms: C_1  and  O_2
REMARK    2  A    between atoms: O_2  and  C_3
REMARK    3  A    between atoms: C_5  and  C_6
REMARK    4  A    between atoms: C_8  and  C_30
REMARK    5  A    between atoms: C_12  and  O_29
REMARK    6  A    between atoms: C_13  and  C_14
REMARK    7  A    between atoms: C_15  and  C_16
REMARK    8  A    between atoms: C_18  and  O_27
REMARK    9  A    between atoms: C_24  and  O_25
REMARK   10  A    between atoms: O_25  and  C_26
REMARK   11  A    between atoms: O_27  and  C_28
REMARK                            x       y       z     vdW  Elec       q    Type
REMARK                         _______ _______ _______ _____ _____    ______ ____
ROOT
ATOM      1  C   UNL     1      85.449  48.826  43.830  0.00  0.00    +0.136 A 
ATOM      2  C   UNL     1      85.834  47.558  43.349  0.00  0.00    +0.015 A 
ATOM      3  C   UNL     1      84.897  46.376  43.387  0.00  0.00    +0.034 C 
ATOM      4  C   UNL     1      85.077  45.553  44.670  0.00  0.00    -0.045 C 
ATOM      5  N   UNL     1      85.052  45.559  42.171  0.00  0.00    -0.307 N 
ATOM      6  C   UNL     1      86.431  45.145  41.803  0.00  0.00    +0.009 C 
ATOM      7  C   UNL     1      87.563  45.983  42.454  0.00  0.00    -0.012 C 
ATOM      8  C   UNL     1      87.122  47.366  42.837  0.00  0.00    -0.034 A 
ATOM      9  C   UNL     1      88.033  48.430  42.818  0.00  0.00    -0.016 A 
ATOM     10  C   UNL     1      87.667  49.691  43.291  0.00  0.00    +0.128 A 
ATOM     11  C   UNL     1      86.363  49.901  43.792  0.00  0.00    +0.066 A 
ATOM     12  C   UNL     1      86.652  43.646  42.058  0.00  0.00    -0.049 C 
ATOM     13  H   UNL     1      84.675  46.096  41.390  0.00  0.00    +0.000 HD
ATOM     14  H   UNL     1      84.562  44.689  42.376  0.00  0.00    +0.000 HD
ENDROOT
BRANCH  11  15
ATOM     15  C   UNL     1      85.967  51.233  44.320  0.00  0.00    +0.000 A 
ATOM     16  C   UNL     1      86.148  51.512  45.691  0.00  0.00    -0.038 A 
ATOM     17  C   UNL     1      86.723  50.483  46.634  0.00  0.00    -0.039 C 
ATOM     18  C   UNL     1      85.771  52.759  46.200  0.00  0.00    -0.016 A 
ATOM     19  C   UNL     1      85.235  53.758  45.372  0.00  0.00    +0.132 A 
ATOM     20  C   UNL     1      85.055  53.500  43.988  0.00  0.00    +0.066 A 
ATOM     21  C   UNL     1      85.417  52.223  43.465  0.00  0.00    -0.003 A 
ATOM     22  C   UNL     1      85.211  51.958  42.095  0.00  0.00    -0.053 A 
ATOM     23  C   UNL     1      84.681  52.927  41.253  0.00  0.00    -0.058 A 
ATOM     24  C   UNL     1      84.338  54.178  41.751  0.00  0.00    -0.019 A 
ATOM     25  C   UNL     1      84.515  54.484  43.112  0.00  0.00    +0.131 A 
BRANCH  25  26
ATOM     26  O   UNL     1      84.162  55.751  43.609  0.00  0.00    -0.494 OA
ATOM     27  C   UNL     1      84.738  56.985  43.191  0.00  0.00    +0.079 C 
ENDBRANCH  25  26
BRANCH  19  28
ATOM     28  O   UNL     1      84.875  55.009  45.905  0.00  0.00    -0.494 OA
ATOM     29  C   UNL     1      85.669  55.782  46.799  0.00  0.00    +0.079 C 
ENDBRANCH  19  28
ENDBRANCH  11  15
BRANCH   1  31
ATOM     30  C   UNL     1      83.040  49.304  43.583  0.00  0.00    +0.079 C 
ATOM     31  O   UNL     1      84.174  48.996  44.383  0.00  0.00    -0.494 OA
ENDBRANCH   1  31
BRANCH  10  32
ATOM     32  O   UNL     1      88.622  50.709  43.270  0.00  0.00    -0.506 OA
ATOM     33  H   UNL     1      88.351  51.606  43.252  0.00  0.00    +0.000 HD
ENDBRANCH  10  32
TORSDOF 5
ENDMDL
MODEL 9
REMARK VINA RESULT:    -7.375      2.725      7.668
REMARK INTER + INTRA:         -10.058
REMARK INTER:                  -9.316
REMARK INTRA:                  -0.742
REMARK UNBOUND:                -0.742
REMARK  Name = 
REMARK  11 active torsions:
REMARK  status: ('A' for Active; 'I' for Inactive)
REMARK    1  A    between atoms: C_1  and  O_2
REMARK    2  A    between atoms: O_2  and  C_3
REMARK    3  A    between atoms: C_5  and  C_6
REMARK    4  A    between atoms: C_8  and  C_30
REMARK    5  A    between atoms: C_12  and  O_29
REMARK    6  A    between atoms: C_13  and  C_14
REMARK    7  A    between atoms: C_15  and  C_16
REMARK    8  A    between atoms: C_18  and  O_27
REMARK    9  A    between atoms: C_24  and  O_25
REMARK   10  A    between atoms: O_25  and  C_26
REMARK   11  A    between atoms: O_27  and  C_28
REMARK                            x       y       z     vdW  Elec       q    Type
REMARK                         _______ _______ _______ _____ _____    ______ ____
ROOT
ATOM      1  C   UNL     1      84.633  49.727  43.253  0.00  0.00    +0.136 A 
ATOM      2  C   UNL     1      84.661  48.319  43.326  0.00  0.00    +0.015 A 
ATOM      3  C   UNL     1      83.509  47.475  42.837  0.00  0.00    +0.034 C 
ATOM      4  C   UNL     1      82.518  47.162  43.967  0.00  0.00    -0.045 C 
ATOM      5  N   UNL     1      84.010  46.257  42.178  0.00  0.00    -0.307 N 
ATOM      6  C   UNL     1      85.001  45.439  42.924  0.00  0.00    +0.009 C 
ATOM      7  C   UNL     1      85.728  46.182  44.077  0.00  0.00    -0.012 C 
ATOM      8  C   UNL     1      85.770  47.670  43.881  0.00  0.00    -0.034 A 
ATOM      9  C   UNL     1      86.843  48.419  44.379  0.00  0.00    -0.016 A 
ATOM     10  C   UNL     1      86.829  49.813  44.314  0.00  0.00    +0.128 A 
ATOM     11  C   UNL     1      85.725  50.479  43.738  0.00  0.00    +0.066 A 
ATOM     12  C   UNL     1      84.378  44.130  43.432  0.00  0.00    -0.049 C 
ATOM     13  H   UNL     1      84.445  46.539  41.300  0.00  0.00    +0.000 HD
ATOM     14  H   UNL     1      83.192  45.655  42.082  0.00  0.00    +0.000 HD
ENDROOT
BRANCH  11  15
ATOM     15  C   UNL     1      85.688  51.964  43.683  0.00  0.00    +0.000 A 
ATOM     16  C   UNL     1      86.070  52.620  42.493  0.00  0.00    -0.038 A 
ATOM     17  C   UNL     1      86.527  51.845  41.280  0.00  0.00    -0.039 C 
ATOM     18  C   UNL     1      86.046  54.016  42.434  0.00  0.00    -0.016 A 
ATOM     19  C   UNL     1      85.626  54.790  43.527  0.00  0.00    +0.132 A 
ATOM     20  C   UNL     1      85.228  54.149  44.728  0.00  0.00    +0.066 A 
ATOM     21  C   UNL     1      85.270  52.725  44.804  0.00  0.00    -0.003 A 
ATOM     22  C   UNL     1      84.901  52.090  46.009  0.00  0.00    -0.053 A 
ATOM     23  C   UNL     1      84.484  52.832  47.107  0.00  0.00    -0.058 A 
ATOM     24  C   UNL     1      84.427  54.218  47.038  0.00  0.00    -0.019 A 
ATOM     25  C   UNL     1      84.795  54.895  45.861  0.00  0.00    +0.131 A 
BRANCH  25  26
ATOM     26  O   UNL     1      84.739  56.299  45.800  0.00  0.00    -0.494 OA
ATOM     27  C   UNL     1      83.902  57.121  46.607  0.00  0.00    +0.079 C 
ENDBRANCH  25  26
BRANCH  19  28
ATOM     28  O   UNL     1      85.599  56.194  43.439  0.00  0.00    -0.494 OA
ATOM     29  C   UNL     1      84.590  56.958  42.785  0.00  0.00    +0.079 C 
ENDBRANCH  19  28
ENDBRANCH  11  15
BRANCH   1  31
ATOM     30  C   UNL     1      82.380  50.690  43.552  0.00  0.00    +0.079 C 
ATOM     31  O   UNL     1      83.500  50.368  42.738  0.00  0.00    -0.494 OA
ENDBRANCH   1  31
BRANCH  10  32
ATOM     32  O   UNL     1      87.915  50.512  44.847  0.00  0.00    -0.506 OA
ATOM     33  H   UNL     1      88.230  50.305  45.705  0.00  0.00    +0.000 HD
ENDBRANCH  10  32
TORSDOF 5
ENDMDL
