MODEL 1
REMARK VINA RESULT:    -6.013      0.000      0.000
REMARK INTER + INTRA:         -10.149
REMARK INTER:                  -9.320
REMARK INTRA:                  -0.829
REMARK UNBOUND:                -1.324
REMARK  Name = 
REMARK  9 active torsions:
REMARK  status: ('A' for Active; 'I' for Inactive)
REMARK    1  A    between atoms: C_1  and  O_2
REMARK    2  A    between atoms: O_2  and  C_3
REMARK    3  A    between atoms: C_3  and  C_5
REMARK    4  A    between atoms: C_5  and  C_6
REMARK    5  A    between atoms: C_6  and  C_7
REMARK    6  A    between atoms: C_7  and  C_8
REMARK    7  A    between atoms: C_8  and  C_9
REMARK    8  A    between atoms: C_9  and  C_10
REMARK    9  A    between atoms: C_10  and  C_11
REMARK                            x       y       z     vdW  Elec       q    Type
REMARK                         _______ _______ _______ _____ _____    ______ ____
ROOT
ATOM      1  C   UNL     1      83.804  55.723  48.117  0.00  0.00    -0.053 C 
ENDROOT
BRANCH   1   2
ATOM      2  C   UNL     1      83.905  56.486  46.788  0.00  0.00    -0.053 C 
BRANCH   2   3
ATOM      3  C   UNL     1      85.305  57.067  46.541  0.00  0.00    -0.043 C 
BRANCH   3   4
ATOM      4  C   UNL     1      85.897  56.533  45.233  0.00  0.00    +0.045 C 
BRANCH   4   5
ATOM      5  C   UNL     1      85.648  57.497  44.115  0.00  0.00    +0.307 C 
ATOM      6  O   UNL     1      86.054  58.687  44.213  0.00  0.00    -0.251 OA
BRANCH   5   8
ATOM      7  C   UNL     1      83.903  56.095  43.065  0.00  0.00    +0.082 C 
ATOM      8  O   UNL     1      84.928  57.078  42.993  0.00  0.00    -0.468 OA
ENDBRANCH   5   8
ENDBRANCH   4   5
ENDBRANCH   3   4
ENDBRANCH   2   3
ENDBRANCH   1   2
BRANCH   1   9
ATOM      9  C   UNL     1      84.023  54.210  47.949  0.00  0.00    -0.049 C 
BRANCH   9  10
ATOM     10  C   UNL     1      85.169  53.687  48.828  0.00  0.00    -0.028 C 
BRANCH  10  11
ATOM     11  C   UNL     1      85.992  52.639  48.123  0.00  0.00    -0.047 A 
ATOM     12  C   UNL     1      86.398  52.836  46.792  0.00  0.00    -0.059 A 
ATOM     13  C   UNL     1      87.180  51.875  46.144  0.00  0.00    -0.062 A 
ATOM     14  C   UNL     1      87.565  50.713  46.819  0.00  0.00    -0.062 A 
ATOM     15  C   UNL     1      87.170  50.512  48.144  0.00  0.00    -0.062 A 
ATOM     16  C   UNL     1      86.388  51.470  48.797  0.00  0.00    -0.059 A 
ENDBRANCH  10  11
ENDBRANCH   9  10
ENDBRANCH   1   9
TORSDOF 8
ENDMDL
MODEL 2
REMARK VINA RESULT:    -5.710      2.450      4.164
REMARK INTER + INTRA:          -9.704
REMARK INTER:                  -8.813
REMARK INTRA:                  -0.891
REMARK UNBOUND:                -1.324
REMARK  Name = 
REMARK  9 active torsions:
REMARK  status: ('A' for Active; 'I' for Inactive)
REMARK    1  A    between atoms: C_1  and  O_2
REMARK    2  A    between atoms: O_2  and  C_3
REMARK    3  A    between atoms: C_3  and  C_5
REMARK    4  A    between atoms: C_5  and  C_6
REMARK    5  A    between atoms: C_6  and  C_7
REMARK    6  A    between atoms: C_7  and  C_8
REMARK    7  A    between atoms: C_8  and  C_9
REMARK    8  A    between atoms: C_9  and  C_10
REMARK    9  A    between atoms: C_10  and  C_11
REMARK                            x       y       z     vdW  Elec       q    Type
REMARK                         _______ _______ _______ _____ _____    ______ ____
ROOT
ATOM      1  C   UNL     1      85.142  57.819  44.293  0.00  0.00    -0.053 C 
ENDROOT
BRANCH   1   2
ATOM      2  C   UNL     1      85.710  56.449  43.893  0.00  0.00    -0.053 C 
BRANCH   2   3
ATOM      3  C   UNL     1      84.620  55.381  43.720  0.00  0.00    -0.043 C 
BRANCH   3   4
ATOM      4  C   UNL     1      83.845  55.596  42.416  0.00  0.00    +0.045 C 
BRANCH   4   5
ATOM      5  C   UNL     1      84.662  55.155  41.243  0.00  0.00    +0.307 C 
ATOM      6  O   UNL     1      85.359  54.107  41.324  0.00  0.00    -0.251 OA
BRANCH   5   8
ATOM      7  C   UNL     1      84.217  55.449  38.828  0.00  0.00    +0.082 C 
ATOM      8  O   UNL     1      84.678  55.934  40.083  0.00  0.00    -0.468 OA
ENDBRANCH   5   8
ENDBRANCH   4   5
ENDBRANCH   3   4
ENDBRANCH   2   3
ENDBRANCH   1   2
BRANCH   1   9
ATOM      9  C   UNL     1      84.658  57.856  45.753  0.00  0.00    -0.049 C 
BRANCH   9  10
ATOM     10  C   UNL     1      85.670  57.220  46.718  0.00  0.00    -0.028 C 
BRANCH  10  11
ATOM     11  C   UNL     1      85.106  56.010  47.416  0.00  0.00    -0.047 A 
ATOM     12  C   UNL     1      83.747  55.969  47.774  0.00  0.00    -0.059 A 
ATOM     13  C   UNL     1      83.217  54.838  48.403  0.00  0.00    -0.062 A 
ATOM     14  C   UNL     1      84.037  53.739  48.675  0.00  0.00    -0.062 A 
ATOM     15  C   UNL     1      85.387  53.769  48.317  0.00  0.00    -0.062 A 
ATOM     16  C   UNL     1      85.922  54.899  47.689  0.00  0.00    -0.059 A 
ENDBRANCH  10  11
ENDBRANCH   9  10
ENDBRANCH   1   9
TORSDOF 8
ENDMDL
MODEL 3
REMARK VINA RESULT:    -5.599      7.173      8.715
REMARK INTER + INTRA:          -9.542
REMARK INTER:                  -8.959
REMARK INTRA:                  -0.583
REMARK UNBOUND:                -1.324
REMARK  Name = 
REMARK  9 active torsions:
REMARK  status: ('A' for Active; 'I' for Inactive)
REMARK    1  A    between atoms: C_1  and  O_2
REMARK    2  A    between atoms: O_2  and  C_3
REMARK    3  A    between atoms: C_3  and  C_5
REMARK    4  A    between atoms: C_5  and  C_6
REMARK    5  A    between atoms: C_6  and  C_7
REMARK    6  A    between atoms: C_7  and  C_8
REMARK    7  A    between atoms: C_8  and  C_9
REMARK    8  A    between atoms: C_9  and  C_10
REMARK    9  A    between atoms: C_10  and  C_11
REMARK                            x       y       z     vdW  Elec       q    Type
REMARK                         _______ _______ _______ _____ _____    ______ ____
ROOT
ATOM      1  C   UNL     1      90.422  48.527  43.277  0.00  0.00    -0.053 C 
ENDROOT
BRANCH   1   2
ATOM      2  C   UNL     1      89.356  49.568  42.903  0.00  0.00    -0.053 C 
BRANCH   2   3
ATOM      3  C   UNL     1      89.786  50.462  41.731  0.00  0.00    -0.043 C 
BRANCH   3   4
ATOM      4  C   UNL     1      88.706  51.501  41.410  0.00  0.00    +0.045 C 
BRANCH   4   5
ATOM      5  C   UNL     1      88.969  52.134  40.081  0.00  0.00    +0.307 C 
ATOM      6  O   UNL     1      88.821  51.460  39.025  0.00  0.00    -0.251 OA
BRANCH   5   8
ATOM      7  C   UNL     1      90.746  53.797  39.644  0.00  0.00    +0.082 C 
ATOM      8  O   UNL     1      89.419  53.456  40.026  0.00  0.00    -0.468 OA
ENDBRANCH   5   8
ENDBRANCH   4   5
ENDBRANCH   3   4
ENDBRANCH   2   3
ENDBRANCH   1   2
BRANCH   1   9
ATOM      9  C   UNL     1      90.287  47.225  42.468  0.00  0.00    -0.049 C 
BRANCH   9  10
ATOM     10  C   UNL     1      88.903  47.084  41.818  0.00  0.00    -0.028 C 
BRANCH  10  11
ATOM     11  C   UNL     1      88.044  46.067  42.526  0.00  0.00    -0.047 A 
ATOM     12  C   UNL     1      88.491  44.743  42.671  0.00  0.00    -0.059 A 
ATOM     13  C   UNL     1      87.705  43.804  43.346  0.00  0.00    -0.062 A 
ATOM     14  C   UNL     1      86.471  44.180  43.885  0.00  0.00    -0.062 A 
ATOM     15  C   UNL     1      86.023  45.497  43.750  0.00  0.00    -0.062 A 
ATOM     16  C   UNL     1      86.804  46.439  43.074  0.00  0.00    -0.059 A 
ENDBRANCH  10  11
ENDBRANCH   9  10
ENDBRANCH   1   9
TORSDOF 8
ENDMDL
MODEL 4
REMARK VINA RESULT:    -5.495      4.204      6.217
REMARK INTER + INTRA:          -9.390
REMARK INTER:                  -8.848
REMARK INTRA:                  -0.542
REMARK UNBOUND:                -1.324
REMARK  Name = 
REMARK  9 active torsions:
REMARK  status: ('A' for Active; 'I' for Inactive)
REMARK    1  A    between atoms: C_1  and  O_2
REMARK    2  A    between atoms: O_2  and  C_3
REMARK    3  A    between atoms: C_3  and  C_5
REMARK    4  A    between atoms: C_5  and  C_6
REMARK    5  A    between atoms: C_6  and  C_7
REMARK    6  A    between atoms: C_7  and  C_8
REMARK    7  A    between atoms: C_8  and  C_9
REMARK    8  A    between atoms: C_9  and  C_10
REMARK    9  A    between atoms: C_10  and  C_11
REMARK                            x       y       z     vdW  Elec       q    Type
REMARK                         _______ _______ _______ _____ _____    ______ ____
ROOT
ATOM      1  C   UNL     1      87.502  49.729  44.093  0.00  0.00    -0.053 C 
ENDROOT
BRANCH   1   2
ATOM      2  C   UNL     1      88.798  49.658  43.271  0.00  0.00    -0.053 C 
BRANCH   2   3
ATOM      3  C   UNL     1      88.627  50.200  41.845  0.00  0.00    -0.043 C 
BRANCH   3   4
ATOM      4  C   UNL     1      89.107  51.651  41.748  0.00  0.00    +0.045 C 
BRANCH   4   5
ATOM      5  C   UNL     1      89.110  52.107  40.323  0.00  0.00    +0.307 C 
ATOM      6  O   UNL     1      88.845  51.287  39.403  0.00  0.00    -0.251 OA
BRANCH   5   8
ATOM      7  C   UNL     1      90.702  53.783  39.445  0.00  0.00    +0.082 C 
ATOM      8  O   UNL     1      89.453  53.429  40.025  0.00  0.00    -0.468 OA
ENDBRANCH   5   8
ENDBRANCH   4   5
ENDBRANCH   3   4
ENDBRANCH   2   3
ENDBRANCH   1   2
BRANCH   1   9
ATOM      9  C   UNL     1      87.656  50.575  45.369  0.00  0.00    -0.049 C 
BRANCH   9  10
ATOM     10  C   UNL     1      87.243  52.038  45.151  0.00  0.00    -0.028 C 
BRANCH  10  11
ATOM     11  C   UNL     1      86.696  52.666  46.407  0.00  0.00    -0.047 A 
ATOM     12  C   UNL     1      86.494  54.055  46.472  0.00  0.00    -0.059 A 
ATOM     13  C   UNL     1      85.966  54.637  47.629  0.00  0.00    -0.062 A 
ATOM     14  C   UNL     1      85.632  53.838  48.726  0.00  0.00    -0.062 A 
ATOM     15  C   UNL     1      85.824  52.455  48.666  0.00  0.00    -0.062 A 
ATOM     16  C   UNL     1      86.352  51.869  47.512  0.00  0.00    -0.059 A 
ENDBRANCH  10  11
ENDBRANCH   9  10
ENDBRANCH   1   9
TORSDOF 8
ENDMDL
MODEL 5
REMARK VINA RESULT:    -5.435      2.322      4.471
REMARK INTER + INTRA:          -9.302
REMARK INTER:                  -8.121
REMARK INTRA:                  -1.181
REMARK UNBOUND:                -1.324
REMARK  Name = 
REMARK  9 active torsions:
REMARK  status: ('A' for Active; 'I' for Inactive)
REMARK    1  A    between atoms: C_1  and  O_2
REMARK    2  A    between atoms: O_2  and  C_3
REMARK    3  A    between atoms: C_3  and  C_5
REMARK    4  A    between atoms: C_5  and  C_6
REMARK    5  A    between atoms: C_6  and  C_7
REMARK    6  A    between atoms: C_7  and  C_8
REMARK    7  A    between atoms: C_8  and  C_9
REMARK    8  A    between atoms: C_9  and  C_10
REMARK    9  A    between atoms: C_10  and  C_11
REMARK                            x       y       z     vdW  Elec       q    Type
REMARK                         _______ _______ _______ _____ _____    ______ ____
ROOT
ATOM      1  C   UNL     1      84.933  57.410  43.834  0.00  0.00    -0.053 C 
ENDROOT
BRANCH   1   2
ATOM      2  C   UNL     1      83.827  56.400  43.490  0.00  0.00    -0.053 C 
BRANCH   2   3
ATOM      3  C   UNL     1      84.367  55.141  42.797  0.00  0.00    -0.043 C 
BRANCH   3   4
ATOM      4  C   UNL     1      84.812  54.097  43.826  0.00  0.00    +0.045 C 
BRANCH   4   5
ATOM      5  C   UNL     1      86.234  53.699  43.587  0.00  0.00    +0.307 C 
ATOM      6  O   UNL     1      87.035  54.520  43.063  0.00  0.00    -0.251 OA
BRANCH   5   8
ATOM      7  C   UNL     1      87.828  51.821  43.365  0.00  0.00    +0.082 C 
ATOM      8  O   UNL     1      86.647  52.402  43.905  0.00  0.00    -0.468 OA
ENDBRANCH   5   8
ENDBRANCH   4   5
ENDBRANCH   3   4
ENDBRANCH   2   3
ENDBRANCH   1   2
BRANCH   1   9
ATOM      9  C   UNL     1      85.022  57.699  45.342  0.00  0.00    -0.049 C 
BRANCH   9  10
ATOM     10  C   UNL     1      86.005  56.760  46.057  0.00  0.00    -0.028 C 
BRANCH  10  11
ATOM     11  C   UNL     1      85.314  55.874  47.062  0.00  0.00    -0.047 A 
ATOM     12  C   UNL     1      85.987  54.769  47.611  0.00  0.00    -0.059 A 
ATOM     13  C   UNL     1      85.355  53.959  48.560  0.00  0.00    -0.062 A 
ATOM     14  C   UNL     1      84.050  54.247  48.970  0.00  0.00    -0.062 A 
ATOM     15  C   UNL     1      83.377  55.348  48.433  0.00  0.00    -0.062 A 
ATOM     16  C   UNL     1      84.004  56.160  47.484  0.00  0.00    -0.059 A 
ENDBRANCH  10  11
ENDBRANCH   9  10
ENDBRANCH   1   9
TORSDOF 8
ENDMDL
MODEL 6
REMARK VINA RESULT:    -5.424      3.204      6.090
REMARK INTER + INTRA:          -9.285
REMARK INTER:                  -8.440
REMARK INTRA:                  -0.846
REMARK UNBOUND:                -1.324
REMARK  Name = 
REMARK  9 active torsions:
REMARK  status: ('A' for Active; 'I' for Inactive)
REMARK    1  A    between atoms: C_1  and  O_2
REMARK    2  A    between atoms: O_2  and  C_3
REMARK    3  A    between atoms: C_3  and  C_5
REMARK    4  A    between atoms: C_5  and  C_6
REMARK    5  A    between atoms: C_6  and  C_7
REMARK    6  A    between atoms: C_7  and  C_8
REMARK    7  A    between atoms: C_8  and  C_9
REMARK    8  A    between atoms: C_9  and  C_10
REMARK    9  A    between atoms: C_10  and  C_11
REMARK                            x       y       z     vdW  Elec       q    Type
REMARK                         _______ _______ _______ _____ _____    ______ ____
ROOT
ATOM      1  C   UNL     1      86.434  51.495  48.976  0.00  0.00    -0.053 C 
ENDROOT
BRANCH   1   2
ATOM      2  C   UNL     1      87.234  50.582  48.035  0.00  0.00    -0.053 C 
BRANCH   2   3
ATOM      3  C   UNL     1      87.522  51.235  46.676  0.00  0.00    -0.043 C 
BRANCH   3   4
ATOM      4  C   UNL     1      87.437  50.206  45.544  0.00  0.00    +0.045 C 
BRANCH   4   5
ATOM      5  C   UNL     1      86.018  49.782  45.329  0.00  0.00    +0.307 C 
ATOM      6  O   UNL     1      85.135  50.649  45.088  0.00  0.00    -0.251 OA
BRANCH   5   8
ATOM      7  C   UNL     1      85.719  47.537  44.337  0.00  0.00    +0.082 C 
ATOM      8  O   UNL     1      85.679  48.431  45.442  0.00  0.00    -0.468 OA
ENDBRANCH   5   8
ENDBRANCH   4   5
ENDBRANCH   3   4
ENDBRANCH   2   3
ENDBRANCH   1   2
BRANCH   1   9
ATOM      9  C   UNL     1      85.459  52.414  48.221  0.00  0.00    -0.049 C 
BRANCH   9  10
ATOM     10  C   UNL     1      85.446  53.842  48.788  0.00  0.00    -0.028 C 
BRANCH  10  11
ATOM     11  C   UNL     1      85.440  54.885  47.701  0.00  0.00    -0.047 A 
ATOM     12  C   UNL     1      84.462  55.894  47.694  0.00  0.00    -0.059 A 
ATOM     13  C   UNL     1      84.468  56.875  46.697  0.00  0.00    -0.062 A 
ATOM     14  C   UNL     1      85.452  56.859  45.704  0.00  0.00    -0.062 A 
ATOM     15  C   UNL     1      86.432  55.863  45.708  0.00  0.00    -0.062 A 
ATOM     16  C   UNL     1      86.429  54.879  46.702  0.00  0.00    -0.059 A 
ENDBRANCH  10  11
ENDBRANCH   9  10
ENDBRANCH   1   9
TORSDOF 8
ENDMDL
MODEL 7
REMARK VINA RESULT:    -5.390      3.105      4.793
REMARK INTER + INTRA:          -9.235
REMARK INTER:                  -7.838
REMARK INTRA:                  -1.397
REMARK UNBOUND:                -1.324
REMARK  Name = 
REMARK  9 active torsions:
REMARK  status: ('A' for Active; 'I' for Inactive)
REMARK    1  A    between atoms: C_1  and  O_2
REMARK    2  A    between atoms: O_2  and  C_3
REMARK    3  A    between atoms: C_3  and  C_5
REMARK    4  A    between atoms: C_5  and  C_6
REMARK    5  A    between atoms: C_6  and  C_7
REMARK    6  A    between atoms: C_7  and  C_8
REMARK    7  A    between atoms: C_8  and  C_9
REMARK    8  A    between atoms: C_9  and  C_10
REMARK    9  A    between atoms: C_10  and  C_11
REMARK                            x       y       z     vdW  Elec       q    Type
REMARK                         _______ _______ _______ _____ _____    ______ ____
ROOT
ATOM      1  C   UNL     1      84.599  56.828  43.688  0.00  0.00    -0.053 C 
ENDROOT
BRANCH   1   2
ATOM      2  C   UNL     1      84.102  55.409  43.371  0.00  0.00    -0.053 C 
BRANCH   2   3
ATOM      3  C   UNL     1      85.081  54.320  43.833  0.00  0.00    -0.043 C 
BRANCH   3   4
ATOM      4  C   UNL     1      84.340  53.180  44.536  0.00  0.00    +0.045 C 
BRANCH   4   5
ATOM      5  C   UNL     1      83.900  52.150  43.543  0.00  0.00    +0.307 C 
ATOM      6  O   UNL     1      84.761  51.446  42.949  0.00  0.00    -0.251 OA
BRANCH   5   8
ATOM      7  C   UNL     1      81.944  52.585  42.096  0.00  0.00    +0.082 C 
ATOM      8  O   UNL     1      82.541  52.012  43.252  0.00  0.00    -0.468 OA
ENDBRANCH   5   8
ENDBRANCH   4   5
ENDBRANCH   3   4
ENDBRANCH   2   3
ENDBRANCH   1   2
BRANCH   1   9
ATOM      9  C   UNL     1      85.809  56.833  44.638  0.00  0.00    -0.049 C 
BRANCH   9  10
ATOM     10  C   UNL     1      85.450  57.359  46.036  0.00  0.00    -0.028 C 
BRANCH  10  11
ATOM     11  C   UNL     1      85.082  56.247  46.984  0.00  0.00    -0.047 A 
ATOM     12  C   UNL     1      86.032  55.272  47.332  0.00  0.00    -0.059 A 
ATOM     13  C   UNL     1      85.698  54.251  48.229  0.00  0.00    -0.062 A 
ATOM     14  C   UNL     1      84.417  54.199  48.786  0.00  0.00    -0.062 A 
ATOM     15  C   UNL     1      83.469  55.169  48.450  0.00  0.00    -0.062 A 
ATOM     16  C   UNL     1      83.798  56.191  47.553  0.00  0.00    -0.059 A 
ENDBRANCH  10  11
ENDBRANCH   9  10
ENDBRANCH   1   9
TORSDOF 8
ENDMDL
MODEL 8
REMARK VINA RESULT:    -5.377      1.915      2.920
REMARK INTER + INTRA:          -9.216
REMARK INTER:                  -8.365
REMARK INTRA:                  -0.851
REMARK UNBOUND:                -1.324
REMARK  Name = 
REMARK  9 active torsions:
REMARK  status: ('A' for Active; 'I' for Inactive)
REMARK    1  A    between atoms: C_1  and  O_2
REMARK    2  A    between atoms: O_2  and  C_3
REMARK    3  A    between atoms: C_3  and  C_5
REMARK    4  A    between atoms: C_5  and  C_6
REMARK    5  A    between atoms: C_6  and  C_7
REMARK    6  A    between atoms: C_7  and  C_8
REMARK    7  A    between atoms: C_8  and  C_9
REMARK    8  A    between atoms: C_9  and  C_10
REMARK    9  A    between atoms: C_10  and  C_11
REMARK                            x       y       z     vdW  Elec       q    Type
REMARK                         _______ _______ _______ _____ _____    ______ ____
ROOT
ATOM      1  C   UNL     1      85.743  56.981  45.730  0.00  0.00    -0.053 C 
ENDROOT
BRANCH   1   2
ATOM      2  C   UNL     1      86.315  56.390  44.432  0.00  0.00    -0.053 C 
BRANCH   2   3
ATOM      3  C   UNL     1      85.224  56.018  43.418  0.00  0.00    -0.043 C 
BRANCH   3   4
ATOM      4  C   UNL     1      85.503  54.649  42.791  0.00  0.00    +0.045 C 
BRANCH   4   5
ATOM      5  C   UNL     1      84.822  54.533  41.463  0.00  0.00    +0.307 C 
ATOM      6  O   UNL     1      84.886  55.488  40.641  0.00  0.00    -0.251 OA
BRANCH   5   8
ATOM      7  C   UNL     1      82.711  53.246  41.516  0.00  0.00    +0.082 C 
ATOM      8  O   UNL     1      84.083  53.385  41.167  0.00  0.00    -0.468 OA
ENDBRANCH   5   8
ENDBRANCH   4   5
ENDBRANCH   3   4
ENDBRANCH   2   3
ENDBRANCH   1   2
BRANCH   1   9
ATOM      9  C   UNL     1      86.070  56.125  46.965  0.00  0.00    -0.049 C 
BRANCH   9  10
ATOM     10  C   UNL     1      85.041  55.006  47.186  0.00  0.00    -0.028 C 
BRANCH  10  11
ATOM     11  C   UNL     1      85.697  53.666  47.400  0.00  0.00    -0.047 A 
ATOM     12  C   UNL     1      86.475  53.089  46.382  0.00  0.00    -0.059 A 
ATOM     13  C   UNL     1      87.101  51.855  46.586  0.00  0.00    -0.062 A 
ATOM     14  C   UNL     1      86.960  51.192  47.809  0.00  0.00    -0.062 A 
ATOM     15  C   UNL     1      86.193  51.762  48.828  0.00  0.00    -0.062 A 
ATOM     16  C   UNL     1      85.563  52.994  48.628  0.00  0.00    -0.059 A 
ENDBRANCH  10  11
ENDBRANCH   9  10
ENDBRANCH   1   9
TORSDOF 8
ENDMDL
MODEL 9
REMARK VINA RESULT:    -5.247      1.700      4.021
REMARK INTER + INTRA:          -9.024
REMARK INTER:                  -7.700
REMARK INTRA:                  -1.324
REMARK UNBOUND:                -1.324
REMARK  Name = 
REMARK  9 active torsions:
REMARK  status: ('A' for Active; 'I' for Inactive)
REMARK    1  A    between atoms: C_1  and  O_2
REMARK    2  A    between atoms: O_2  and  C_3
REMARK    3  A    between atoms: C_3  and  C_5
REMARK    4  A    between atoms: C_5  and  C_6
REMARK    5  A    between atoms: C_6  and  C_7
REMARK    6  A    between atoms: C_7  and  C_8
REMARK    7  A    between atoms: C_8  and  C_9
REMARK    8  A    between atoms: C_9  and  C_10
REMARK    9  A    between atoms: C_10  and  C_11
REMARK                            x       y       z     vdW  Elec       q    Type
REMARK                         _______ _______ _______ _____ _____    ______ ____
ROOT
ATOM      1  C   UNL     1      85.828  51.112  45.407  0.00  0.00    -0.053 C 
ENDROOT
BRANCH   1   2
ATOM      2  C   UNL     1      84.987  51.892  44.384  0.00  0.00    -0.053 C 
BRANCH   2   3
ATOM      3  C   UNL     1      85.715  53.128  43.836  0.00  0.00    -0.043 C 
BRANCH   3   4
ATOM      4  C   UNL     1      84.785  54.344  43.809  0.00  0.00    +0.045 C 
BRANCH   4   5
ATOM      5  C   UNL     1      85.056  55.182  42.599  0.00  0.00    +0.307 C 
ATOM      6  O   UNL     1      85.404  54.631  41.520  0.00  0.00    -0.251 OA
BRANCH   5   8
ATOM      7  C   UNL     1      84.461  57.232  43.849  0.00  0.00    +0.082 C 
ATOM      8  O   UNL     1      84.964  56.574  42.693  0.00  0.00    -0.468 OA
ENDBRANCH   5   8
ENDBRANCH   4   5
ENDBRANCH   3   4
ENDBRANCH   2   3
ENDBRANCH   1   2
BRANCH   1   9
ATOM      9  C   UNL     1      86.742  52.025  46.242  0.00  0.00    -0.049 C 
BRANCH   9  10
ATOM     10  C   UNL     1      86.169  52.301  47.640  0.00  0.00    -0.028 C 
BRANCH  10  11
ATOM     11  C   UNL     1      85.444  53.621  47.706  0.00  0.00    -0.047 A 
ATOM     12  C   UNL     1      86.076  54.797  47.270  0.00  0.00    -0.059 A 
ATOM     13  C   UNL     1      85.398  56.019  47.311  0.00  0.00    -0.062 A 
ATOM     14  C   UNL     1      84.083  56.075  47.783  0.00  0.00    -0.062 A 
ATOM     15  C   UNL     1      83.445  54.909  48.213  0.00  0.00    -0.062 A 
ATOM     16  C   UNL     1      84.120  53.685  48.175  0.00  0.00    -0.059 A 
ENDBRANCH  10  11
ENDBRANCH   9  10
ENDBRANCH   1   9
TORSDOF 8
ENDMDL
