MODEL 1
REMARK VINA RESULT:    -7.947      0.000      0.000
REMARK INTER + INTRA:         -11.849
REMARK INTER:                 -11.046
REMARK INTRA:                  -0.803
REMARK UNBOUND:                -0.882
REMARK  Name = 
REMARK  11 active torsions:
REMARK  status: ('A' for Active; 'I' for Inactive)
REMARK    1  A    between atoms: C_1  and  O_2
REMARK    2  A    between atoms: O_2  and  C_3
REMARK    3  A    between atoms: C_3  and  C_5
REMARK    4  A    between atoms: C_5  and  C_6
REMARK    5  A    between atoms: C_8  and  O_9
REMARK    6  A    between atoms: C_14  and  C_15
REMARK    7  A    between atoms: C_14  and  C_16
REMARK    8  A    between atoms: C_16  and  C_17
REMARK    9  A    between atoms: C_17  and  C_18
REMARK   10  A    between atoms: C_19  and  C_20
REMARK   11  A    between atoms: C_19  and  C_21
REMARK                            x       y       z     vdW  Elec       q    Type
REMARK                         _______ _______ _______ _____ _____    ______ ____
ROOT
ATOM      1  C   UNL     1      87.646  50.547  44.138  0.00  0.00    +0.009 A 
ATOM      2  C   UNL     1      87.244  51.862  43.853  0.00  0.00    -0.013 A 
ATOM      3  C   UNL     1      87.742  52.531  42.728  0.00  0.00    +0.118 A 
ATOM      4  C   UNL     1      88.660  51.890  41.885  0.00  0.00    -0.010 A 
ATOM      5  C   UNL     1      89.073  50.582  42.165  0.00  0.00    +0.020 A 
ATOM      6  C   UNL     1      88.568  49.911  43.286  0.00  0.00    +0.133 A 
ATOM      7  O   UNL     1      89.015  48.613  43.559  0.00  0.00    -0.481 OA
ATOM      8  C   UNL     1      89.676  47.787  42.588  0.00  0.00    +0.127 C 
ATOM      9  C   UNL     1      90.680  46.908  43.350  0.00  0.00    -0.021 C 
ATOM     10  C   UNL     1      90.426  48.641  41.576  0.00  0.00    -0.041 C 
ATOM     11  C   UNL     1      90.088  49.911  41.340  0.00  0.00    -0.051 C 
ENDROOT
BRANCH   3  12
ATOM     12  O   UNL     1      87.325  53.833  42.464  0.00  0.00    -0.507 OA
ATOM     13  H   UNL     1      86.852  54.023  41.677  0.00  0.00    +0.000 HD
ENDBRANCH   3  12
BRANCH   1  14
ATOM     14  C   UNL     1      87.129  49.849  45.367  0.00  0.00    +0.074 C 
BRANCH  14  15
ATOM     15  C   UNL     1      85.846  49.147  45.058  0.00  0.00    +0.311 C 
ATOM     16  O   UNL     1      85.801  47.887  45.068  0.00  0.00    -0.250 OA
BRANCH  15  18
ATOM     17  C   UNL     1      83.507  49.303  44.266  0.00  0.00    +0.082 C 
ATOM     18  O   UNL     1      84.718  49.898  44.713  0.00  0.00    -0.468 OA
ENDBRANCH  15  18
ENDBRANCH  14  15
ENDBRANCH   1  14
BRANCH   8  19
ATOM     19  C   UNL     1      88.585  46.928  41.892  0.00  0.00    -0.006 C 
BRANCH  19  20
ATOM     20  C   UNL     1      88.394  45.496  42.440  0.00  0.00    -0.031 C 
BRANCH  20  21
ATOM     21  C   UNL     1      87.016  45.276  43.022  0.00  0.00    -0.085 C 
ATOM     22  C   UNL     1      86.736  44.289  43.899  0.00  0.00    -0.080 C 
ATOM     23  C   UNL     1      87.796  43.321  44.366  0.00  0.00    -0.044 C 
ATOM     24  C   UNL     1      85.326  44.161  44.416  0.00  0.00    -0.044 C 
ENDBRANCH  20  21
ENDBRANCH  19  20
ENDBRANCH   8  19
TORSDOF 7
ENDMDL
MODEL 2
REMARK VINA RESULT:    -7.908      4.644      7.761
REMARK INTER + INTRA:         -11.794
REMARK INTER:                 -11.367
REMARK INTRA:                  -0.428
REMARK UNBOUND:                -0.882
REMARK  Name = 
REMARK  11 active torsions:
REMARK  status: ('A' for Active; 'I' for Inactive)
REMARK    1  A    between atoms: C_1  and  O_2
REMARK    2  A    between atoms: O_2  and  C_3
REMARK    3  A    between atoms: C_3  and  C_5
REMARK    4  A    between atoms: C_5  and  C_6
REMARK    5  A    between atoms: C_8  and  O_9
REMARK    6  A    between atoms: C_14  and  C_15
REMARK    7  A    between atoms: C_14  and  C_16
REMARK    8  A    between atoms: C_16  and  C_17
REMARK    9  A    between atoms: C_17  and  C_18
REMARK   10  A    between atoms: C_19  and  C_20
REMARK   11  A    between atoms: C_19  and  C_21
REMARK                            x       y       z     vdW  Elec       q    Type
REMARK                         _______ _______ _______ _____ _____    ______ ____
ROOT
ATOM      1  C   UNL     1      85.539  55.116  44.630  0.00  0.00    +0.009 A 
ATOM      2  C   UNL     1      85.882  56.285  43.932  0.00  0.00    -0.013 A 
ATOM      3  C   UNL     1      85.681  57.544  44.510  0.00  0.00    +0.118 A 
ATOM      4  C   UNL     1      85.122  57.642  45.792  0.00  0.00    -0.010 A 
ATOM      5  C   UNL     1      84.771  56.482  46.493  0.00  0.00    +0.020 A 
ATOM      6  C   UNL     1      84.979  55.224  45.917  0.00  0.00    +0.133 A 
ATOM      7  O   UNL     1      84.597  54.079  46.627  0.00  0.00    -0.481 OA
ATOM      8  C   UNL     1      84.338  54.079  48.039  0.00  0.00    +0.127 C 
ATOM      9  C   UNL     1      83.241  53.034  48.298  0.00  0.00    -0.021 C 
ATOM     10  C   UNL     1      83.847  55.444  48.496  0.00  0.00    -0.041 C 
ATOM     11  C   UNL     1      84.117  56.556  47.808  0.00  0.00    -0.051 C 
ENDROOT
BRANCH   3  12
ATOM     12  O   UNL     1      86.032  58.689  43.800  0.00  0.00    -0.507 OA
ATOM     13  H   UNL     1      86.484  58.614  42.982  0.00  0.00    +0.000 HD
ENDBRANCH   3  12
BRANCH   1  14
ATOM     14  C   UNL     1      85.730  53.768  43.986  0.00  0.00    +0.074 C 
BRANCH  14  15
ATOM     15  C   UNL     1      86.337  53.927  42.630  0.00  0.00    +0.311 C 
ATOM     16  O   UNL     1      87.572  53.731  42.468  0.00  0.00    -0.250 OA
BRANCH  15  18
ATOM     17  C   UNL     1      84.788  53.430  40.766  0.00  0.00    +0.082 C 
ATOM     18  O   UNL     1      85.535  54.341  41.562  0.00  0.00    -0.468 OA
ENDBRANCH  15  18
ENDBRANCH  14  15
ENDBRANCH   1  14
BRANCH   8  19
ATOM     19  C   UNL     1      85.664  53.696  48.753  0.00  0.00    -0.006 C 
BRANCH  19  20
ATOM     20  C   UNL     1      86.046  52.200  48.721  0.00  0.00    -0.031 C 
BRANCH  20  21
ATOM     21  C   UNL     1      86.418  51.726  47.334  0.00  0.00    -0.085 C 
ATOM     22  C   UNL     1      87.350  50.777  47.105  0.00  0.00    -0.080 C 
ATOM     23  C   UNL     1      88.098  50.114  48.236  0.00  0.00    -0.044 C 
ATOM     24  C   UNL     1      87.643  50.380  45.681  0.00  0.00    -0.044 C 
ENDBRANCH  20  21
ENDBRANCH  19  20
ENDBRANCH   8  19
TORSDOF 7
ENDMDL
MODEL 3
REMARK VINA RESULT:    -7.769      4.195      7.106
REMARK INTER + INTRA:         -11.603
REMARK INTER:                 -10.724
REMARK INTRA:                  -0.879
REMARK UNBOUND:                -0.882
REMARK  Name = 
REMARK  11 active torsions:
REMARK  status: ('A' for Active; 'I' for Inactive)
REMARK    1  A    between atoms: C_1  and  O_2
REMARK    2  A    between atoms: O_2  and  C_3
REMARK    3  A    between atoms: C_3  and  C_5
REMARK    4  A    between atoms: C_5  and  C_6
REMARK    5  A    between atoms: C_8  and  O_9
REMARK    6  A    between atoms: C_14  and  C_15
REMARK    7  A    between atoms: C_14  and  C_16
REMARK    8  A    between atoms: C_16  and  C_17
REMARK    9  A    between atoms: C_17  and  C_18
REMARK   10  A    between atoms: C_19  and  C_20
REMARK   11  A    between atoms: C_19  and  C_21
REMARK                            x       y       z     vdW  Elec       q    Type
REMARK                         _______ _______ _______ _____ _____    ______ ____
ROOT
ATOM      1  C   UNL     1      84.751  55.233  43.258  0.00  0.00    +0.009 A 
ATOM      2  C   UNL     1      84.766  56.637  43.265  0.00  0.00    -0.013 A 
ATOM      3  C   UNL     1      85.396  57.337  44.301  0.00  0.00    +0.118 A 
ATOM      4  C   UNL     1      86.007  56.633  45.348  0.00  0.00    -0.010 A 
ATOM      5  C   UNL     1      85.991  55.233  45.354  0.00  0.00    +0.020 A 
ATOM      6  C   UNL     1      85.367  54.534  44.313  0.00  0.00    +0.133 A 
ATOM      7  O   UNL     1      85.342  53.135  44.354  0.00  0.00    -0.481 OA
ATOM      8  C   UNL     1      86.211  52.356  45.190  0.00  0.00    +0.127 C 
ATOM      9  C   UNL     1      85.432  51.096  45.602  0.00  0.00    -0.021 C 
ATOM     10  C   UNL     1      86.598  53.135  46.438  0.00  0.00    -0.041 C 
ATOM     11  C   UNL     1      86.559  54.470  46.474  0.00  0.00    -0.051 C 
ENDROOT
BRANCH   3  12
ATOM     12  O   UNL     1      85.402  58.729  44.284  0.00  0.00    -0.507 OA
ATOM     13  H   UNL     1      86.171  59.191  44.014  0.00  0.00    +0.000 HD
ENDBRANCH   3  12
BRANCH   1  14
ATOM     14  C   UNL     1      84.043  54.490  42.156  0.00  0.00    +0.074 C 
BRANCH  14  15
ATOM     15  C   UNL     1      84.773  54.670  40.864  0.00  0.00    +0.311 C 
ATOM     16  O   UNL     1      85.511  53.746  40.426  0.00  0.00    -0.250 OA
BRANCH  15  18
ATOM     17  C   UNL     1      84.487  55.956  38.770  0.00  0.00    +0.082 C 
ATOM     18  O   UNL     1      84.667  55.884  40.178  0.00  0.00    -0.468 OA
ENDBRANCH  15  18
ENDBRANCH  14  15
ENDBRANCH   1  14
BRANCH   8  19
ATOM     19  C   UNL     1      87.465  51.996  44.347  0.00  0.00    -0.006 C 
BRANCH  19  20
ATOM     20  C   UNL     1      87.273  51.983  42.815  0.00  0.00    -0.031 C 
BRANCH  20  21
ATOM     21  C   UNL     1      88.303  52.823  42.093  0.00  0.00    -0.085 C 
ATOM     22  C   UNL     1      89.286  52.294  41.335  0.00  0.00    -0.080 C 
ATOM     23  C   UNL     1      89.427  50.802  41.151  0.00  0.00    -0.044 C 
ATOM     24  C   UNL     1      90.260  53.226  40.660  0.00  0.00    -0.044 C 
ENDBRANCH  20  21
ENDBRANCH  19  20
ENDBRANCH   8  19
TORSDOF 7
ENDMDL
MODEL 4
REMARK VINA RESULT:    -7.617      4.721      8.033
REMARK INTER + INTRA:         -11.393
REMARK INTER:                 -10.618
REMARK INTRA:                  -0.775
REMARK UNBOUND:                -0.882
REMARK  Name = 
REMARK  11 active torsions:
REMARK  status: ('A' for Active; 'I' for Inactive)
REMARK    1  A    between atoms: C_1  and  O_2
REMARK    2  A    between atoms: O_2  and  C_3
REMARK    3  A    between atoms: C_3  and  C_5
REMARK    4  A    between atoms: C_5  and  C_6
REMARK    5  A    between atoms: C_8  and  O_9
REMARK    6  A    between atoms: C_14  and  C_15
REMARK    7  A    between atoms: C_14  and  C_16
REMARK    8  A    between atoms: C_16  and  C_17
REMARK    9  A    between atoms: C_17  and  C_18
REMARK   10  A    between atoms: C_19  and  C_20
REMARK   11  A    between atoms: C_19  and  C_21
REMARK                            x       y       z     vdW  Elec       q    Type
REMARK                         _______ _______ _______ _____ _____    ______ ____
ROOT
ATOM      1  C   UNL     1      86.853  52.719  41.914  0.00  0.00    +0.009 A 
ATOM      2  C   UNL     1      86.113  53.043  40.765  0.00  0.00    -0.013 A 
ATOM      3  C   UNL     1      84.749  53.344  40.858  0.00  0.00    +0.118 A 
ATOM      4  C   UNL     1      84.111  53.311  42.105  0.00  0.00    -0.010 A 
ATOM      5  C   UNL     1      84.838  52.983  43.255  0.00  0.00    +0.020 A 
ATOM      6  C   UNL     1      86.204  52.690  43.162  0.00  0.00    +0.133 A 
ATOM      7  O   UNL     1      86.904  52.339  44.323  0.00  0.00    -0.481 OA
ATOM      8  C   UNL     1      86.416  52.604  45.647  0.00  0.00    +0.127 C 
ATOM      9  C   UNL     1      86.919  51.466  46.550  0.00  0.00    -0.021 C 
ATOM     10  C   UNL     1      84.895  52.621  45.666  0.00  0.00    -0.041 C 
ATOM     11  C   UNL     1      84.180  52.870  44.565  0.00  0.00    -0.051 C 
ENDROOT
BRANCH   3  12
ATOM     12  O   UNL     1      84.038  53.666  39.705  0.00  0.00    -0.507 OA
ATOM     13  H   UNL     1      83.173  53.327  39.578  0.00  0.00    +0.000 HD
ENDBRANCH   3  12
BRANCH   1  14
ATOM     14  C   UNL     1      88.312  52.367  41.799  0.00  0.00    +0.074 C 
BRANCH  14  15
ATOM     15  C   UNL     1      88.702  52.254  40.360  0.00  0.00    +0.311 C 
ATOM     16  O   UNL     1      88.603  51.145  39.769  0.00  0.00    -0.250 OA
BRANCH  15  18
ATOM     17  C   UNL     1      90.583  53.758  39.794  0.00  0.00    +0.082 C 
ATOM     18  O   UNL     1      89.218  53.372  39.699  0.00  0.00    -0.468 OA
ENDBRANCH  15  18
ENDBRANCH  14  15
ENDBRANCH   1  14
BRANCH   8  19
ATOM     19  C   UNL     1      86.995  53.976  46.089  0.00  0.00    -0.006 C 
BRANCH  19  20
ATOM     20  C   UNL     1      86.085  54.839  46.990  0.00  0.00    -0.031 C 
BRANCH  20  21
ATOM     21  C   UNL     1      85.920  56.249  46.469  0.00  0.00    -0.085 C 
ATOM     22  C   UNL     1      84.784  56.961  46.616  0.00  0.00    -0.080 C 
ATOM     23  C   UNL     1      83.578  56.390  47.321  0.00  0.00    -0.044 C 
ATOM     24  C   UNL     1      84.730  58.360  46.056  0.00  0.00    -0.044 C 
ENDBRANCH  20  21
ENDBRANCH  19  20
ENDBRANCH   8  19
TORSDOF 7
ENDMDL
MODEL 5
REMARK VINA RESULT:    -7.517      4.857      6.938
REMARK INTER + INTRA:         -11.256
REMARK INTER:                 -10.300
REMARK INTRA:                  -0.956
REMARK UNBOUND:                -0.882
REMARK  Name = 
REMARK  11 active torsions:
REMARK  status: ('A' for Active; 'I' for Inactive)
REMARK    1  A    between atoms: C_1  and  O_2
REMARK    2  A    between atoms: O_2  and  C_3
REMARK    3  A    between atoms: C_3  and  C_5
REMARK    4  A    between atoms: C_5  and  C_6
REMARK    5  A    between atoms: C_8  and  O_9
REMARK    6  A    between atoms: C_14  and  C_15
REMARK    7  A    between atoms: C_14  and  C_16
REMARK    8  A    between atoms: C_16  and  C_17
REMARK    9  A    between atoms: C_17  and  C_18
REMARK   10  A    between atoms: C_19  and  C_20
REMARK   11  A    between atoms: C_19  and  C_21
REMARK                            x       y       z     vdW  Elec       q    Type
REMARK                         _______ _______ _______ _____ _____    ______ ____
ROOT
ATOM      1  C   UNL     1      84.610  52.919  44.459  0.00  0.00    +0.009 A 
ATOM      2  C   UNL     1      85.248  52.867  43.209  0.00  0.00    -0.013 A 
ATOM      3  C   UNL     1      86.222  53.812  42.868  0.00  0.00    +0.118 A 
ATOM      4  C   UNL     1      86.557  54.828  43.774  0.00  0.00    -0.010 A 
ATOM      5  C   UNL     1      85.922  54.893  45.019  0.00  0.00    +0.020 A 
ATOM      6  C   UNL     1      84.953  53.942  45.363  0.00  0.00    +0.133 A 
ATOM      7  O   UNL     1      84.313  54.043  46.605  0.00  0.00    -0.481 OA
ATOM      8  C   UNL     1      84.824  54.829  47.692  0.00  0.00    +0.127 C 
ATOM      9  C   UNL     1      83.612  55.361  48.474  0.00  0.00    -0.021 C 
ATOM     10  C   UNL     1      85.638  56.003  47.171  0.00  0.00    -0.041 C 
ATOM     11  C   UNL     1      86.200  55.988  45.960  0.00  0.00    -0.051 C 
ENDROOT
BRANCH   3  12
ATOM     12  O   UNL     1      86.844  53.737  41.624  0.00  0.00    -0.507 OA
ATOM     13  H   UNL     1      86.759  52.963  41.103  0.00  0.00    +0.000 HD
ENDBRANCH   3  12
BRANCH   1  14
ATOM     14  C   UNL     1      83.541  51.917  44.805  0.00  0.00    +0.074 C 
BRANCH  14  15
ATOM     15  C   UNL     1      83.400  50.915  43.704  0.00  0.00    +0.311 C 
ATOM     16  O   UNL     1      84.071  49.848  43.737  0.00  0.00    -0.250 OA
BRANCH  15  18
ATOM     17  C   UNL     1      81.189  50.817  42.598  0.00  0.00    +0.082 C 
ATOM     18  O   UNL     1      82.559  51.196  42.623  0.00  0.00    -0.468 OA
ENDBRANCH  15  18
ENDBRANCH  14  15
ENDBRANCH   1  14
BRANCH   8  19
ATOM     19  C   UNL     1      85.697  53.891  48.571  0.00  0.00    -0.006 C 
BRANCH  19  20
ATOM     20  C   UNL     1      85.345  52.388  48.520  0.00  0.00    -0.031 C 
BRANCH  20  21
ATOM     21  C   UNL     1      86.540  51.502  48.792  0.00  0.00    -0.085 C 
ATOM     22  C   UNL     1      87.211  50.850  47.820  0.00  0.00    -0.080 C 
ATOM     23  C   UNL     1      86.809  50.962  46.370  0.00  0.00    -0.044 C 
ATOM     24  C   UNL     1      88.389  49.992  48.206  0.00  0.00    -0.044 C 
ENDBRANCH  20  21
ENDBRANCH  19  20
ENDBRANCH   8  19
TORSDOF 7
ENDMDL
MODEL 6
REMARK VINA RESULT:    -7.517      1.544      1.975
REMARK INTER + INTRA:         -11.255
REMARK INTER:                 -10.606
REMARK INTRA:                  -0.649
REMARK UNBOUND:                -0.882
REMARK  Name = 
REMARK  11 active torsions:
REMARK  status: ('A' for Active; 'I' for Inactive)
REMARK    1  A    between atoms: C_1  and  O_2
REMARK    2  A    between atoms: O_2  and  C_3
REMARK    3  A    between atoms: C_3  and  C_5
REMARK    4  A    between atoms: C_5  and  C_6
REMARK    5  A    between atoms: C_8  and  O_9
REMARK    6  A    between atoms: C_14  and  C_15
REMARK    7  A    between atoms: C_14  and  C_16
REMARK    8  A    between atoms: C_16  and  C_17
REMARK    9  A    between atoms: C_17  and  C_18
REMARK   10  A    between atoms: C_19  and  C_20
REMARK   11  A    between atoms: C_19  and  C_21
REMARK                            x       y       z     vdW  Elec       q    Type
REMARK                         _______ _______ _______ _____ _____    ______ ____
ROOT
ATOM      1  C   UNL     1      87.425  50.673  44.364  0.00  0.00    +0.009 A 
ATOM      2  C   UNL     1      86.953  51.980  44.157  0.00  0.00    -0.013 A 
ATOM      3  C   UNL     1      87.443  52.755  43.100  0.00  0.00    +0.118 A 
ATOM      4  C   UNL     1      88.422  52.229  42.244  0.00  0.00    -0.010 A 
ATOM      5  C   UNL     1      88.903  50.931  42.446  0.00  0.00    +0.020 A 
ATOM      6  C   UNL     1      88.407  50.153  43.500  0.00  0.00    +0.133 A 
ATOM      7  O   UNL     1      88.922  48.866  43.697  0.00  0.00    -0.481 OA
ATOM      8  C   UNL     1      89.658  48.151  42.692  0.00  0.00    +0.127 C 
ATOM      9  C   UNL     1      90.689  47.278  43.425  0.00  0.00    -0.021 C 
ATOM     10  C   UNL     1      90.385  49.116  41.768  0.00  0.00    -0.041 C 
ATOM     11  C   UNL     1      89.980  50.379  41.611  0.00  0.00    -0.051 C 
ENDROOT
BRANCH   3  12
ATOM     12  O   UNL     1      86.958  54.047  42.913  0.00  0.00    -0.507 OA
ATOM     13  H   UNL     1      87.430  54.779  43.256  0.00  0.00    +0.000 HD
ENDBRANCH   3  12
BRANCH   1  14
ATOM     14  C   UNL     1      86.914  49.860  45.523  0.00  0.00    +0.074 C 
BRANCH  14  15
ATOM     15  C   UNL     1      87.312  50.498  46.814  0.00  0.00    +0.311 C 
ATOM     16  O   UNL     1      88.345  50.103  47.418  0.00  0.00    -0.250 OA
BRANCH  15  18
ATOM     17  C   UNL     1      86.252  51.601  48.759  0.00  0.00    +0.082 C 
ATOM     18  O   UNL     1      86.504  51.498  47.364  0.00  0.00    -0.468 OA
ENDBRANCH  15  18
ENDBRANCH  14  15
ENDBRANCH   1  14
BRANCH   8  19
ATOM     19  C   UNL     1      88.640  47.283  41.902  0.00  0.00    -0.006 C 
BRANCH  19  20
ATOM     20  C   UNL     1      87.680  46.420  42.750  0.00  0.00    -0.031 C 
BRANCH  20  21
ATOM     21  C   UNL     1      88.083  44.963  42.780  0.00  0.00    -0.085 C 
ATOM     22  C   UNL     1      87.408  44.026  43.478  0.00  0.00    -0.080 C 
ATOM     23  C   UNL     1      86.184  44.373  44.290  0.00  0.00    -0.044 C 
ATOM     24  C   UNL     1      87.899  42.601  43.437  0.00  0.00    -0.044 C 
ENDBRANCH  20  21
ENDBRANCH  19  20
ENDBRANCH   8  19
TORSDOF 7
ENDMDL
MODEL 7
REMARK VINA RESULT:    -7.428      3.990      7.365
REMARK INTER + INTRA:         -11.133
REMARK INTER:                 -10.069
REMARK INTRA:                  -1.064
REMARK UNBOUND:                -0.882
REMARK  Name = 
REMARK  11 active torsions:
REMARK  status: ('A' for Active; 'I' for Inactive)
REMARK    1  A    between atoms: C_1  and  O_2
REMARK    2  A    between atoms: O_2  and  C_3
REMARK    3  A    between atoms: C_3  and  C_5
REMARK    4  A    between atoms: C_5  and  C_6
REMARK    5  A    between atoms: C_8  and  O_9
REMARK    6  A    between atoms: C_14  and  C_15
REMARK    7  A    between atoms: C_14  and  C_16
REMARK    8  A    between atoms: C_16  and  C_17
REMARK    9  A    between atoms: C_17  and  C_18
REMARK   10  A    between atoms: C_19  and  C_20
REMARK   11  A    between atoms: C_19  and  C_21
REMARK                            x       y       z     vdW  Elec       q    Type
REMARK                         _______ _______ _______ _____ _____    ______ ____
ROOT
ATOM      1  C   UNL     1      86.113  55.518  45.091  0.00  0.00    +0.009 A 
ATOM      2  C   UNL     1      86.197  55.366  46.485  0.00  0.00    -0.013 A 
ATOM      3  C   UNL     1      85.556  54.299  47.124  0.00  0.00    +0.118 A 
ATOM      4  C   UNL     1      84.814  53.378  46.372  0.00  0.00    -0.010 A 
ATOM      5  C   UNL     1      84.718  53.525  44.983  0.00  0.00    +0.020 A 
ATOM      6  C   UNL     1      85.366  54.589  44.343  0.00  0.00    +0.133 A 
ATOM      7  O   UNL     1      85.235  54.729  42.956  0.00  0.00    -0.481 OA
ATOM      8  C   UNL     1      84.786  53.670  42.097  0.00  0.00    +0.127 C 
ATOM      9  C   UNL     1      84.015  54.324  40.939  0.00  0.00    -0.021 C 
ATOM     10  C   UNL     1      83.857  52.727  42.846  0.00  0.00    -0.041 C 
ATOM     11  C   UNL     1      83.888  52.618  44.177  0.00  0.00    -0.051 C 
ENDROOT
BRANCH   3  12
ATOM     12  O   UNL     1      85.658  54.167  48.507  0.00  0.00    -0.507 OA
ATOM     13  H   UNL     1      84.913  53.896  49.007  0.00  0.00    +0.000 HD
ENDBRANCH   3  12
BRANCH   1  14
ATOM     14  C   UNL     1      86.780  56.687  44.417  0.00  0.00    +0.074 C 
BRANCH  14  15
ATOM     15  C   UNL     1      85.823  57.830  44.303  0.00  0.00    +0.311 C 
ATOM     16  O   UNL     1      85.285  58.090  43.192  0.00  0.00    -0.250 OA
BRANCH  15  18
ATOM     17  C   UNL     1      84.304  58.670  46.066  0.00  0.00    +0.082 C 
ATOM     18  O   UNL     1      85.571  58.629  45.422  0.00  0.00    -0.468 OA
ENDBRANCH  15  18
ENDBRANCH  14  15
ENDBRANCH   1  14
BRANCH   8  19
ATOM     19  C   UNL     1      86.047  52.921  41.586  0.00  0.00    -0.006 C 
BRANCH  19  20
ATOM     20  C   UNL     1      87.304  53.018  42.479  0.00  0.00    -0.031 C 
BRANCH  20  21
ATOM     21  C   UNL     1      88.145  51.763  42.436  0.00  0.00    -0.085 C 
ATOM     22  C   UNL     1      88.179  50.863  43.441  0.00  0.00    -0.080 C 
ATOM     23  C   UNL     1      87.365  51.052  44.699  0.00  0.00    -0.044 C 
ATOM     24  C   UNL     1      89.054  49.645  43.292  0.00  0.00    -0.044 C 
ENDBRANCH  20  21
ENDBRANCH  19  20
ENDBRANCH   8  19
TORSDOF 7
ENDMDL
MODEL 8
REMARK VINA RESULT:    -7.347      2.967      5.795
REMARK INTER + INTRA:         -11.020
REMARK INTER:                 -10.139
REMARK INTRA:                  -0.882
REMARK UNBOUND:                -0.882
REMARK  Name = 
REMARK  11 active torsions:
REMARK  status: ('A' for Active; 'I' for Inactive)
REMARK    1  A    between atoms: C_1  and  O_2
REMARK    2  A    between atoms: O_2  and  C_3
REMARK    3  A    between atoms: C_3  and  C_5
REMARK    4  A    between atoms: C_5  and  C_6
REMARK    5  A    between atoms: C_8  and  O_9
REMARK    6  A    between atoms: C_14  and  C_15
REMARK    7  A    between atoms: C_14  and  C_16
REMARK    8  A    between atoms: C_16  and  C_17
REMARK    9  A    between atoms: C_17  and  C_18
REMARK   10  A    between atoms: C_19  and  C_20
REMARK   11  A    between atoms: C_19  and  C_21
REMARK                            x       y       z     vdW  Elec       q    Type
REMARK                         _______ _______ _______ _____ _____    ______ ____
ROOT
ATOM      1  C   UNL     1      84.918  54.131  44.695  0.00  0.00    +0.009 A 
ATOM      2  C   UNL     1      84.853  55.380  45.335  0.00  0.00    -0.013 A 
ATOM      3  C   UNL     1      85.356  55.542  46.632  0.00  0.00    +0.118 A 
ATOM      4  C   UNL     1      85.917  54.448  47.305  0.00  0.00    -0.010 A 
ATOM      5  C   UNL     1      85.980  53.198  46.678  0.00  0.00    +0.020 A 
ATOM      6  C   UNL     1      85.485  53.038  45.378  0.00  0.00    +0.133 A 
ATOM      7  O   UNL     1      85.536  51.772  44.782  0.00  0.00    -0.481 OA
ATOM      8  C   UNL     1      86.376  50.711  45.260  0.00  0.00    +0.127 C 
ATOM      9  C   UNL     1      85.639  49.391  44.982  0.00  0.00    -0.021 C 
ATOM     10  C   UNL     1      86.614  50.845  46.757  0.00  0.00    -0.041 C 
ATOM     11  C   UNL     1      86.497  52.017  47.385  0.00  0.00    -0.051 C 
ENDROOT
BRANCH   3  12
ATOM     12  O   UNL     1      85.284  56.791  47.244  0.00  0.00    -0.507 OA
ATOM     13  H   UNL     1      86.070  57.253  47.458  0.00  0.00    +0.000 HD
ENDBRANCH   3  12
BRANCH   1  14
ATOM     14  C   UNL     1      84.348  53.959  43.313  0.00  0.00    +0.074 C 
BRANCH  14  15
ATOM     15  C   UNL     1      85.279  54.537  42.296  0.00  0.00    +0.311 C 
ATOM     16  O   UNL     1      84.972  55.603  41.698  0.00  0.00    -0.250 OA
BRANCH  15  18
ATOM     17  C   UNL     1      86.475  52.566  41.397  0.00  0.00    +0.082 C 
ATOM     18  O   UNL     1      86.462  53.860  41.986  0.00  0.00    -0.468 OA
ENDBRANCH  15  18
ENDBRANCH  14  15
ENDBRANCH   1  14
BRANCH   8  19
ATOM     19  C   UNL     1      87.714  50.789  44.474  0.00  0.00    -0.006 C 
BRANCH  19  20
ATOM     20  C   UNL     1      88.573  49.506  44.464  0.00  0.00    -0.031 C 
BRANCH  20  21
ATOM     21  C   UNL     1      88.973  49.085  43.067  0.00  0.00    -0.085 C 
ATOM     22  C   UNL     1      90.209  48.645  42.756  0.00  0.00    -0.080 C 
ATOM     23  C   UNL     1      91.297  48.541  43.797  0.00  0.00    -0.044 C 
ATOM     24  C   UNL     1      90.499  48.251  41.329  0.00  0.00    -0.044 C 
ENDBRANCH  20  21
ENDBRANCH  19  20
ENDBRANCH   8  19
TORSDOF 7
ENDMDL
MODEL 9
REMARK VINA RESULT:    -7.345      5.112      6.969
REMARK INTER + INTRA:         -11.017
REMARK INTER:                 -10.130
REMARK INTRA:                  -0.888
REMARK UNBOUND:                -0.882
REMARK  Name = 
REMARK  11 active torsions:
REMARK  status: ('A' for Active; 'I' for Inactive)
REMARK    1  A    between atoms: C_1  and  O_2
REMARK    2  A    between atoms: O_2  and  C_3
REMARK    3  A    between atoms: C_3  and  C_5
REMARK    4  A    between atoms: C_5  and  C_6
REMARK    5  A    between atoms: C_8  and  O_9
REMARK    6  A    between atoms: C_14  and  C_15
REMARK    7  A    between atoms: C_14  and  C_16
REMARK    8  A    between atoms: C_16  and  C_17
REMARK    9  A    between atoms: C_17  and  C_18
REMARK   10  A    between atoms: C_19  and  C_20
REMARK   11  A    between atoms: C_19  and  C_21
REMARK                            x       y       z     vdW  Elec       q    Type
REMARK                         _______ _______ _______ _____ _____    ______ ____
ROOT
ATOM      1  C   UNL     1      85.685  55.410  45.393  0.00  0.00    +0.009 A 
ATOM      2  C   UNL     1      85.526  56.765  45.727  0.00  0.00    -0.013 A 
ATOM      3  C   UNL     1      84.957  57.661  44.814  0.00  0.00    +0.118 A 
ATOM      4  C   UNL     1      84.553  57.208  43.550  0.00  0.00    -0.010 A 
ATOM      5  C   UNL     1      84.714  55.860  43.206  0.00  0.00    +0.020 A 
ATOM      6  C   UNL     1      85.275  54.963  44.122  0.00  0.00    +0.133 A 
ATOM      7  O   UNL     1      85.449  53.626  43.746  0.00  0.00    -0.481 OA
ATOM      8  C   UNL     1      84.771  53.029  42.629  0.00  0.00    +0.127 C 
ATOM      9  C   UNL     1      85.719  51.973  42.038  0.00  0.00    -0.021 C 
ATOM     10  C   UNL     1      84.460  54.072  41.567  0.00  0.00    -0.041 C 
ATOM     11  C   UNL     1      84.366  55.371  41.864  0.00  0.00    -0.051 C 
ENDROOT
BRANCH   3  12
ATOM     12  O   UNL     1      84.806  58.999  45.169  0.00  0.00    -0.507 OA
ATOM     13  H   UNL     1      85.436  59.633  44.885  0.00  0.00    +0.000 HD
ENDBRANCH   3  12
BRANCH   1  14
ATOM     14  C   UNL     1      86.326  54.461  46.370  0.00  0.00    +0.074 C 
BRANCH  14  15
ATOM     15  C   UNL     1      85.288  53.867  47.267  0.00  0.00    +0.311 C 
ATOM     16  O   UNL     1      84.725  52.786  46.945  0.00  0.00    -0.250 OA
BRANCH  15  18
ATOM     17  C   UNL     1      83.660  55.189  48.579  0.00  0.00    +0.082 C 
ATOM     18  O   UNL     1      84.918  54.544  48.432  0.00  0.00    -0.468 OA
ENDBRANCH  15  18
ENDBRANCH  14  15
ENDBRANCH   1  14
BRANCH   8  19
ATOM     19  C   UNL     1      83.469  52.379  43.172  0.00  0.00    -0.006 C 
BRANCH  19  20
ATOM     20  C   UNL     1      82.598  51.635  42.136  0.00  0.00    -0.031 C 
BRANCH  20  21
ATOM     21  C   UNL     1      81.203  51.351  42.647  0.00  0.00    -0.085 C 
ATOM     22  C   UNL     1      80.828  50.151  43.136  0.00  0.00    -0.080 C 
ATOM     23  C   UNL     1      81.790  48.990  43.209  0.00  0.00    -0.044 C 
ATOM     24  C   UNL     1      79.410  49.979  43.619  0.00  0.00    -0.044 C 
ENDBRANCH  20  21
ENDBRANCH  19  20
ENDBRANCH   8  19
TORSDOF 7
ENDMDL
