MODEL 1
REMARK VINA RESULT:    -8.908      0.000      0.000
REMARK INTER + INTRA:         -13.804
REMARK INTER:                 -12.635
REMARK INTRA:                  -1.169
REMARK UNBOUND:                -0.730
REMARK  Name = 
REMARK  9 active torsions:
REMARK  status: ('A' for Active; 'I' for Inactive)
REMARK    1  A    between atoms: C_1  and  O_2
REMARK    2  A    between atoms: O_2  and  C_3
REMARK    3  A    between atoms: C_4  and  O_5
REMARK    4  A    between atoms: O_5  and  C_6
REMARK    5  A    between atoms: C_6  and  C_8
REMARK    6  A    between atoms: C_18  and  C_19
REMARK    7  A    between atoms: C_19  and  O_20
REMARK    8  A    between atoms: O_20  and  C_21
REMARK    9  A    between atoms: C_21  and  C_23
REMARK                            x       y       z     vdW  Elec       q    Type
REMARK                         _______ _______ _______ _____ _____    ______ ____
ROOT
ATOM      1  C   UNL     1      85.696  53.829  42.905  0.00  0.00    +0.132 C 
ATOM      2  C   UNL     1      84.517  53.709  43.888  0.00  0.00    +0.161 C 
ATOM      3  C   UNL     1      84.236  52.239  44.240  0.00  0.00    +0.127 C 
ATOM      4  O   UNL     1      83.122  51.745  43.526  0.00  0.00    -0.362 OA
ATOM      5  C   UNL     1      84.378  51.218  43.169  0.00  0.00    +0.118 C 
ATOM      6  C   UNL     1      84.826  51.655  41.764  0.00  0.00    +0.123 C 
ATOM      7  C   UNL     1      85.489  52.980  41.631  0.00  0.00    +0.162 C 
ATOM      8  O   UNL     1      84.136  52.793  41.275  0.00  0.00    -0.356 OA
ENDROOT
BRANCH   1  10
ATOM      9  C   UNL     1      84.561  55.774  42.303  0.00  0.00    +0.037 C 
ATOM     10  O   UNL     1      85.826  55.193  42.530  0.00  0.00    -0.373 OA
ENDBRANCH   1  10
BRANCH   2  11
ATOM     11  O   UNL     1      84.837  54.432  45.076  0.00  0.00    -0.452 OA
BRANCH  11  12
ATOM     12  C   UNL     1      86.061  54.314  45.747  0.00  0.00    +0.340 C 
ATOM     13  O   UNL     1      86.913  55.243  45.678  0.00  0.00    -0.245 OA
BRANCH  12  14
ATOM     14  C   UNL     1      86.352  53.096  46.536  0.00  0.00    +0.059 A 
ATOM     15  C   UNL     1      85.739  52.899  47.787  0.00  0.00    -0.048 A 
ATOM     16  C   UNL     1      86.012  51.748  48.533  0.00  0.00    -0.061 A 
ATOM     17  C   UNL     1      86.896  50.785  48.041  0.00  0.00    -0.062 A 
ATOM     18  C   UNL     1      87.510  50.972  46.801  0.00  0.00    -0.061 A 
ATOM     19  C   UNL     1      87.241  52.121  46.050  0.00  0.00    -0.048 A 
ENDBRANCH  12  14
ENDBRANCH  11  12
ENDBRANCH   2  11
BRANCH   7  20
ATOM     20  C   UNL     1      86.426  53.183  40.430  0.00  0.00    +0.127 C 
BRANCH  20  21
ATOM     21  O   UNL     1      87.791  52.981  40.793  0.00  0.00    -0.458 OA
BRANCH  21  22
ATOM     22  C   UNL     1      88.532  51.871  40.373  0.00  0.00    +0.339 C 
ATOM     23  O   UNL     1      88.787  51.710  39.148  0.00  0.00    -0.245 OA
BRANCH  22  24
ATOM     24  C   UNL     1      89.012  50.889  41.369  0.00  0.00    +0.059 A 
ATOM     25  C   UNL     1      90.106  50.052  41.083  0.00  0.00    -0.048 A 
ATOM     26  C   UNL     1      90.555  49.127  42.032  0.00  0.00    -0.061 A 
ATOM     27  C   UNL     1      89.919  49.028  43.271  0.00  0.00    -0.062 A 
ATOM     28  C   UNL     1      88.831  49.855  43.565  0.00  0.00    -0.061 A 
ATOM     29  C   UNL     1      88.378  50.781  42.621  0.00  0.00    -0.048 A 
ENDBRANCH  22  24
ENDBRANCH  21  22
ENDBRANCH  20  21
ENDBRANCH   7  20
TORSDOF 8
ENDMDL
MODEL 2
REMARK VINA RESULT:    -8.892      4.952      8.485
REMARK INTER + INTRA:         -13.781
REMARK INTER:                 -13.020
REMARK INTRA:                  -0.762
REMARK UNBOUND:                -0.730
REMARK  Name = 
REMARK  9 active torsions:
REMARK  status: ('A' for Active; 'I' for Inactive)
REMARK    1  A    between atoms: C_1  and  O_2
REMARK    2  A    between atoms: O_2  and  C_3
REMARK    3  A    between atoms: C_4  and  O_5
REMARK    4  A    between atoms: O_5  and  C_6
REMARK    5  A    between atoms: C_6  and  C_8
REMARK    6  A    between atoms: C_18  and  C_19
REMARK    7  A    between atoms: C_19  and  O_20
REMARK    8  A    between atoms: O_20  and  C_21
REMARK    9  A    between atoms: C_21  and  C_23
REMARK                            x       y       z     vdW  Elec       q    Type
REMARK                         _______ _______ _______ _____ _____    ______ ____
ROOT
ATOM      1  C   UNL     1      85.844  45.847  42.436  0.00  0.00    +0.132 C 
ATOM      2  C   UNL     1      87.328  45.708  42.822  0.00  0.00    +0.161 C 
ATOM      3  C   UNL     1      87.731  44.231  42.955  0.00  0.00    +0.127 C 
ATOM      4  O   UNL     1      87.795  43.837  44.310  0.00  0.00    -0.362 OA
ATOM      5  C   UNL     1      86.751  43.283  43.545  0.00  0.00    +0.118 C 
ATOM      6  C   UNL     1      85.366  43.798  43.973  0.00  0.00    +0.123 C 
ATOM      7  C   UNL     1      84.910  45.099  43.415  0.00  0.00    +0.162 C 
ATOM      8  O   UNL     1      85.413  44.996  44.729  0.00  0.00    -0.356 OA
ENDROOT
BRANCH   1  10
ATOM      9  C   UNL     1      85.941  47.840  43.640  0.00  0.00    +0.037 C 
ATOM     10  O   UNL     1      85.508  47.226  42.447  0.00  0.00    -0.373 OA
ENDBRANCH   1  10
BRANCH   2  11
ATOM     11  O   UNL     1      88.122  46.331  41.812  0.00  0.00    -0.452 OA
BRANCH  11  12
ATOM     12  C   UNL     1      89.280  47.070  42.085  0.00  0.00    +0.340 C 
ATOM     13  O   UNL     1      90.300  46.497  42.558  0.00  0.00    -0.245 OA
BRANCH  12  14
ATOM     14  C   UNL     1      89.301  48.526  41.818  0.00  0.00    +0.059 A 
ATOM     15  C   UNL     1      88.151  49.175  41.334  0.00  0.00    -0.048 A 
ATOM     16  C   UNL     1      88.169  50.550  41.082  0.00  0.00    -0.061 A 
ATOM     17  C   UNL     1      89.331  51.290  41.310  0.00  0.00    -0.062 A 
ATOM     18  C   UNL     1      90.478  50.656  41.790  0.00  0.00    -0.061 A 
ATOM     19  C   UNL     1      90.467  49.281  42.044  0.00  0.00    -0.048 A 
ENDBRANCH  12  14
ENDBRANCH  11  12
ENDBRANCH   2  11
BRANCH   7  20
ATOM     20  C   UNL     1      83.395  45.346  43.346  0.00  0.00    +0.127 C 
BRANCH  20  21
ATOM     21  O   UNL     1      82.956  46.200  44.401  0.00  0.00    -0.458 OA
BRANCH  21  22
ATOM     22  C   UNL     1      81.675  46.760  44.442  0.00  0.00    +0.339 C 
ATOM     23  O   UNL     1      80.732  46.137  45.004  0.00  0.00    -0.245 OA
BRANCH  22  24
ATOM     24  C   UNL     1      81.430  48.081  43.824  0.00  0.00    +0.059 A 
ATOM     25  C   UNL     1      82.505  48.921  43.476  0.00  0.00    -0.048 A 
ATOM     26  C   UNL     1      82.265  50.168  42.891  0.00  0.00    -0.061 A 
ATOM     27  C   UNL     1      80.955  50.589  42.646  0.00  0.00    -0.062 A 
ATOM     28  C   UNL     1      79.882  49.762  42.988  0.00  0.00    -0.061 A 
ATOM     29  C   UNL     1      80.115  48.515  43.574  0.00  0.00    -0.048 A 
ENDBRANCH  22  24
ENDBRANCH  21  22
ENDBRANCH  20  21
ENDBRANCH   7  20
TORSDOF 8
ENDMDL
MODEL 3
REMARK VINA RESULT:    -8.886      2.618      5.080
REMARK INTER + INTRA:         -13.771
REMARK INTER:                 -12.904
REMARK INTRA:                  -0.867
REMARK UNBOUND:                -0.730
REMARK  Name = 
REMARK  9 active torsions:
REMARK  status: ('A' for Active; 'I' for Inactive)
REMARK    1  A    between atoms: C_1  and  O_2
REMARK    2  A    between atoms: O_2  and  C_3
REMARK    3  A    between atoms: C_4  and  O_5
REMARK    4  A    between atoms: O_5  and  C_6
REMARK    5  A    between atoms: C_6  and  C_8
REMARK    6  A    between atoms: C_18  and  C_19
REMARK    7  A    between atoms: C_19  and  O_20
REMARK    8  A    between atoms: O_20  and  C_21
REMARK    9  A    between atoms: C_21  and  C_23
REMARK                            x       y       z     vdW  Elec       q    Type
REMARK                         _______ _______ _______ _____ _____    ______ ____
ROOT
ATOM      1  C   UNL     1      85.659  53.995  43.383  0.00  0.00    +0.132 C 
ATOM      2  C   UNL     1      86.084  55.414  43.805  0.00  0.00    +0.161 C 
ATOM      3  C   UNL     1      84.874  56.359  43.867  0.00  0.00    +0.127 C 
ATOM      4  O   UNL     1      84.814  57.190  42.726  0.00  0.00    -0.362 OA
ATOM      5  C   UNL     1      83.809  56.211  42.842  0.00  0.00    +0.118 C 
ATOM      6  C   UNL     1      83.934  55.106  41.779  0.00  0.00    +0.123 C 
ATOM      7  C   UNL     1      84.875  53.987  42.052  0.00  0.00    +0.162 C 
ATOM      8  O   UNL     1      85.215  55.039  41.175  0.00  0.00    -0.356 OA
ENDROOT
BRANCH   1  10
ATOM      9  C   UNL     1      86.788  52.074  44.069  0.00  0.00    +0.037 C 
ATOM     10  O   UNL     1      86.830  53.207  43.229  0.00  0.00    -0.373 OA
ENDBRANCH   1  10
BRANCH   2  11
ATOM     11  O   UNL     1      86.702  55.342  45.089  0.00  0.00    -0.452 OA
BRANCH  11  12
ATOM     12  C   UNL     1      86.079  55.761  46.272  0.00  0.00    +0.340 C 
ATOM     13  O   UNL     1      85.966  56.992  46.526  0.00  0.00    -0.245 OA
BRANCH  12  14
ATOM     14  C   UNL     1      85.557  54.754  47.223  0.00  0.00    +0.059 A 
ATOM     15  C   UNL     1      86.082  53.449  47.233  0.00  0.00    -0.048 A 
ATOM     16  C   UNL     1      85.590  52.497  48.131  0.00  0.00    -0.061 A 
ATOM     17  C   UNL     1      84.573  52.835  49.025  0.00  0.00    -0.062 A 
ATOM     18  C   UNL     1      84.044  54.127  49.024  0.00  0.00    -0.061 A 
ATOM     19  C   UNL     1      84.531  55.084  48.128  0.00  0.00    -0.048 A 
ENDBRANCH  12  14
ENDBRANCH  11  12
ENDBRANCH   2  11
BRANCH   7  20
ATOM     20  C   UNL     1      84.606  52.649  41.344  0.00  0.00    +0.127 C 
BRANCH  20  21
ATOM     21  O   UNL     1      83.892  51.748  42.187  0.00  0.00    -0.458 OA
BRANCH  21  22
ATOM     22  C   UNL     1      82.522  51.499  42.045  0.00  0.00    +0.339 C 
ATOM     23  O   UNL     1      81.807  52.281  41.360  0.00  0.00    -0.245 OA
BRANCH  22  24
ATOM     24  C   UNL     1      81.918  50.319  42.701  0.00  0.00    +0.059 A 
ATOM     25  C   UNL     1      80.522  50.211  42.841  0.00  0.00    -0.048 A 
ATOM     26  C   UNL     1      79.959  49.091  43.461  0.00  0.00    -0.061 A 
ATOM     27  C   UNL     1      80.780  48.070  43.945  0.00  0.00    -0.062 A 
ATOM     28  C   UNL     1      82.167  48.167  43.810  0.00  0.00    -0.061 A 
ATOM     29  C   UNL     1      82.736  49.285  43.191  0.00  0.00    -0.048 A 
ENDBRANCH  22  24
ENDBRANCH  21  22
ENDBRANCH  20  21
ENDBRANCH   7  20
TORSDOF 8
ENDMDL
MODEL 4
REMARK VINA RESULT:    -8.778      2.246      6.170
REMARK INTER + INTRA:         -13.614
REMARK INTER:                 -12.528
REMARK INTRA:                  -1.086
REMARK UNBOUND:                -0.730
REMARK  Name = 
REMARK  9 active torsions:
REMARK  status: ('A' for Active; 'I' for Inactive)
REMARK    1  A    between atoms: C_1  and  O_2
REMARK    2  A    between atoms: O_2  and  C_3
REMARK    3  A    between atoms: C_4  and  O_5
REMARK    4  A    between atoms: O_5  and  C_6
REMARK    5  A    between atoms: C_6  and  C_8
REMARK    6  A    between atoms: C_18  and  C_19
REMARK    7  A    between atoms: C_19  and  O_20
REMARK    8  A    between atoms: O_20  and  C_21
REMARK    9  A    between atoms: C_21  and  C_23
REMARK                            x       y       z     vdW  Elec       q    Type
REMARK                         _______ _______ _______ _____ _____    ______ ____
ROOT
ATOM      1  C   UNL     1      86.292  52.324  41.495  0.00  0.00    +0.132 C 
ATOM      2  C   UNL     1      86.985  51.101  42.123  0.00  0.00    +0.161 C 
ATOM      3  C   UNL     1      85.975  50.211  42.864  0.00  0.00    +0.127 C 
ATOM      4  O   UNL     1      86.039  50.415  44.260  0.00  0.00    -0.362 OA
ATOM      5  C   UNL     1      84.874  50.869  43.615  0.00  0.00    +0.118 C 
ATOM      6  C   UNL     1      84.762  52.403  43.601  0.00  0.00    +0.123 C 
ATOM      7  C   UNL     1      85.486  53.139  42.530  0.00  0.00    +0.162 C 
ATOM      8  O   UNL     1      85.992  53.065  43.846  0.00  0.00    -0.356 OA
ENDROOT
BRANCH   1  10
ATOM      9  C   UNL     1      87.221  53.153  39.524  0.00  0.00    +0.037 C 
ATOM     10  O   UNL     1      87.291  53.162  40.932  0.00  0.00    -0.373 OA
ENDBRANCH   1  10
BRANCH   2  11
ATOM     11  O   UNL     1      87.613  50.349  41.085  0.00  0.00    -0.452 OA
BRANCH  11  12
ATOM     12  C   UNL     1      88.998  50.159  40.996  0.00  0.00    +0.340 C 
ATOM     13  O   UNL     1      89.700  50.941  40.296  0.00  0.00    -0.245 OA
BRANCH  12  14
ATOM     14  C   UNL     1      89.634  49.039  41.724  0.00  0.00    +0.059 A 
ATOM     15  C   UNL     1      90.661  49.288  42.653  0.00  0.00    -0.048 A 
ATOM     16  C   UNL     1      91.262  48.231  43.342  0.00  0.00    -0.061 A 
ATOM     17  C   UNL     1      90.847  46.917  43.113  0.00  0.00    -0.062 A 
ATOM     18  C   UNL     1      89.829  46.658  42.193  0.00  0.00    -0.061 A 
ATOM     19  C   UNL     1      89.223  47.711  41.500  0.00  0.00    -0.048 A 
ENDBRANCH  12  14
ENDBRANCH  11  12
ENDBRANCH   2  11
BRANCH   7  20
ATOM     20  C   UNL     1      84.954  54.529  42.146  0.00  0.00    +0.127 C 
BRANCH  20  21
ATOM     21  O   UNL     1      85.834  55.563  42.581  0.00  0.00    -0.458 OA
BRANCH  21  22
ATOM     22  C   UNL     1      85.452  56.550  43.497  0.00  0.00    +0.339 C 
ATOM     23  O   UNL     1      85.233  57.728  43.101  0.00  0.00    -0.245 OA
BRANCH  22  24
ATOM     24  C   UNL     1      85.307  56.206  44.928  0.00  0.00    +0.059 A 
ATOM     25  C   UNL     1      86.424  55.815  45.690  0.00  0.00    -0.048 A 
ATOM     26  C   UNL     1      86.278  55.493  47.043  0.00  0.00    -0.061 A 
ATOM     27  C   UNL     1      85.021  55.559  47.649  0.00  0.00    -0.062 A 
ATOM     28  C   UNL     1      83.906  55.947  46.901  0.00  0.00    -0.061 A 
ATOM     29  C   UNL     1      84.045  56.269  45.548  0.00  0.00    -0.048 A 
ENDBRANCH  22  24
ENDBRANCH  21  22
ENDBRANCH  20  21
ENDBRANCH   7  20
TORSDOF 8
ENDMDL
MODEL 5
REMARK VINA RESULT:    -8.737      2.173      6.711
REMARK INTER + INTRA:         -13.554
REMARK INTER:                 -12.505
REMARK INTRA:                  -1.049
REMARK UNBOUND:                -0.730
REMARK  Name = 
REMARK  9 active torsions:
REMARK  status: ('A' for Active; 'I' for Inactive)
REMARK    1  A    between atoms: C_1  and  O_2
REMARK    2  A    between atoms: O_2  and  C_3
REMARK    3  A    between atoms: C_4  and  O_5
REMARK    4  A    between atoms: O_5  and  C_6
REMARK    5  A    between atoms: C_6  and  C_8
REMARK    6  A    between atoms: C_18  and  C_19
REMARK    7  A    between atoms: C_19  and  O_20
REMARK    8  A    between atoms: O_20  and  C_21
REMARK    9  A    between atoms: C_21  and  C_23
REMARK                            x       y       z     vdW  Elec       q    Type
REMARK                         _______ _______ _______ _____ _____    ______ ____
ROOT
ATOM      1  C   UNL     1      86.965  52.148  44.494  0.00  0.00    +0.132 C 
ATOM      2  C   UNL     1      86.818  51.583  43.069  0.00  0.00    +0.161 C 
ATOM      3  C   UNL     1      85.777  52.375  42.263  0.00  0.00    +0.127 C 
ATOM      4  O   UNL     1      84.547  51.684  42.193  0.00  0.00    -0.362 OA
ATOM      5  C   UNL     1      84.561  52.860  42.965  0.00  0.00    +0.118 C 
ATOM      6  C   UNL     1      84.397  52.584  44.470  0.00  0.00    +0.123 C 
ATOM      7  C   UNL     1      85.614  52.218  45.242  0.00  0.00    +0.162 C 
ATOM      8  O   UNL     1      84.678  51.243  44.835  0.00  0.00    -0.356 OA
ENDROOT
BRANCH   1  10
ATOM      9  C   UNL     1      87.499  49.947  45.047  0.00  0.00    +0.037 C 
ATOM     10  O   UNL     1      87.846  51.303  45.220  0.00  0.00    -0.373 OA
ENDBRANCH   1  10
BRANCH   2  11
ATOM     11  O   UNL     1      88.085  51.655  42.416  0.00  0.00    -0.452 OA
BRANCH  11  12
ATOM     12  C   UNL     1      88.480  50.780  41.397  0.00  0.00    +0.340 C 
ATOM     13  O   UNL     1      88.353  51.119  40.188  0.00  0.00    -0.245 OA
BRANCH  12  14
ATOM     14  C   UNL     1      89.046  49.457  41.743  0.00  0.00    +0.059 A 
ATOM     15  C   UNL     1      88.345  48.280  41.421  0.00  0.00    -0.048 A 
ATOM     16  C   UNL     1      88.879  47.029  41.746  0.00  0.00    -0.061 A 
ATOM     17  C   UNL     1      90.113  46.939  42.394  0.00  0.00    -0.062 A 
ATOM     18  C   UNL     1      90.816  48.101  42.718  0.00  0.00    -0.061 A 
ATOM     19  C   UNL     1      90.288  49.355  42.396  0.00  0.00    -0.048 A 
ENDBRANCH  12  14
ENDBRANCH  11  12
ENDBRANCH   2  11
BRANCH   7  20
ATOM     20  C   UNL     1      85.603  52.499  46.752  0.00  0.00    +0.127 C 
BRANCH  20  21
ATOM     21  O   UNL     1      86.185  53.767  47.051  0.00  0.00    -0.458 OA
BRANCH  21  22
ATOM     22  C   UNL     1      85.431  54.940  47.168  0.00  0.00    +0.339 C 
ATOM     23  O   UNL     1      84.615  55.073  48.122  0.00  0.00    -0.245 OA
BRANCH  22  24
ATOM     24  C   UNL     1      85.594  56.020  46.171  0.00  0.00    +0.059 A 
ATOM     25  C   UNL     1      84.932  57.252  46.331  0.00  0.00    -0.048 A 
ATOM     26  C   UNL     1      85.092  58.268  45.384  0.00  0.00    -0.061 A 
ATOM     27  C   UNL     1      85.912  58.068  44.271  0.00  0.00    -0.062 A 
ATOM     28  C   UNL     1      86.574  56.849  44.103  0.00  0.00    -0.061 A 
ATOM     29  C   UNL     1      86.417  55.828  45.046  0.00  0.00    -0.048 A 
ENDBRANCH  22  24
ENDBRANCH  21  22
ENDBRANCH  20  21
ENDBRANCH   7  20
TORSDOF 8
ENDMDL
MODEL 6
REMARK VINA RESULT:    -8.677      2.330      3.246
REMARK INTER + INTRA:         -13.465
REMARK INTER:                 -12.735
REMARK INTRA:                  -0.730
REMARK UNBOUND:                -0.730
REMARK  Name = 
REMARK  9 active torsions:
REMARK  status: ('A' for Active; 'I' for Inactive)
REMARK    1  A    between atoms: C_1  and  O_2
REMARK    2  A    between atoms: O_2  and  C_3
REMARK    3  A    between atoms: C_4  and  O_5
REMARK    4  A    between atoms: O_5  and  C_6
REMARK    5  A    between atoms: C_6  and  C_8
REMARK    6  A    between atoms: C_18  and  C_19
REMARK    7  A    between atoms: C_19  and  O_20
REMARK    8  A    between atoms: O_20  and  C_21
REMARK    9  A    between atoms: C_21  and  C_23
REMARK                            x       y       z     vdW  Elec       q    Type
REMARK                         _______ _______ _______ _____ _____    ______ ____
ROOT
ATOM      1  C   UNL     1      87.157  51.486  43.928  0.00  0.00    +0.132 C 
ATOM      2  C   UNL     1      86.431  51.092  45.228  0.00  0.00    +0.161 C 
ATOM      3  C   UNL     1      86.500  49.575  45.464  0.00  0.00    +0.127 C 
ATOM      4  O   UNL     1      85.286  48.945  45.112  0.00  0.00    -0.362 OA
ATOM      5  C   UNL     1      86.395  48.672  44.289  0.00  0.00    +0.118 C 
ATOM      6  C   UNL     1      86.252  49.279  42.882  0.00  0.00    +0.123 C 
ATOM      7  C   UNL     1      86.633  50.705  42.702  0.00  0.00    +0.162 C 
ATOM      8  O   UNL     1      85.282  50.310  42.802  0.00  0.00    -0.356 OA
ENDROOT
BRANCH   1  10
ATOM      9  C   UNL     1      85.583  53.196  43.761  0.00  0.00    +0.037 C 
ATOM     10  O   UNL     1      86.954  52.873  43.707  0.00  0.00    -0.373 OA
ENDBRANCH   1  10
BRANCH   2  11
ATOM     11  O   UNL     1      87.046  51.775  46.319  0.00  0.00    -0.452 OA
BRANCH  11  12
ATOM     12  C   UNL     1      86.352  52.192  47.462  0.00  0.00    +0.340 C 
ATOM     13  O   UNL     1      86.373  51.486  48.508  0.00  0.00    -0.245 OA
BRANCH  12  14
ATOM     14  C   UNL     1      85.591  53.461  47.436  0.00  0.00    +0.059 A 
ATOM     15  C   UNL     1      84.235  53.483  47.813  0.00  0.00    -0.048 A 
ATOM     16  C   UNL     1      83.516  54.681  47.790  0.00  0.00    -0.061 A 
ATOM     17  C   UNL     1      84.137  55.867  47.392  0.00  0.00    -0.062 A 
ATOM     18  C   UNL     1      85.482  55.856  47.016  0.00  0.00    -0.061 A 
ATOM     19  C   UNL     1      86.208  54.661  47.037  0.00  0.00    -0.048 A 
ENDBRANCH  12  14
ENDBRANCH  11  12
ENDBRANCH   2  11
BRANCH   7  20
ATOM     20  C   UNL     1      87.047  51.153  41.291  0.00  0.00    +0.127 C 
BRANCH  20  21
ATOM     21  O   UNL     1      88.100  50.340  40.774  0.00  0.00    -0.458 OA
BRANCH  21  22
ATOM     22  C   UNL     1      89.394  50.345  41.305  0.00  0.00    +0.339 C 
ATOM     23  O   UNL     1      90.094  51.393  41.252  0.00  0.00    -0.245 OA
BRANCH  22  24
ATOM     24  C   UNL     1      89.936  49.118  41.928  0.00  0.00    +0.059 A 
ATOM     25  C   UNL     1      90.910  49.197  42.942  0.00  0.00    -0.048 A 
ATOM     26  C   UNL     1      91.416  48.032  43.526  0.00  0.00    -0.061 A 
ATOM     27  C   UNL     1      90.958  46.780  43.109  0.00  0.00    -0.062 A 
ATOM     28  C   UNL     1      89.991  46.691  42.104  0.00  0.00    -0.061 A 
ATOM     29  C   UNL     1      89.481  47.853  41.515  0.00  0.00    -0.048 A 
ENDBRANCH  22  24
ENDBRANCH  21  22
ENDBRANCH  20  21
ENDBRANCH   7  20
TORSDOF 8
ENDMDL
MODEL 7
REMARK VINA RESULT:    -8.648      3.660      6.404
REMARK INTER + INTRA:         -13.422
REMARK INTER:                 -12.450
REMARK INTRA:                  -0.972
REMARK UNBOUND:                -0.730
REMARK  Name = 
REMARK  9 active torsions:
REMARK  status: ('A' for Active; 'I' for Inactive)
REMARK    1  A    between atoms: C_1  and  O_2
REMARK    2  A    between atoms: O_2  and  C_3
REMARK    3  A    between atoms: C_4  and  O_5
REMARK    4  A    between atoms: O_5  and  C_6
REMARK    5  A    between atoms: C_6  and  C_8
REMARK    6  A    between atoms: C_18  and  C_19
REMARK    7  A    between atoms: C_19  and  O_20
REMARK    8  A    between atoms: O_20  and  C_21
REMARK    9  A    between atoms: C_21  and  C_23
REMARK                            x       y       z     vdW  Elec       q    Type
REMARK                         _______ _______ _______ _____ _____    ______ ____
ROOT
ATOM      1  C   UNL     1      85.100  51.160  44.344  0.00  0.00    +0.132 C 
ATOM      2  C   UNL     1      85.355  52.088  45.546  0.00  0.00    +0.161 C 
ATOM      3  C   UNL     1      86.859  52.247  45.814  0.00  0.00    +0.127 C 
ATOM      4  O   UNL     1      87.273  51.448  46.903  0.00  0.00    -0.362 OA
ATOM      5  C   UNL     1      87.738  51.063  45.631  0.00  0.00    +0.118 C 
ATOM      6  C   UNL     1      87.125  49.735  45.153  0.00  0.00    +0.123 C 
ATOM      7  C   UNL     1      85.787  49.785  44.507  0.00  0.00    +0.162 C 
ATOM      8  O   UNL     1      85.943  49.372  45.847  0.00  0.00    -0.356 OA
ENDROOT
BRANCH   1  10
ATOM      9  C   UNL     1      83.214  51.506  43.018  0.00  0.00    +0.037 C 
ATOM     10  O   UNL     1      83.699  50.960  44.224  0.00  0.00    -0.373 OA
ENDBRANCH   1  10
BRANCH   2  11
ATOM     11  O   UNL     1      84.781  53.365  45.266  0.00  0.00    -0.452 OA
BRANCH  11  12
ATOM     12  C   UNL     1      84.654  54.382  46.221  0.00  0.00    +0.340 C 
ATOM     13  O   UNL     1      84.317  54.100  47.404  0.00  0.00    -0.245 OA
BRANCH  12  14
ATOM     14  C   UNL     1      84.914  55.786  45.836  0.00  0.00    +0.059 A 
ATOM     15  C   UNL     1      85.818  56.081  44.798  0.00  0.00    -0.048 A 
ATOM     16  C   UNL     1      86.065  57.408  44.433  0.00  0.00    -0.061 A 
ATOM     17  C   UNL     1      85.415  58.452  45.095  0.00  0.00    -0.062 A 
ATOM     18  C   UNL     1      84.516  58.170  46.126  0.00  0.00    -0.061 A 
ATOM     19  C   UNL     1      84.265  56.845  46.497  0.00  0.00    -0.048 A 
ENDBRANCH  12  14
ENDBRANCH  11  12
ENDBRANCH   2  11
BRANCH   7  20
ATOM     20  C   UNL     1      85.426  48.644  43.542  0.00  0.00    +0.127 C 
BRANCH  20  21
ATOM     21  O   UNL     1      84.467  47.758  44.117  0.00  0.00    -0.458 OA
BRANCH  21  22
ATOM     22  C   UNL     1      83.564  47.015  43.350  0.00  0.00    +0.339 C 
ATOM     23  O   UNL     1      83.989  46.240  42.449  0.00  0.00    -0.245 OA
BRANCH  22  24
ATOM     24  C   UNL     1      82.111  47.143  43.597  0.00  0.00    +0.059 A 
ATOM     25  C   UNL     1      81.374  46.066  44.123  0.00  0.00    -0.048 A 
ATOM     26  C   UNL     1      80.001  46.195  44.355  0.00  0.00    -0.061 A 
ATOM     27  C   UNL     1      79.352  47.398  44.068  0.00  0.00    -0.062 A 
ATOM     28  C   UNL     1      80.074  48.474  43.546  0.00  0.00    -0.061 A 
ATOM     29  C   UNL     1      81.447  48.350  43.311  0.00  0.00    -0.048 A 
ENDBRANCH  22  24
ENDBRANCH  21  22
ENDBRANCH  20  21
ENDBRANCH   7  20
TORSDOF 8
ENDMDL
MODEL 8
REMARK VINA RESULT:    -8.632      1.987      3.329
REMARK INTER + INTRA:         -13.400
REMARK INTER:                 -12.420
REMARK INTRA:                  -0.980
REMARK UNBOUND:                -0.730
REMARK  Name = 
REMARK  9 active torsions:
REMARK  status: ('A' for Active; 'I' for Inactive)
REMARK    1  A    between atoms: C_1  and  O_2
REMARK    2  A    between atoms: O_2  and  C_3
REMARK    3  A    between atoms: C_4  and  O_5
REMARK    4  A    between atoms: O_5  and  C_6
REMARK    5  A    between atoms: C_6  and  C_8
REMARK    6  A    between atoms: C_18  and  C_19
REMARK    7  A    between atoms: C_19  and  O_20
REMARK    8  A    between atoms: O_20  and  C_21
REMARK    9  A    between atoms: C_21  and  C_23
REMARK                            x       y       z     vdW  Elec       q    Type
REMARK                         _______ _______ _______ _____ _____    ______ ____
ROOT
ATOM      1  C   UNL     1      85.785  53.678  43.762  0.00  0.00    +0.132 C 
ATOM      2  C   UNL     1      86.119  55.111  43.308  0.00  0.00    +0.161 C 
ATOM      3  C   UNL     1      84.861  55.844  42.817  0.00  0.00    +0.127 C 
ATOM      4  O   UNL     1      84.805  55.879  41.406  0.00  0.00    -0.362 OA
ATOM      5  C   UNL     1      83.848  55.073  42.050  0.00  0.00    +0.118 C 
ATOM      6  C   UNL     1      84.073  53.572  41.801  0.00  0.00    +0.123 C 
ATOM      7  C   UNL     1      85.058  52.867  42.665  0.00  0.00    +0.162 C 
ATOM      8  O   UNL     1      85.380  53.259  41.348  0.00  0.00    -0.356 OA
ENDROOT
BRANCH   1  10
ATOM      9  C   UNL     1      86.926  52.431  45.367  0.00  0.00    +0.037 C 
ATOM     10  O   UNL     1      87.000  53.019  44.088  0.00  0.00    -0.373 OA
ENDBRANCH   1  10
BRANCH   2  11
ATOM     11  O   UNL     1      86.686  55.818  44.410  0.00  0.00    -0.452 OA
BRANCH  11  12
ATOM     12  C   UNL     1      85.924  56.513  45.357  0.00  0.00    +0.340 C 
ATOM     13  O   UNL     1      85.735  57.755  45.230  0.00  0.00    -0.245 OA
BRANCH  12  14
ATOM     14  C   UNL     1      85.344  55.787  46.509  0.00  0.00    +0.059 A 
ATOM     15  C   UNL     1      83.951  55.771  46.708  0.00  0.00    -0.048 A 
ATOM     16  C   UNL     1      83.401  55.084  47.794  0.00  0.00    -0.061 A 
ATOM     17  C   UNL     1      84.231  54.410  48.692  0.00  0.00    -0.062 A 
ATOM     18  C   UNL     1      85.615  54.420  48.504  0.00  0.00    -0.061 A 
ATOM     19  C   UNL     1      86.172  55.105  47.419  0.00  0.00    -0.048 A 
ENDBRANCH  12  14
ENDBRANCH  11  12
ENDBRANCH   2  11
BRANCH   7  20
ATOM     20  C   UNL     1      84.887  51.350  42.838  0.00  0.00    +0.127 C 
BRANCH  20  21
ATOM     21  O   UNL     1      86.002  50.635  42.308  0.00  0.00    -0.458 OA
BRANCH  21  22
ATOM     22  C   UNL     1      86.664  49.627  43.017  0.00  0.00    +0.339 C 
ATOM     23  O   UNL     1      86.150  49.152  44.068  0.00  0.00    -0.245 OA
BRANCH  22  24
ATOM     24  C   UNL     1      87.966  49.122  42.531  0.00  0.00    +0.059 A 
ATOM     25  C   UNL     1      89.125  49.916  42.621  0.00  0.00    -0.048 A 
ATOM     26  C   UNL     1      90.352  49.430  42.161  0.00  0.00    -0.061 A 
ATOM     27  C   UNL     1      90.438  48.150  41.608  0.00  0.00    -0.062 A 
ATOM     28  C   UNL     1      89.294  47.353  41.514  0.00  0.00    -0.061 A 
ATOM     29  C   UNL     1      88.063  47.834  41.973  0.00  0.00    -0.048 A 
ENDBRANCH  22  24
ENDBRANCH  21  22
ENDBRANCH  20  21
ENDBRANCH   7  20
TORSDOF 8
ENDMDL
MODEL 9
REMARK VINA RESULT:    -8.627      2.134      5.543
REMARK INTER + INTRA:         -13.392
REMARK INTER:                 -11.667
REMARK INTRA:                  -1.725
REMARK UNBOUND:                -0.730
REMARK  Name = 
REMARK  9 active torsions:
REMARK  status: ('A' for Active; 'I' for Inactive)
REMARK    1  A    between atoms: C_1  and  O_2
REMARK    2  A    between atoms: O_2  and  C_3
REMARK    3  A    between atoms: C_4  and  O_5
REMARK    4  A    between atoms: O_5  and  C_6
REMARK    5  A    between atoms: C_6  and  C_8
REMARK    6  A    between atoms: C_18  and  C_19
REMARK    7  A    between atoms: C_19  and  O_20
REMARK    8  A    between atoms: O_20  and  C_21
REMARK    9  A    between atoms: C_21  and  C_23
REMARK                            x       y       z     vdW  Elec       q    Type
REMARK                         _______ _______ _______ _____ _____    ______ ____
ROOT
ATOM      1  C   UNL     1      86.269  51.483  42.917  0.00  0.00    +0.132 C 
ATOM      2  C   UNL     1      85.073  51.849  42.018  0.00  0.00    +0.161 C 
ATOM      3  C   UNL     1      83.794  52.038  42.848  0.00  0.00    +0.127 C 
ATOM      4  O   UNL     1      82.952  50.907  42.758  0.00  0.00    -0.362 OA
ATOM      5  C   UNL     1      83.564  51.136  44.006  0.00  0.00    +0.118 C 
ATOM      6  C   UNL     1      84.618  50.070  44.353  0.00  0.00    +0.123 C 
ATOM      7  C   UNL     1      85.986  50.244  43.797  0.00  0.00    +0.162 C 
ATOM      8  O   UNL     1      85.070  49.331  43.232  0.00  0.00    -0.356 OA
ENDROOT
BRANCH   1  10
ATOM      9  C   UNL     1      88.424  52.130  42.309  0.00  0.00    +0.037 C 
ATOM     10  O   UNL     1      87.384  51.205  42.083  0.00  0.00    -0.373 OA
ENDBRANCH   1  10
BRANCH   2  11
ATOM     11  O   UNL     1      85.377  53.059  41.325  0.00  0.00    -0.452 OA
BRANCH  11  12
ATOM     12  C   UNL     1      84.675  54.256  41.514  0.00  0.00    +0.340 C 
ATOM     13  O   UNL     1      83.629  54.488  40.847  0.00  0.00    -0.245 OA
BRANCH  12  14
ATOM     14  C   UNL     1      85.166  55.248  42.496  0.00  0.00    +0.059 A 
ATOM     15  C   UNL     1      84.420  56.411  42.762  0.00  0.00    -0.048 A 
ATOM     16  C   UNL     1      84.882  57.349  43.690  0.00  0.00    -0.061 A 
ATOM     17  C   UNL     1      86.089  57.138  44.361  0.00  0.00    -0.062 A 
ATOM     18  C   UNL     1      86.838  55.988  44.103  0.00  0.00    -0.061 A 
ATOM     19  C   UNL     1      86.381  55.045  43.176  0.00  0.00    -0.048 A 
ENDBRANCH  12  14
ENDBRANCH  11  12
ENDBRANCH   2  11
BRANCH   7  20
ATOM     20  C   UNL     1      87.146  49.576  44.552  0.00  0.00    +0.127 C 
BRANCH  20  21
ATOM     21  O   UNL     1      87.834  50.510  45.382  0.00  0.00    -0.458 OA
BRANCH  21  22
ATOM     22  C   UNL     1      87.537  50.685  46.737  0.00  0.00    +0.339 C 
ATOM     23  O   UNL     1      88.030  49.904  47.597  0.00  0.00    -0.245 OA
BRANCH  22  24
ATOM     24  C   UNL     1      86.644  51.786  47.157  0.00  0.00    +0.059 A 
ATOM     25  C   UNL     1      86.388  52.871  46.298  0.00  0.00    -0.048 A 
ATOM     26  C   UNL     1      85.541  53.908  46.702  0.00  0.00    -0.061 A 
ATOM     27  C   UNL     1      84.940  53.873  47.963  0.00  0.00    -0.062 A 
ATOM     28  C   UNL     1      85.187  52.800  48.823  0.00  0.00    -0.061 A 
ATOM     29  C   UNL     1      86.034  51.761  48.425  0.00  0.00    -0.048 A 
ENDBRANCH  22  24
ENDBRANCH  21  22
ENDBRANCH  20  21
ENDBRANCH   7  20
TORSDOF 8
ENDMDL
