MODEL 1
REMARK VINA RESULT:    -8.728      0.000      0.000
REMARK INTER + INTRA:         -13.833
REMARK INTER:                 -12.772
REMARK INTRA:                  -1.061
REMARK UNBOUND:                -1.023
REMARK  Name = 
REMARK  9 active torsions:
REMARK  status: ('A' for Active; 'I' for Inactive)
REMARK    1  A    between atoms: C_1  and  O_2
REMARK    2  A    between atoms: O_2  and  C_3
REMARK    3  A    between atoms: C_4  and  O_5
REMARK    4  A    between atoms: O_5  and  C_6
REMARK    5  A    between atoms: C_6  and  C_8
REMARK    6  A    between atoms: C_18  and  C_19
REMARK    7  A    between atoms: C_19  and  O_20
REMARK    8  A    between atoms: O_20  and  C_21
REMARK    9  A    between atoms: C_21  and  C_23
REMARK                            x       y       z     vdW  Elec       q    Type
REMARK                         _______ _______ _______ _____ _____    ______ ____
ROOT
ATOM      1  C   UNL     1      85.664  54.162  43.713  0.00  0.00    +0.132 C 
ATOM      2  C   UNL     1      86.076  55.557  44.219  0.00  0.00    +0.161 C 
ATOM      3  C   UNL     1      84.870  56.508  44.268  0.00  0.00    +0.127 C 
ATOM      4  O   UNL     1      84.868  57.391  43.165  0.00  0.00    -0.362 OA
ATOM      5  C   UNL     1      83.854  56.415  43.188  0.00  0.00    +0.118 C 
ATOM      6  C   UNL     1      84.022  55.358  42.082  0.00  0.00    +0.123 C 
ATOM      7  C   UNL     1      84.943  54.221  42.347  0.00  0.00    +0.162 C 
ATOM      8  O   UNL     1      85.330  55.310  41.537  0.00  0.00    -0.356 OA
ENDROOT
BRANCH   1  10
ATOM      9  C   UNL     1      86.810  52.277  44.465  0.00  0.00    +0.037 C 
ATOM     10  O   UNL     1      86.836  53.373  43.578  0.00  0.00    -0.373 OA
ENDBRANCH   1  10
BRANCH   2  11
ATOM     11  O   UNL     1      86.632  55.422  45.526  0.00  0.00    -0.452 OA
BRANCH  11  12
ATOM     12  C   UNL     1      85.981  55.847  46.692  0.00  0.00    +0.340 C 
ATOM     13  O   UNL     1      86.007  57.065  47.023  0.00  0.00    -0.245 OA
BRANCH  12  14
ATOM     14  C   UNL     1      85.266  54.862  47.533  0.00  0.00    +0.059 A 
ATOM     15  C   UNL     1      83.972  55.143  48.009  0.00  0.00    -0.048 A 
ATOM     16  C   UNL     1      83.295  54.213  48.804  0.00  0.00    -0.061 A 
ATOM     17  C   UNL     1      83.898  52.997  49.132  0.00  0.00    -0.062 A 
ATOM     18  C   UNL     1      85.182  52.709  48.666  0.00  0.00    -0.061 A 
ATOM     19  C   UNL     1      85.866  53.634  47.870  0.00  0.00    -0.048 A 
ENDBRANCH  12  14
ENDBRANCH  11  12
ENDBRANCH   2  11
BRANCH   7  20
ATOM     20  C   UNL     1      84.701  52.920  41.567  0.00  0.00    +0.127 C 
BRANCH  20  21
ATOM     21  O   UNL     1      83.979  51.970  42.349  0.00  0.00    -0.458 OA
BRANCH  21  22
ATOM     22  C   UNL     1      82.591  51.813  42.261  0.00  0.00    +0.339 C 
ATOM     23  O   UNL     1      81.899  52.654  41.625  0.00  0.00    -0.245 OA
BRANCH  22  24
ATOM     24  C   UNL     1      81.940  50.658  42.917  0.00  0.00    +0.059 A 
ATOM     25  C   UNL     1      80.544  50.489  42.856  0.00  0.00    -0.048 A 
ATOM     26  C   UNL     1      79.937  49.394  43.478  0.00  0.00    -0.061 A 
ATOM     27  C   UNL     1      80.714  48.457  44.164  0.00  0.00    -0.062 A 
ATOM     28  C   UNL     1      82.100  48.615  44.230  0.00  0.00    -0.061 A 
ATOM     29  C   UNL     1      82.713  49.708  43.611  0.00  0.00    -0.048 A 
ENDBRANCH  22  24
ENDBRANCH  21  22
ENDBRANCH  20  21
ENDBRANCH   7  20
TORSDOF 8
ENDMDL
MODEL 2
REMARK VINA RESULT:    -8.562      2.970      4.474
REMARK INTER + INTRA:         -13.589
REMARK INTER:                 -12.899
REMARK INTRA:                  -0.690
REMARK UNBOUND:                -1.023
REMARK  Name = 
REMARK  9 active torsions:
REMARK  status: ('A' for Active; 'I' for Inactive)
REMARK    1  A    between atoms: C_1  and  O_2
REMARK    2  A    between atoms: O_2  and  C_3
REMARK    3  A    between atoms: C_4  and  O_5
REMARK    4  A    between atoms: O_5  and  C_6
REMARK    5  A    between atoms: C_6  and  C_8
REMARK    6  A    between atoms: C_18  and  C_19
REMARK    7  A    between atoms: C_19  and  O_20
REMARK    8  A    between atoms: O_20  and  C_21
REMARK    9  A    between atoms: C_21  and  C_23
REMARK                            x       y       z     vdW  Elec       q    Type
REMARK                         _______ _______ _______ _____ _____    ______ ____
ROOT
ATOM      1  C   UNL     1      86.325  53.270  43.492  0.00  0.00    +0.132 C 
ATOM      2  C   UNL     1      86.344  54.809  43.435  0.00  0.00    +0.161 C 
ATOM      3  C   UNL     1      84.992  55.362  42.961  0.00  0.00    +0.127 C 
ATOM      4  O   UNL     1      85.043  55.748  41.603  0.00  0.00    -0.362 OA
ATOM      5  C   UNL     1      84.256  54.620  41.904  0.00  0.00    +0.118 C 
ATOM      6  C   UNL     1      84.851  53.316  41.345  0.00  0.00    +0.123 C 
ATOM      7  C   UNL     1      85.903  52.636  42.147  0.00  0.00    +0.162 C 
ATOM      8  O   UNL     1      86.227  53.414  41.015  0.00  0.00    -0.356 OA
ENDROOT
BRANCH   1  10
ATOM      9  C   UNL     1      87.592  51.872  44.862  0.00  0.00    +0.037 C 
ATOM     10  O   UNL     1      87.632  52.820  43.818  0.00  0.00    -0.373 OA
ENDBRANCH   1  10
BRANCH   2  11
ATOM     11  O   UNL     1      86.636  55.310  44.738  0.00  0.00    -0.452 OA
BRANCH  11  12
ATOM     12  C   UNL     1      85.701  55.981  45.537  0.00  0.00    +0.340 C 
ATOM     13  O   UNL     1      85.296  57.130  45.207  0.00  0.00    -0.245 OA
BRANCH  12  14
ATOM     14  C   UNL     1      85.192  55.338  46.768  0.00  0.00    +0.059 A 
ATOM     15  C   UNL     1      84.030  55.826  47.394  0.00  0.00    -0.048 A 
ATOM     16  C   UNL     1      83.547  55.219  48.558  0.00  0.00    -0.061 A 
ATOM     17  C   UNL     1      84.214  54.123  49.108  0.00  0.00    -0.062 A 
ATOM     18  C   UNL     1      85.369  53.631  48.495  0.00  0.00    -0.061 A 
ATOM     19  C   UNL     1      85.858  54.233  47.331  0.00  0.00    -0.048 A 
ENDBRANCH  12  14
ENDBRANCH  11  12
ENDBRANCH   2  11
BRANCH   7  20
ATOM     20  C   UNL     1      86.085  51.125  41.937  0.00  0.00    +0.127 C 
BRANCH  20  21
ATOM     21  O   UNL     1      87.095  50.851  40.968  0.00  0.00    -0.458 OA
BRANCH  21  22
ATOM     22  C   UNL     1      88.449  50.731  41.296  0.00  0.00    +0.339 C 
ATOM     23  O   UNL     1      89.216  51.726  41.187  0.00  0.00    -0.245 OA
BRANCH  22  24
ATOM     24  C   UNL     1      88.977  49.433  41.771  0.00  0.00    +0.059 A 
ATOM     25  C   UNL     1      88.248  48.245  41.574  0.00  0.00    -0.048 A 
ATOM     26  C   UNL     1      88.754  47.022  42.025  0.00  0.00    -0.061 A 
ATOM     27  C   UNL     1      89.990  46.971  42.674  0.00  0.00    -0.062 A 
ATOM     28  C   UNL     1      90.722  48.144  42.874  0.00  0.00    -0.061 A 
ATOM     29  C   UNL     1      90.221  49.370  42.427  0.00  0.00    -0.048 A 
ENDBRANCH  22  24
ENDBRANCH  21  22
ENDBRANCH  20  21
ENDBRANCH   7  20
TORSDOF 8
ENDMDL
MODEL 3
REMARK VINA RESULT:    -8.517      3.393      7.088
REMARK INTER + INTRA:         -13.522
REMARK INTER:                 -12.261
REMARK INTRA:                  -1.261
REMARK UNBOUND:                -1.023
REMARK  Name = 
REMARK  9 active torsions:
REMARK  status: ('A' for Active; 'I' for Inactive)
REMARK    1  A    between atoms: C_1  and  O_2
REMARK    2  A    between atoms: O_2  and  C_3
REMARK    3  A    between atoms: C_4  and  O_5
REMARK    4  A    between atoms: O_5  and  C_6
REMARK    5  A    between atoms: C_6  and  C_8
REMARK    6  A    between atoms: C_18  and  C_19
REMARK    7  A    between atoms: C_19  and  O_20
REMARK    8  A    between atoms: O_20  and  C_21
REMARK    9  A    between atoms: C_21  and  C_23
REMARK                            x       y       z     vdW  Elec       q    Type
REMARK                         _______ _______ _______ _____ _____    ______ ____
ROOT
ATOM      1  C   UNL     1      86.842  51.687  44.118  0.00  0.00    +0.132 C 
ATOM      2  C   UNL     1      87.267  52.004  42.672  0.00  0.00    +0.161 C 
ATOM      3  C   UNL     1      87.322  53.520  42.429  0.00  0.00    +0.127 C 
ATOM      4  O   UNL     1      86.181  53.969  41.727  0.00  0.00    -0.362 OA
ATOM      5  C   UNL     1      86.290  54.375  43.070  0.00  0.00    +0.118 C 
ATOM      6  C   UNL     1      85.227  53.726  43.974  0.00  0.00    +0.123 C 
ATOM      7  C   UNL     1      85.506  52.363  44.499  0.00  0.00    +0.162 C 
ATOM      8  O   UNL     1      84.631  52.569  43.411  0.00  0.00    -0.356 OA
ENDROOT
BRANCH   1  10
ATOM      9  C   UNL     1      87.641  49.753  45.145  0.00  0.00    +0.037 C 
ATOM     10  O   UNL     1      86.695  50.281  44.241  0.00  0.00    -0.373 OA
ENDBRANCH   1  10
BRANCH   2  11
ATOM     11  O   UNL     1      88.555  51.435  42.440  0.00  0.00    -0.452 OA
BRANCH  11  12
ATOM     12  C   UNL     1      88.814  50.486  41.442  0.00  0.00    +0.340 C 
ATOM     13  O   UNL     1      88.837  50.834  40.229  0.00  0.00    -0.245 OA
BRANCH  12  14
ATOM     14  C   UNL     1      89.058  49.076  41.816  0.00  0.00    +0.059 A 
ATOM     15  C   UNL     1      88.031  48.122  41.693  0.00  0.00    -0.048 A 
ATOM     16  C   UNL     1      88.260  46.788  42.045  0.00  0.00    -0.061 A 
ATOM     17  C   UNL     1      89.511  46.393  42.523  0.00  0.00    -0.062 A 
ATOM     18  C   UNL     1      90.537  47.331  42.650  0.00  0.00    -0.061 A 
ATOM     19  C   UNL     1      90.315  48.667  42.299  0.00  0.00    -0.048 A 
ENDBRANCH  12  14
ENDBRANCH  11  12
ENDBRANCH   2  11
BRANCH   7  20
ATOM     20  C   UNL     1      84.796  51.948  45.798  0.00  0.00    +0.127 C 
BRANCH  20  21
ATOM     21  O   UNL     1      85.697  51.938  46.904  0.00  0.00    -0.458 OA
BRANCH  21  22
ATOM     22  C   UNL     1      85.603  52.843  47.967  0.00  0.00    +0.339 C 
ATOM     23  O   UNL     1      85.919  52.481  49.134  0.00  0.00    -0.245 OA
BRANCH  22  24
ATOM     24  C   UNL     1      85.131  54.222  47.718  0.00  0.00    +0.059 A 
ATOM     25  C   UNL     1      83.801  54.588  47.997  0.00  0.00    -0.048 A 
ATOM     26  C   UNL     1      83.363  55.894  47.760  0.00  0.00    -0.061 A 
ATOM     27  C   UNL     1      84.245  56.847  47.244  0.00  0.00    -0.062 A 
ATOM     28  C   UNL     1      85.567  56.495  46.965  0.00  0.00    -0.061 A 
ATOM     29  C   UNL     1      86.011  55.190  47.199  0.00  0.00    -0.048 A 
ENDBRANCH  22  24
ENDBRANCH  21  22
ENDBRANCH  20  21
ENDBRANCH   7  20
TORSDOF 8
ENDMDL
MODEL 4
REMARK VINA RESULT:    -8.494      3.453      7.327
REMARK INTER + INTRA:         -13.490
REMARK INTER:                 -12.649
REMARK INTRA:                  -0.841
REMARK UNBOUND:                -1.023
REMARK  Name = 
REMARK  9 active torsions:
REMARK  status: ('A' for Active; 'I' for Inactive)
REMARK    1  A    between atoms: C_1  and  O_2
REMARK    2  A    between atoms: O_2  and  C_3
REMARK    3  A    between atoms: C_4  and  O_5
REMARK    4  A    between atoms: O_5  and  C_6
REMARK    5  A    between atoms: C_6  and  C_8
REMARK    6  A    between atoms: C_18  and  C_19
REMARK    7  A    between atoms: C_19  and  O_20
REMARK    8  A    between atoms: O_20  and  C_21
REMARK    9  A    between atoms: C_21  and  C_23
REMARK                            x       y       z     vdW  Elec       q    Type
REMARK                         _______ _______ _______ _____ _____    ______ ____
ROOT
ATOM      1  C   UNL     1      86.469  52.323  41.926  0.00  0.00    +0.132 C 
ATOM      2  C   UNL     1      87.112  51.000  42.382  0.00  0.00    +0.161 C 
ATOM      3  C   UNL     1      86.120  50.153  43.194  0.00  0.00    +0.127 C 
ATOM      4  O   UNL     1      86.379  50.249  44.580  0.00  0.00    -0.362 OA
ATOM      5  C   UNL     1      85.191  50.850  44.121  0.00  0.00    +0.118 C 
ATOM      6  C   UNL     1      85.229  52.385  44.216  0.00  0.00    +0.123 C 
ATOM      7  C   UNL     1      85.882  53.130  43.106  0.00  0.00    +0.162 C 
ATOM      8  O   UNL     1      86.539  52.915  44.336  0.00  0.00    -0.356 OA
ENDROOT
BRANCH   1  10
ATOM      9  C   UNL     1      88.642  53.156  42.066  0.00  0.00    +0.037 C 
ATOM     10  O   UNL     1      87.467  53.107  41.288  0.00  0.00    -0.373 OA
ENDBRANCH   1  10
BRANCH   2  11
ATOM     11  O   UNL     1      87.528  50.273  41.227  0.00  0.00    -0.452 OA
BRANCH  11  12
ATOM     12  C   UNL     1      88.863  49.939  40.962  0.00  0.00    +0.340 C 
ATOM     13  O   UNL     1      89.470  50.478  39.996  0.00  0.00    -0.245 OA
BRANCH  12  14
ATOM     14  C   UNL     1      89.556  48.952  41.819  0.00  0.00    +0.059 A 
ATOM     15  C   UNL     1      90.520  49.376  42.753  0.00  0.00    -0.048 A 
ATOM     16  C   UNL     1      91.175  48.445  43.563  0.00  0.00    -0.061 A 
ATOM     17  C   UNL     1      90.879  47.084  43.452  0.00  0.00    -0.062 A 
ATOM     18  C   UNL     1      89.925  46.653  42.528  0.00  0.00    -0.061 A 
ATOM     19  C   UNL     1      89.265  47.579  41.714  0.00  0.00    -0.048 A 
ENDBRANCH  12  14
ENDBRANCH  11  12
ENDBRANCH   2  11
BRANCH   7  20
ATOM     20  C   UNL     1      85.444  54.585  42.879  0.00  0.00    +0.127 C 
BRANCH  20  21
ATOM     21  O   UNL     1      86.415  55.505  43.374  0.00  0.00    -0.458 OA
BRANCH  21  22
ATOM     22  C   UNL     1      86.101  56.531  44.272  0.00  0.00    +0.339 C 
ATOM     23  O   UNL     1      86.283  57.735  43.944  0.00  0.00    -0.245 OA
BRANCH  22  24
ATOM     24  C   UNL     1      85.556  56.197  45.606  0.00  0.00    +0.059 A 
ATOM     25  C   UNL     1      84.298  56.682  46.011  0.00  0.00    -0.048 A 
ATOM     26  C   UNL     1      83.790  56.360  47.273  0.00  0.00    -0.061 A 
ATOM     27  C   UNL     1      84.528  55.553  48.142  0.00  0.00    -0.062 A 
ATOM     28  C   UNL     1      85.777  55.066  47.750  0.00  0.00    -0.061 A 
ATOM     29  C   UNL     1      86.291  55.384  46.489  0.00  0.00    -0.048 A 
ENDBRANCH  22  24
ENDBRANCH  21  22
ENDBRANCH  20  21
ENDBRANCH   7  20
TORSDOF 8
ENDMDL
MODEL 5
REMARK VINA RESULT:    -8.460      3.454      5.949
REMARK INTER + INTRA:         -13.439
REMARK INTER:                 -12.403
REMARK INTRA:                  -1.037
REMARK UNBOUND:                -1.023
REMARK  Name = 
REMARK  9 active torsions:
REMARK  status: ('A' for Active; 'I' for Inactive)
REMARK    1  A    between atoms: C_1  and  O_2
REMARK    2  A    between atoms: O_2  and  C_3
REMARK    3  A    between atoms: C_4  and  O_5
REMARK    4  A    between atoms: O_5  and  C_6
REMARK    5  A    between atoms: C_6  and  C_8
REMARK    6  A    between atoms: C_18  and  C_19
REMARK    7  A    between atoms: C_19  and  O_20
REMARK    8  A    between atoms: O_20  and  C_21
REMARK    9  A    between atoms: C_21  and  C_23
REMARK                            x       y       z     vdW  Elec       q    Type
REMARK                         _______ _______ _______ _____ _____    ______ ____
ROOT
ATOM      1  C   UNL     1      86.311  51.211  43.385  0.00  0.00    +0.132 C 
ATOM      2  C   UNL     1      87.082  51.831  42.204  0.00  0.00    +0.161 C 
ATOM      3  C   UNL     1      86.957  53.363  42.204  0.00  0.00    +0.127 C 
ATOM      4  O   UNL     1      86.013  53.801  41.249  0.00  0.00    -0.362 OA
ATOM      5  C   UNL     1      85.659  53.965  42.601  0.00  0.00    +0.118 C 
ATOM      6  C   UNL     1      84.499  53.047  43.026  0.00  0.00    +0.123 C 
ATOM      7  C   UNL     1      84.830  51.651  43.417  0.00  0.00    +0.162 C 
ATOM      8  O   UNL     1      84.289  51.953  42.149  0.00  0.00    -0.356 OA
ENDROOT
BRANCH   1  10
ATOM      9  C   UNL     1      86.935  49.212  44.408  0.00  0.00    +0.037 C 
ATOM     10  O   UNL     1      86.365  49.798  43.259  0.00  0.00    -0.373 OA
ENDBRANCH   1  10
BRANCH   2  11
ATOM     11  O   UNL     1      88.456  51.462  42.312  0.00  0.00    -0.452 OA
BRANCH  11  12
ATOM     12  C   UNL     1      89.077  50.535  41.466  0.00  0.00    +0.340 C 
ATOM     13  O   UNL     1      89.194  50.781  40.234  0.00  0.00    -0.245 OA
BRANCH  12  14
ATOM     14  C   UNL     1      89.592  49.264  42.022  0.00  0.00    +0.059 A 
ATOM     15  C   UNL     1      89.054  48.034  41.599  0.00  0.00    -0.048 A 
ATOM     16  C   UNL     1      89.540  46.833  42.122  0.00  0.00    -0.061 A 
ATOM     17  C   UNL     1      90.565  46.844  43.072  0.00  0.00    -0.062 A 
ATOM     18  C   UNL     1      91.105  48.058  43.499  0.00  0.00    -0.061 A 
ATOM     19  C   UNL     1      90.624  49.264  42.979  0.00  0.00    -0.048 A 
ENDBRANCH  12  14
ENDBRANCH  11  12
ENDBRANCH   2  11
BRANCH   7  20
ATOM     20  C   UNL     1      83.851  50.930  44.356  0.00  0.00    +0.127 C 
BRANCH  20  21
ATOM     21  O   UNL     1      83.044  49.991  43.647  0.00  0.00    -0.458 OA
BRANCH  21  22
ATOM     22  C   UNL     1      82.885  48.663  44.059  0.00  0.00    +0.339 C 
ATOM     23  O   UNL     1      83.899  47.941  44.267  0.00  0.00    -0.245 OA
BRANCH  22  24
ATOM     24  C   UNL     1      81.526  48.112  44.249  0.00  0.00    +0.059 A 
ATOM     25  C   UNL     1      80.425  48.966  44.450  0.00  0.00    -0.048 A 
ATOM     26  C   UNL     1      79.143  48.437  44.628  0.00  0.00    -0.061 A 
ATOM     27  C   UNL     1      78.946  47.054  44.606  0.00  0.00    -0.062 A 
ATOM     28  C   UNL     1      80.031  46.197  44.407  0.00  0.00    -0.061 A 
ATOM     29  C   UNL     1      81.316  46.721  44.229  0.00  0.00    -0.048 A 
ENDBRANCH  22  24
ENDBRANCH  21  22
ENDBRANCH  20  21
ENDBRANCH   7  20
TORSDOF 8
ENDMDL
MODEL 6
REMARK VINA RESULT:    -8.440      1.412      2.140
REMARK INTER + INTRA:         -13.411
REMARK INTER:                 -12.520
REMARK INTRA:                  -0.891
REMARK UNBOUND:                -1.023
REMARK  Name = 
REMARK  9 active torsions:
REMARK  status: ('A' for Active; 'I' for Inactive)
REMARK    1  A    between atoms: C_1  and  O_2
REMARK    2  A    between atoms: O_2  and  C_3
REMARK    3  A    between atoms: C_4  and  O_5
REMARK    4  A    between atoms: O_5  and  C_6
REMARK    5  A    between atoms: C_6  and  C_8
REMARK    6  A    between atoms: C_18  and  C_19
REMARK    7  A    between atoms: C_19  and  O_20
REMARK    8  A    between atoms: O_20  and  C_21
REMARK    9  A    between atoms: C_21  and  C_23
REMARK                            x       y       z     vdW  Elec       q    Type
REMARK                         _______ _______ _______ _____ _____    ______ ____
ROOT
ATOM      1  C   UNL     1      85.970  53.309  43.834  0.00  0.00    +0.132 C 
ATOM      2  C   UNL     1      86.281  54.756  43.409  0.00  0.00    +0.161 C 
ATOM      3  C   UNL     1      85.013  55.478  42.928  0.00  0.00    +0.127 C 
ATOM      4  O   UNL     1      84.962  55.539  41.517  0.00  0.00    -0.362 OA
ATOM      5  C   UNL     1      84.016  54.705  42.142  0.00  0.00    +0.118 C 
ATOM      6  C   UNL     1      84.268  53.212  41.864  0.00  0.00    +0.123 C 
ATOM      7  C   UNL     1      85.261  52.508  42.718  0.00  0.00    +0.162 C 
ATOM      8  O   UNL     1      85.581  52.932  41.410  0.00  0.00    -0.356 OA
ENDROOT
BRANCH   1  10
ATOM      9  C   UNL     1      87.154  52.119  45.451  0.00  0.00    +0.037 C 
ATOM     10  O   UNL     1      87.195  52.665  44.151  0.00  0.00    -0.373 OA
ENDBRANCH   1  10
BRANCH   2  11
ATOM     11  O   UNL     1      86.832  55.452  44.527  0.00  0.00    -0.452 OA
BRANCH  11  12
ATOM     12  C   UNL     1      86.085  56.299  45.355  0.00  0.00    +0.340 C 
ATOM     13  O   UNL     1      85.996  57.529  45.087  0.00  0.00    -0.245 OA
BRANCH  12  14
ATOM     14  C   UNL     1      85.404  55.746  46.547  0.00  0.00    +0.059 A 
ATOM     15  C   UNL     1      84.112  56.185  46.892  0.00  0.00    -0.048 A 
ATOM     16  C   UNL     1      83.466  55.664  48.017  0.00  0.00    -0.061 A 
ATOM     17  C   UNL     1      84.099  54.702  48.808  0.00  0.00    -0.062 A 
ATOM     18  C   UNL     1      85.381  54.260  48.474  0.00  0.00    -0.061 A 
ATOM     19  C   UNL     1      86.033  54.777  47.350  0.00  0.00    -0.048 A 
ENDBRANCH  12  14
ENDBRANCH  11  12
ENDBRANCH   2  11
BRANCH   7  20
ATOM     20  C   UNL     1      85.116  50.985  42.861  0.00  0.00    +0.127 C 
BRANCH  20  21
ATOM     21  O   UNL     1      84.393  50.639  44.041  0.00  0.00    -0.458 OA
BRANCH  21  22
ATOM     22  C   UNL     1      83.782  49.393  44.219  0.00  0.00    +0.339 C 
ATOM     23  O   UNL     1      84.473  48.394  44.561  0.00  0.00    -0.245 OA
BRANCH  22  24
ATOM     24  C   UNL     1      82.326  49.252  44.003  0.00  0.00    +0.059 A 
ATOM     25  C   UNL     1      81.662  48.056  44.337  0.00  0.00    -0.048 A 
ATOM     26  C   UNL     1      80.285  47.932  44.132  0.00  0.00    -0.061 A 
ATOM     27  C   UNL     1      79.556  48.996  43.593  0.00  0.00    -0.062 A 
ATOM     28  C   UNL     1      80.206  50.187  43.259  0.00  0.00    -0.061 A 
ATOM     29  C   UNL     1      81.583  50.317  43.462  0.00  0.00    -0.048 A 
ENDBRANCH  22  24
ENDBRANCH  21  22
ENDBRANCH  20  21
ENDBRANCH   7  20
TORSDOF 8
ENDMDL
MODEL 7
REMARK VINA RESULT:    -8.420      3.457      5.935
REMARK INTER + INTRA:         -13.381
REMARK INTER:                 -12.193
REMARK INTRA:                  -1.188
REMARK UNBOUND:                -1.023
REMARK  Name = 
REMARK  9 active torsions:
REMARK  status: ('A' for Active; 'I' for Inactive)
REMARK    1  A    between atoms: C_1  and  O_2
REMARK    2  A    between atoms: O_2  and  C_3
REMARK    3  A    between atoms: C_4  and  O_5
REMARK    4  A    between atoms: O_5  and  C_6
REMARK    5  A    between atoms: C_6  and  C_8
REMARK    6  A    between atoms: C_18  and  C_19
REMARK    7  A    between atoms: C_19  and  O_20
REMARK    8  A    between atoms: O_20  and  C_21
REMARK    9  A    between atoms: C_21  and  C_23
REMARK                            x       y       z     vdW  Elec       q    Type
REMARK                         _______ _______ _______ _____ _____    ______ ____
ROOT
ATOM      1  C   UNL     1      86.738  52.192  44.627  0.00  0.00    +0.132 C 
ATOM      2  C   UNL     1      86.557  52.067  46.151  0.00  0.00    +0.161 C 
ATOM      3  C   UNL     1      87.504  51.008  46.736  0.00  0.00    +0.127 C 
ATOM      4  O   UNL     1      86.822  49.798  46.997  0.00  0.00    -0.362 OA
ATOM      5  C   UNL     1      87.759  49.776  45.947  0.00  0.00    +0.118 C 
ATOM      6  C   UNL     1      87.099  49.613  44.567  0.00  0.00    +0.123 C 
ATOM      7  C   UNL     1      86.577  50.837  43.902  0.00  0.00    +0.162 C 
ATOM      8  O   UNL     1      85.717  49.930  44.557  0.00  0.00    -0.356 OA
ENDROOT
BRANCH   1  10
ATOM      9  C   UNL     1      86.363  54.206  43.514  0.00  0.00    +0.037 C 
ATOM     10  O   UNL     1      85.758  53.094  44.134  0.00  0.00    -0.373 OA
ENDBRANCH   1  10
BRANCH   2  11
ATOM     11  O   UNL     1      86.828  53.334  46.749  0.00  0.00    -0.452 OA
BRANCH  11  12
ATOM     12  C   UNL     1      85.957  53.970  47.643  0.00  0.00    +0.340 C 
ATOM     13  O   UNL     1      85.698  53.440  48.759  0.00  0.00    -0.245 OA
BRANCH  12  14
ATOM     14  C   UNL     1      85.342  55.264  47.274  0.00  0.00    +0.059 A 
ATOM     15  C   UNL     1      86.069  56.206  46.521  0.00  0.00    -0.048 A 
ATOM     16  C   UNL     1      85.489  57.428  46.171  0.00  0.00    -0.061 A 
ATOM     17  C   UNL     1      84.182  57.725  46.565  0.00  0.00    -0.062 A 
ATOM     18  C   UNL     1      83.452  56.798  47.312  0.00  0.00    -0.061 A 
ATOM     19  C   UNL     1      84.027  55.573  47.667  0.00  0.00    -0.048 A 
ENDBRANCH  12  14
ENDBRANCH  11  12
ENDBRANCH   2  11
BRANCH   7  20
ATOM     20  C   UNL     1      86.458  50.812  42.370  0.00  0.00    +0.127 C 
BRANCH  20  21
ATOM     21  O   UNL     1      87.609  51.382  41.748  0.00  0.00    -0.458 OA
BRANCH  21  22
ATOM     22  C   UNL     1      88.532  50.624  41.020  0.00  0.00    +0.339 C 
ATOM     23  O   UNL     1      88.793  50.925  39.823  0.00  0.00    -0.245 OA
BRANCH  22  24
ATOM     24  C   UNL     1      89.199  49.468  41.660  0.00  0.00    +0.059 A 
ATOM     25  C   UNL     1      90.331  49.653  42.476  0.00  0.00    -0.048 A 
ATOM     26  C   UNL     1      90.954  48.556  43.078  0.00  0.00    -0.061 A 
ATOM     27  C   UNL     1      90.457  47.267  42.873  0.00  0.00    -0.062 A 
ATOM     28  C   UNL     1      89.335  47.072  42.065  0.00  0.00    -0.061 A 
ATOM     29  C   UNL     1      88.707  48.166  41.460  0.00  0.00    -0.048 A 
ENDBRANCH  22  24
ENDBRANCH  21  22
ENDBRANCH  20  21
ENDBRANCH   7  20
TORSDOF 8
ENDMDL
MODEL 8
REMARK VINA RESULT:    -8.378      4.146      5.638
REMARK INTER + INTRA:         -13.319
REMARK INTER:                 -12.297
REMARK INTRA:                  -1.023
REMARK UNBOUND:                -1.023
REMARK  Name = 
REMARK  9 active torsions:
REMARK  status: ('A' for Active; 'I' for Inactive)
REMARK    1  A    between atoms: C_1  and  O_2
REMARK    2  A    between atoms: O_2  and  C_3
REMARK    3  A    between atoms: C_4  and  O_5
REMARK    4  A    between atoms: O_5  and  C_6
REMARK    5  A    between atoms: C_6  and  C_8
REMARK    6  A    between atoms: C_18  and  C_19
REMARK    7  A    between atoms: C_19  and  O_20
REMARK    8  A    between atoms: O_20  and  C_21
REMARK    9  A    between atoms: C_21  and  C_23
REMARK                            x       y       z     vdW  Elec       q    Type
REMARK                         _______ _______ _______ _____ _____    ______ ____
ROOT
ATOM      1  C   UNL     1      87.467  51.266  43.051  0.00  0.00    +0.132 C 
ATOM      2  C   UNL     1      87.238  52.682  42.490  0.00  0.00    +0.161 C 
ATOM      3  C   UNL     1      87.125  52.659  40.958  0.00  0.00    +0.127 C 
ATOM      4  O   UNL     1      88.325  53.086  40.348  0.00  0.00    -0.362 OA
ATOM      5  C   UNL     1      87.997  51.725  40.199  0.00  0.00    +0.118 C 
ATOM      6  C   UNL     1      88.955  50.797  40.966  0.00  0.00    +0.123 C 
ATOM      7  C   UNL     1      88.689  50.570  42.411  0.00  0.00    +0.162 C 
ATOM      8  O   UNL     1      89.698  51.457  41.977  0.00  0.00    -0.356 OA
ENDROOT
BRANCH   1  10
ATOM      9  C   UNL     1      86.679  50.686  45.167  0.00  0.00    +0.037 C 
ATOM     10  O   UNL     1      87.682  51.371  44.451  0.00  0.00    -0.373 OA
ENDBRANCH   1  10
BRANCH   2  11
ATOM     11  O   UNL     1      86.035  53.206  43.051  0.00  0.00    -0.452 OA
BRANCH  11  12
ATOM     12  C   UNL     1      85.936  54.487  43.609  0.00  0.00    +0.340 C 
ATOM     13  O   UNL     1      86.043  55.508  42.874  0.00  0.00    -0.245 OA
BRANCH  12  14
ATOM     14  C   UNL     1      85.708  54.639  45.063  0.00  0.00    +0.059 A 
ATOM     15  C   UNL     1      86.391  55.632  45.788  0.00  0.00    -0.048 A 
ATOM     16  C   UNL     1      86.176  55.778  47.162  0.00  0.00    -0.061 A 
ATOM     17  C   UNL     1      85.281  54.937  47.826  0.00  0.00    -0.062 A 
ATOM     18  C   UNL     1      84.597  53.947  47.116  0.00  0.00    -0.061 A 
ATOM     19  C   UNL     1      84.808  53.796  45.741  0.00  0.00    -0.048 A 
ENDBRANCH  12  14
ENDBRANCH  11  12
ENDBRANCH   2  11
BRANCH   7  20
ATOM     20  C   UNL     1      89.227  49.271  43.032  0.00  0.00    +0.127 C 
BRANCH  20  21
ATOM     21  O   UNL     1      88.190  48.306  43.202  0.00  0.00    -0.458 OA
BRANCH  21  22
ATOM     22  C   UNL     1      88.053  47.186  42.376  0.00  0.00    +0.339 C 
ATOM     23  O   UNL     1      88.235  47.292  41.132  0.00  0.00    -0.245 OA
BRANCH  22  24
ATOM     24  C   UNL     1      87.694  45.878  42.966  0.00  0.00    +0.059 A 
ATOM     25  C   UNL     1      88.590  44.794  42.911  0.00  0.00    -0.048 A 
ATOM     26  C   UNL     1      88.243  43.561  43.473  0.00  0.00    -0.061 A 
ATOM     27  C   UNL     1      87.003  43.397  44.095  0.00  0.00    -0.062 A 
ATOM     28  C   UNL     1      86.107  44.467  44.156  0.00  0.00    -0.061 A 
ATOM     29  C   UNL     1      86.447  45.702  43.595  0.00  0.00    -0.048 A 
ENDBRANCH  22  24
ENDBRANCH  21  22
ENDBRANCH  20  21
ENDBRANCH   7  20
TORSDOF 8
ENDMDL
MODEL 9
REMARK VINA RESULT:    -8.298      2.498      5.352
REMARK INTER + INTRA:         -13.201
REMARK INTER:                 -11.212
REMARK INTRA:                  -1.989
REMARK UNBOUND:                -1.023
REMARK  Name = 
REMARK  9 active torsions:
REMARK  status: ('A' for Active; 'I' for Inactive)
REMARK    1  A    between atoms: C_1  and  O_2
REMARK    2  A    between atoms: O_2  and  C_3
REMARK    3  A    between atoms: C_4  and  O_5
REMARK    4  A    between atoms: O_5  and  C_6
REMARK    5  A    between atoms: C_6  and  C_8
REMARK    6  A    between atoms: C_18  and  C_19
REMARK    7  A    between atoms: C_19  and  O_20
REMARK    8  A    between atoms: O_20  and  C_21
REMARK    9  A    between atoms: C_21  and  C_23
REMARK                            x       y       z     vdW  Elec       q    Type
REMARK                         _______ _______ _______ _____ _____    ______ ____
ROOT
ATOM      1  C   UNL     1      85.364  51.989  42.794  0.00  0.00    +0.132 C 
ATOM      2  C   UNL     1      86.169  50.866  43.475  0.00  0.00    +0.161 C 
ATOM      3  C   UNL     1      87.607  51.319  43.775  0.00  0.00    +0.127 C 
ATOM      4  O   UNL     1      88.516  50.797  42.828  0.00  0.00    -0.362 OA
ATOM      5  C   UNL     1      88.294  52.187  42.784  0.00  0.00    +0.118 C 
ATOM      6  C   UNL     1      87.542  52.627  41.516  0.00  0.00    +0.123 C 
ATOM      7  C   UNL     1      86.059  52.521  41.521  0.00  0.00    +0.162 C 
ATOM      8  O   UNL     1      86.864  51.569  40.861  0.00  0.00    -0.356 OA
ENDROOT
BRANCH   1  10
ATOM      9  C   UNL     1      83.065  52.119  43.155  0.00  0.00    +0.037 C 
ATOM     10  O   UNL     1      84.091  51.471  42.438  0.00  0.00    -0.373 OA
ENDBRANCH   1  10
BRANCH   2  11
ATOM     11  O   UNL     1      85.515  50.511  44.693  0.00  0.00    -0.452 OA
BRANCH  11  12
ATOM     12  C   UNL     1      86.060  50.750  45.962  0.00  0.00    +0.340 C 
ATOM     13  O   UNL     1      86.921  49.961  46.440  0.00  0.00    -0.245 OA
BRANCH  12  14
ATOM     14  C   UNL     1      85.619  51.930  46.739  0.00  0.00    +0.059 A 
ATOM     15  C   UNL     1      86.174  52.191  48.005  0.00  0.00    -0.048 A 
ATOM     16  C   UNL     1      85.760  53.306  48.741  0.00  0.00    -0.061 A 
ATOM     17  C   UNL     1      84.791  54.169  48.223  0.00  0.00    -0.062 A 
ATOM     18  C   UNL     1      84.234  53.918  46.968  0.00  0.00    -0.061 A 
ATOM     19  C   UNL     1      84.644  52.805  46.227  0.00  0.00    -0.048 A 
ENDBRANCH  12  14
ENDBRANCH  11  12
ENDBRANCH   2  11
BRANCH   7  20
ATOM     20  C   UNL     1      85.282  53.446  40.570  0.00  0.00    +0.127 C 
BRANCH  20  21
ATOM     21  O   UNL     1      85.318  54.800  41.015  0.00  0.00    -0.458 OA
BRANCH  21  22
ATOM     22  C   UNL     1      84.426  55.311  41.964  0.00  0.00    +0.339 C 
ATOM     23  O   UNL     1      83.187  55.319  41.726  0.00  0.00    -0.245 OA
BRANCH  22  24
ATOM     24  C   UNL     1      84.942  55.842  43.244  0.00  0.00    +0.059 A 
ATOM     25  C   UNL     1      86.198  55.440  43.735  0.00  0.00    -0.048 A 
ATOM     26  C   UNL     1      86.679  55.948  44.946  0.00  0.00    -0.061 A 
ATOM     27  C   UNL     1      85.915  56.861  45.677  0.00  0.00    -0.062 A 
ATOM     28  C   UNL     1      84.667  57.268  45.198  0.00  0.00    -0.061 A 
ATOM     29  C   UNL     1      84.181  56.763  43.988  0.00  0.00    -0.048 A 
ENDBRANCH  22  24
ENDBRANCH  21  22
ENDBRANCH  20  21
ENDBRANCH   7  20
TORSDOF 8
ENDMDL
