MODEL 1
REMARK VINA RESULT:    -8.968      0.000      0.000
REMARK INTER + INTRA:         -14.147
REMARK INTER:                 -13.500
REMARK INTRA:                  -0.647
REMARK UNBOUND:                -0.985
REMARK  Name = 
REMARK  12 active torsions:
REMARK  status: ('A' for Active; 'I' for Inactive)
REMARK    1  A    between atoms: O_1  and  C_2
REMARK    2  A    between atoms: C_2  and  C_3
REMARK    3  A    between atoms: C_5  and  O_10
REMARK    4  A    between atoms: C_6  and  O_9
REMARK    5  A    between atoms: C_7  and  O_8
REMARK    6  A    between atoms: O_10  and  C_11
REMARK    7  A    between atoms: C_12  and  C_24
REMARK    8  A    between atoms: C_18  and  O_19
REMARK    9  A    between atoms: C_21  and  O_23
REMARK   10  A    between atoms: C_26  and  O_27
REMARK   11  A    between atoms: C_28  and  O_32
REMARK   12  A    between atoms: C_29  and  O_31
REMARK                            x       y       z     vdW  Elec       q    Type
REMARK                         _______ _______ _______ _____ _____    ______ ____
ROOT
ATOM      1  C   UNL     1      86.508  50.997  43.325  0.00  0.00    +0.214 A 
ATOM      2  C   UNL     1      85.261  51.650  43.271  0.00  0.00    +0.181 A 
ATOM      3  O   UNL     1      84.144  50.934  43.304  0.00  0.00    -0.451 OA
ATOM      4  C   UNL     1      84.127  49.609  43.399  0.00  0.00    +0.147 A 
ATOM      5  C   UNL     1      85.336  48.866  43.456  0.00  0.00    +0.109 A 
ATOM      6  C   UNL     1      86.543  49.606  43.458  0.00  0.00    +0.238 A 
ATOM      7  O   UNL     1      87.663  49.047  43.592  0.00  0.00    -0.283 OA
ATOM      8  C   UNL     1      85.257  47.442  43.528  0.00  0.00    +0.135 A 
ATOM      9  C   UNL     1      84.003  46.824  43.622  0.00  0.00    +0.022 A 
ATOM     10  C   UNL     1      82.826  47.572  43.582  0.00  0.00    +0.124 A 
ATOM     11  C   UNL     1      82.891  48.961  43.458  0.00  0.00    +0.023 A 
ENDROOT
BRANCH   2  12
ATOM     12  C   UNL     1      85.142  53.123  43.190  0.00  0.00    +0.028 A 
ATOM     13  C   UNL     1      85.132  53.918  44.347  0.00  0.00    -0.006 A 
ATOM     14  C   UNL     1      85.026  55.311  44.262  0.00  0.00    +0.163 A 
ATOM     15  C   UNL     1      84.909  55.927  42.991  0.00  0.00    +0.201 A 
ATOM     16  C   UNL     1      84.889  55.126  41.835  0.00  0.00    +0.163 A 
ATOM     17  C   UNL     1      84.997  53.736  41.940  0.00  0.00    -0.006 A 
BRANCH  14  18
ATOM     18  O   UNL     1      85.035  56.035  45.455  0.00  0.00    -0.503 OA
ATOM     19  H   UNL     1      84.335  56.625  45.651  0.00  0.00    +0.000 HD
ENDBRANCH  14  18
BRANCH  16  20
ATOM     20  O   UNL     1      84.763  55.694  40.567  0.00  0.00    -0.503 OA
ATOM     21  H   UNL     1      85.529  55.919  40.076  0.00  0.00    +0.000 HD
ENDBRANCH  16  20
BRANCH  15  22
ATOM     22  O   UNL     1      84.811  57.313  42.842  0.00  0.00    -0.501 OA
ATOM     23  H   UNL     1      84.657  57.855  43.591  0.00  0.00    +0.000 HD
ENDBRANCH  15  22
ENDBRANCH   2  12
BRANCH   8  24
ATOM     24  O   UNL     1      86.367  46.593  43.485  0.00  0.00    -0.506 OA
ATOM     25  H   UNL     1      86.248  45.665  43.512  0.00  0.00    +0.000 HD
ENDBRANCH   8  24
BRANCH  10  26
ATOM     26  O   UNL     1      81.596  46.922  43.661  0.00  0.00    -0.507 OA
ATOM     27  H   UNL     1      80.867  47.238  43.166  0.00  0.00    +0.000 HD
ENDBRANCH  10  26
BRANCH   1  28
ATOM     28  O   UNL     1      87.711  51.707  43.248  0.00  0.00    -0.453 OA
BRANCH  28  31
ATOM     29  C   UNL     1      89.224  53.159  40.623  0.00  0.00    +0.114 C 
ATOM     30  O   UNL     1      89.334  52.769  41.975  0.00  0.00    -0.331 OA
ATOM     31  C   UNL     1      88.600  51.575  42.141  0.00  0.00    +0.231 C 
ATOM     32  C   UNL     1      87.808  51.295  40.874  0.00  0.00    +0.145 C 
ATOM     33  C   UNL     1      88.614  52.011  39.825  0.00  0.00    +0.115 C 
BRANCH  33  34
ATOM     34  O   UNL     1      87.796  52.500  38.793  0.00  0.00    -0.386 OA
ATOM     35  H   UNL     1      87.658  53.452  38.915  0.00  0.00    +0.000 HD
ENDBRANCH  33  34
BRANCH  32  36
ATOM     36  O   UNL     1      87.743  49.915  40.622  0.00  0.00    -0.383 OA
ATOM     37  H   UNL     1      86.820  49.655  40.478  0.00  0.00    +0.000 HD
ENDBRANCH  32  36
BRANCH  29  38
ATOM     38  C   UNL     1      90.593  53.588  40.084  0.00  0.00    +0.073 C 
BRANCH  38  39
ATOM     39  O   UNL     1      90.720  54.983  40.129  0.00  0.00    -0.392 OA
ATOM     40  H   UNL     1      91.527  55.249  39.659  0.00  0.00    +0.000 HD
ENDBRANCH  38  39
ENDBRANCH  29  38
ENDBRANCH  28  31
ENDBRANCH   1  28
TORSDOF 12
ENDMDL
MODEL 2
REMARK VINA RESULT:    -8.662      1.641      5.952
REMARK INTER + INTRA:         -13.699
REMARK INTER:                 -13.193
REMARK INTRA:                  -0.505
REMARK UNBOUND:                -0.985
REMARK  Name = 
REMARK  12 active torsions:
REMARK  status: ('A' for Active; 'I' for Inactive)
REMARK    1  A    between atoms: O_1  and  C_2
REMARK    2  A    between atoms: C_2  and  C_3
REMARK    3  A    between atoms: C_5  and  O_10
REMARK    4  A    between atoms: C_6  and  O_9
REMARK    5  A    between atoms: C_7  and  O_8
REMARK    6  A    between atoms: O_10  and  C_11
REMARK    7  A    between atoms: C_12  and  C_24
REMARK    8  A    between atoms: C_18  and  O_19
REMARK    9  A    between atoms: C_21  and  O_23
REMARK   10  A    between atoms: C_26  and  O_27
REMARK   11  A    between atoms: C_28  and  O_32
REMARK   12  A    between atoms: C_29  and  O_31
REMARK                            x       y       z     vdW  Elec       q    Type
REMARK                         _______ _______ _______ _____ _____    ______ ____
ROOT
ATOM      1  C   UNL     1      85.776  52.774  43.336  0.00  0.00    +0.214 A 
ATOM      2  C   UNL     1      85.219  51.860  44.250  0.00  0.00    +0.181 A 
ATOM      3  O   UNL     1      84.840  52.282  45.450  0.00  0.00    -0.451 OA
ATOM      4  C   UNL     1      84.944  53.545  45.848  0.00  0.00    +0.147 A 
ATOM      5  C   UNL     1      85.498  54.536  44.995  0.00  0.00    +0.109 A 
ATOM      6  C   UNL     1      85.878  54.121  43.695  0.00  0.00    +0.238 A 
ATOM      7  O   UNL     1      86.299  54.939  42.836  0.00  0.00    -0.283 OA
ATOM      8  C   UNL     1      85.613  55.871  45.487  0.00  0.00    +0.135 A 
ATOM      9  C   UNL     1      85.109  56.185  46.756  0.00  0.00    +0.022 A 
ATOM     10  C   UNL     1      84.552  55.201  47.573  0.00  0.00    +0.124 A 
ATOM     11  C   UNL     1      84.483  53.882  47.123  0.00  0.00    +0.023 A 
ENDROOT
BRANCH   2  12
ATOM     12  C   UNL     1      85.023  50.430  43.921  0.00  0.00    +0.028 A 
ATOM     13  C   UNL     1      86.115  49.587  43.659  0.00  0.00    -0.006 A 
ATOM     14  C   UNL     1      85.923  48.234  43.356  0.00  0.00    +0.163 A 
ATOM     15  C   UNL     1      84.608  47.712  43.295  0.00  0.00    +0.201 A 
ATOM     16  C   UNL     1      83.514  48.565  43.528  0.00  0.00    +0.163 A 
ATOM     17  C   UNL     1      83.725  49.913  43.831  0.00  0.00    -0.006 A 
BRANCH  14  18
ATOM     18  O   UNL     1      87.057  47.456  43.120  0.00  0.00    -0.503 OA
ATOM     19  H   UNL     1      87.381  47.352  42.247  0.00  0.00    +0.000 HD
ENDBRANCH  14  18
BRANCH  16  20
ATOM     20  O   UNL     1      82.203  48.090  43.466  0.00  0.00    -0.503 OA
ATOM     21  H   UNL     1      81.996  47.355  42.923  0.00  0.00    +0.000 HD
ENDBRANCH  16  20
BRANCH  15  22
ATOM     22  O   UNL     1      84.354  46.368  43.008  0.00  0.00    -0.501 OA
ATOM     23  H   UNL     1      83.971  46.128  42.187  0.00  0.00    +0.000 HD
ENDBRANCH  15  22
ENDBRANCH   2  12
BRANCH   8  24
ATOM     24  O   UNL     1      86.231  56.912  44.788  0.00  0.00    -0.506 OA
ATOM     25  H   UNL     1      86.341  57.748  45.195  0.00  0.00    +0.000 HD
ENDBRANCH   8  24
BRANCH  10  26
ATOM     26  O   UNL     1      84.076  55.547  48.836  0.00  0.00    -0.507 OA
ATOM     27  H   UNL     1      84.501  56.220  49.330  0.00  0.00    +0.000 HD
ENDBRANCH  10  26
BRANCH   1  28
ATOM     28  O   UNL     1      86.231  52.366  42.077  0.00  0.00    -0.453 OA
BRANCH  28  31
ATOM     29  C   UNL     1      89.051  53.108  40.407  0.00  0.00    +0.114 C 
ATOM     30  O   UNL     1      88.320  53.260  41.604  0.00  0.00    -0.331 OA
ATOM     31  C   UNL     1      87.603  52.065  41.827  0.00  0.00    +0.231 C 
ATOM     32  C   UNL     1      87.721  51.175  40.600  0.00  0.00    +0.145 C 
ATOM     33  C   UNL     1      89.012  51.642  39.986  0.00  0.00    +0.115 C 
BRANCH  33  34
ATOM     34  O   UNL     1      88.988  51.525  38.587  0.00  0.00    -0.386 OA
ATOM     35  H   UNL     1      89.018  52.409  38.189  0.00  0.00    +0.000 HD
ENDBRANCH  33  34
BRANCH  32  36
ATOM     36  O   UNL     1      87.786  49.822  40.971  0.00  0.00    -0.383 OA
ATOM     37  H   UNL     1      88.115  49.297  40.225  0.00  0.00    +0.000 HD
ENDBRANCH  32  36
BRANCH  29  38
ATOM     38  C   UNL     1      90.481  53.629  40.591  0.00  0.00    +0.073 C 
BRANCH  38  39
ATOM     39  O   UNL     1      90.569  54.967  40.184  0.00  0.00    -0.392 OA
ATOM     40  H   UNL     1      89.945  55.503  40.700  0.00  0.00    +0.000 HD
ENDBRANCH  38  39
ENDBRANCH  29  38
ENDBRANCH  28  31
ENDBRANCH   1  28
TORSDOF 12
ENDMDL
MODEL 3
REMARK VINA RESULT:    -8.516      2.165      6.876
REMARK INTER + INTRA:         -13.483
REMARK INTER:                 -12.279
REMARK INTRA:                  -1.204
REMARK UNBOUND:                -0.985
REMARK  Name = 
REMARK  12 active torsions:
REMARK  status: ('A' for Active; 'I' for Inactive)
REMARK    1  A    between atoms: O_1  and  C_2
REMARK    2  A    between atoms: C_2  and  C_3
REMARK    3  A    between atoms: C_5  and  O_10
REMARK    4  A    between atoms: C_6  and  O_9
REMARK    5  A    between atoms: C_7  and  O_8
REMARK    6  A    between atoms: O_10  and  C_11
REMARK    7  A    between atoms: C_12  and  C_24
REMARK    8  A    between atoms: C_18  and  O_19
REMARK    9  A    between atoms: C_21  and  O_23
REMARK   10  A    between atoms: C_26  and  O_27
REMARK   11  A    between atoms: C_28  and  O_32
REMARK   12  A    between atoms: C_29  and  O_31
REMARK                            x       y       z     vdW  Elec       q    Type
REMARK                         _______ _______ _______ _____ _____    ______ ____
ROOT
ATOM      1  C   UNL     1      85.892  52.334  44.368  0.00  0.00    +0.214 A 
ATOM      2  C   UNL     1      86.612  53.183  43.507  0.00  0.00    +0.181 A 
ATOM      3  O   UNL     1      86.599  54.494  43.716  0.00  0.00    -0.451 OA
ATOM      4  C   UNL     1      85.944  55.069  44.719  0.00  0.00    +0.147 A 
ATOM      5  C   UNL     1      85.188  54.292  45.636  0.00  0.00    +0.109 A 
ATOM      6  C   UNL     1      85.212  52.887  45.458  0.00  0.00    +0.238 A 
ATOM      7  O   UNL     1      84.645  52.107  46.267  0.00  0.00    -0.283 OA
ATOM      8  C   UNL     1      84.480  54.966  46.677  0.00  0.00    +0.135 A 
ATOM      9  C   UNL     1      84.613  56.353  46.815  0.00  0.00    +0.022 A 
ATOM     10  C   UNL     1      85.375  57.098  45.915  0.00  0.00    +0.124 A 
ATOM     11  C   UNL     1      86.028  56.455  44.862  0.00  0.00    +0.023 A 
ENDROOT
BRANCH   2  12
ATOM     12  C   UNL     1      87.404  52.668  42.367  0.00  0.00    +0.028 A 
ATOM     13  C   UNL     1      88.450  51.752  42.561  0.00  0.00    -0.006 A 
ATOM     14  C   UNL     1      89.190  51.264  41.478  0.00  0.00    +0.163 A 
ATOM     15  C   UNL     1      88.890  51.713  40.169  0.00  0.00    +0.201 A 
ATOM     16  C   UNL     1      87.861  52.654  39.979  0.00  0.00    +0.163 A 
ATOM     17  C   UNL     1      87.133  53.130  41.073  0.00  0.00    -0.006 A 
BRANCH  14  18
ATOM     18  O   UNL     1      90.206  50.347  41.749  0.00  0.00    -0.503 OA
ATOM     19  H   UNL     1      90.007  49.435  41.825  0.00  0.00    +0.000 HD
ENDBRANCH  14  18
BRANCH  16  20
ATOM     20  O   UNL     1      87.545  53.129  38.706  0.00  0.00    -0.503 OA
ATOM     21  H   UNL     1      87.534  52.542  37.975  0.00  0.00    +0.000 HD
ENDBRANCH  16  20
BRANCH  15  22
ATOM     22  O   UNL     1      89.586  51.254  39.047  0.00  0.00    -0.501 OA
ATOM     23  H   UNL     1      89.245  51.409  38.188  0.00  0.00    +0.000 HD
ENDBRANCH  15  22
ENDBRANCH   2  12
BRANCH   8  24
ATOM     24  O   UNL     1      83.621  54.330  47.578  0.00  0.00    -0.506 OA
ATOM     25  H   UNL     1      83.501  54.680  48.438  0.00  0.00    +0.000 HD
ENDBRANCH   8  24
BRANCH  10  26
ATOM     26  O   UNL     1      85.470  58.479  46.074  0.00  0.00    -0.507 OA
ATOM     27  H   UNL     1      85.638  58.843  46.920  0.00  0.00    +0.000 HD
ENDBRANCH  10  26
BRANCH   1  28
ATOM     28  O   UNL     1      85.839  50.952  44.160  0.00  0.00    -0.453 OA
BRANCH  28  31
ATOM     29  C   UNL     1      82.694  50.925  42.978  0.00  0.00    +0.114 C 
ATOM     30  O   UNL     1      84.025  51.345  42.768  0.00  0.00    -0.331 OA
ATOM     31  C   UNL     1      84.879  50.351  43.293  0.00  0.00    +0.231 C 
ATOM     32  C   UNL     1      84.050  49.337  44.064  0.00  0.00    +0.145 C 
ATOM     33  C   UNL     1      82.699  49.464  43.415  0.00  0.00    +0.115 C 
BRANCH  33  34
ATOM     34  O   UNL     1      81.664  49.213  44.331  0.00  0.00    -0.386 OA
ATOM     35  H   UNL     1      81.942  49.493  45.217  0.00  0.00    +0.000 HD
ENDBRANCH  33  34
BRANCH  32  36
ATOM     36  O   UNL     1      84.577  48.044  43.911  0.00  0.00    -0.383 OA
ATOM     37  H   UNL     1      84.585  47.807  42.971  0.00  0.00    +0.000 HD
ENDBRANCH  32  36
BRANCH  29  38
ATOM     38  C   UNL     1      81.861  51.158  41.713  0.00  0.00    +0.073 C 
BRANCH  38  39
ATOM     39  O   UNL     1      80.552  50.693  41.898  0.00  0.00    -0.392 OA
ATOM     40  H   UNL     1      80.162  50.473  41.036  0.00  0.00    +0.000 HD
ENDBRANCH  38  39
ENDBRANCH  29  38
ENDBRANCH  28  31
ENDBRANCH   1  28
TORSDOF 12
ENDMDL
MODEL 4
REMARK VINA RESULT:    -8.475      1.751      2.812
REMARK INTER + INTRA:         -13.424
REMARK INTER:                 -12.446
REMARK INTRA:                  -0.978
REMARK UNBOUND:                -0.985
REMARK  Name = 
REMARK  12 active torsions:
REMARK  status: ('A' for Active; 'I' for Inactive)
REMARK    1  A    between atoms: O_1  and  C_2
REMARK    2  A    between atoms: C_2  and  C_3
REMARK    3  A    between atoms: C_5  and  O_10
REMARK    4  A    between atoms: C_6  and  O_9
REMARK    5  A    between atoms: C_7  and  O_8
REMARK    6  A    between atoms: O_10  and  C_11
REMARK    7  A    between atoms: C_12  and  C_24
REMARK    8  A    between atoms: C_18  and  O_19
REMARK    9  A    between atoms: C_21  and  O_23
REMARK   10  A    between atoms: C_26  and  O_27
REMARK   11  A    between atoms: C_28  and  O_32
REMARK   12  A    between atoms: C_29  and  O_31
REMARK                            x       y       z     vdW  Elec       q    Type
REMARK                         _______ _______ _______ _____ _____    ______ ____
ROOT
ATOM      1  C   UNL     1      84.926  49.819  43.484  0.00  0.00    +0.214 A 
ATOM      2  C   UNL     1      83.898  50.661  43.019  0.00  0.00    +0.181 A 
ATOM      3  O   UNL     1      82.656  50.199  42.943  0.00  0.00    -0.451 OA
ATOM      4  C   UNL     1      82.311  48.966  43.298  0.00  0.00    +0.147 A 
ATOM      5  C   UNL     1      83.282  48.046  43.775  0.00  0.00    +0.109 A 
ATOM      6  C   UNL     1      84.609  48.523  43.900  0.00  0.00    +0.238 A 
ATOM      7  O   UNL     1      85.524  47.813  44.394  0.00  0.00    -0.283 OA
ATOM      8  C   UNL     1      82.858  46.725  44.114  0.00  0.00    +0.135 A 
ATOM      9  C   UNL     1      81.498  46.397  44.044  0.00  0.00    +0.022 A 
ATOM     10  C   UNL     1      80.557  47.320  43.590  0.00  0.00    +0.124 A 
ATOM     11  C   UNL     1      80.967  48.597  43.206  0.00  0.00    +0.023 A 
ENDROOT
BRANCH   2  12
ATOM     12  C   UNL     1      84.145  52.064  42.617  0.00  0.00    +0.028 A 
ATOM     13  C   UNL     1      84.361  53.069  43.573  0.00  0.00    -0.006 A 
ATOM     14  C   UNL     1      84.600  54.392  43.185  0.00  0.00    +0.163 A 
ATOM     15  C   UNL     1      84.608  54.726  41.808  0.00  0.00    +0.201 A 
ATOM     16  C   UNL     1      84.361  53.723  40.853  0.00  0.00    +0.163 A 
ATOM     17  C   UNL     1      84.125  52.407  41.260  0.00  0.00    -0.006 A 
BRANCH  14  18
ATOM     18  O   UNL     1      84.818  55.333  44.192  0.00  0.00    -0.503 OA
ATOM     19  H   UNL     1      85.538  55.231  44.782  0.00  0.00    +0.000 HD
ENDBRANCH  14  18
BRANCH  16  20
ATOM     20  O   UNL     1      84.349  54.015  39.488  0.00  0.00    -0.503 OA
ATOM     21  H   UNL     1      84.924  54.670  39.144  0.00  0.00    +0.000 HD
ENDBRANCH  16  20
BRANCH  15  22
ATOM     22  O   UNL     1      84.852  56.027  41.359  0.00  0.00    -0.501 OA
ATOM     23  H   UNL     1      84.460  56.755  41.799  0.00  0.00    +0.000 HD
ENDBRANCH  15  22
ENDBRANCH   2  12
BRANCH   8  24
ATOM     24  O   UNL     1      83.727  45.698  44.495  0.00  0.00    -0.506 OA
ATOM     25  H   UNL     1      83.605  44.832  44.160  0.00  0.00    +0.000 HD
ENDBRANCH   8  24
BRANCH  10  26
ATOM     26  O   UNL     1      79.214  46.953  43.518  0.00  0.00    -0.507 OA
ATOM     27  H   UNL     1      78.585  47.365  44.077  0.00  0.00    +0.000 HD
ENDBRANCH  10  26
BRANCH   1  28
ATOM     28  O   UNL     1      86.257  50.249  43.540  0.00  0.00    -0.453 OA
BRANCH  28  31
ATOM     29  C   UNL     1      89.514  49.648  42.978  0.00  0.00    +0.114 C 
ATOM     30  O   UNL     1      88.282  49.122  43.419  0.00  0.00    -0.331 OA
ATOM     31  C   UNL     1      87.257  49.732  42.664  0.00  0.00    +0.231 C 
ATOM     32  C   UNL     1      87.850  50.859  41.835  0.00  0.00    +0.145 C 
ATOM     33  C   UNL     1      89.286  50.432  41.690  0.00  0.00    +0.115 C 
BRANCH  33  34
ATOM     34  O   UNL     1      90.147  51.539  41.619  0.00  0.00    -0.386 OA
ATOM     35  H   UNL     1      90.520  51.713  42.497  0.00  0.00    +0.000 HD
ENDBRANCH  33  34
BRANCH  32  36
ATOM     36  O   UNL     1      87.211  50.951  40.589  0.00  0.00    -0.383 OA
ATOM     37  H   UNL     1      87.433  50.175  40.052  0.00  0.00    +0.000 HD
ENDBRANCH  32  36
BRANCH  29  38
ATOM     38  C   UNL     1      90.539  48.520  42.806  0.00  0.00    +0.073 C 
BRANCH  38  39
ATOM     39  O   UNL     1      91.261  48.332  43.992  0.00  0.00    -0.392 OA
ATOM     40  H   UNL     1      92.104  48.810  43.936  0.00  0.00    +0.000 HD
ENDBRANCH  38  39
ENDBRANCH  29  38
ENDBRANCH  28  31
ENDBRANCH   1  28
TORSDOF 12
ENDMDL
MODEL 5
REMARK VINA RESULT:    -8.387      2.915      5.703
REMARK INTER + INTRA:         -13.295
REMARK INTER:                 -12.672
REMARK INTRA:                  -0.623
REMARK UNBOUND:                -0.985
REMARK  Name = 
REMARK  12 active torsions:
REMARK  status: ('A' for Active; 'I' for Inactive)
REMARK    1  A    between atoms: O_1  and  C_2
REMARK    2  A    between atoms: C_2  and  C_3
REMARK    3  A    between atoms: C_5  and  O_10
REMARK    4  A    between atoms: C_6  and  O_9
REMARK    5  A    between atoms: C_7  and  O_8
REMARK    6  A    between atoms: O_10  and  C_11
REMARK    7  A    between atoms: C_12  and  C_24
REMARK    8  A    between atoms: C_18  and  O_19
REMARK    9  A    between atoms: C_21  and  O_23
REMARK   10  A    between atoms: C_26  and  O_27
REMARK   11  A    between atoms: C_28  and  O_32
REMARK   12  A    between atoms: C_29  and  O_31
REMARK                            x       y       z     vdW  Elec       q    Type
REMARK                         _______ _______ _______ _____ _____    ______ ____
ROOT
ATOM      1  C   UNL     1      87.143  53.123  43.215  0.00  0.00    +0.214 A 
ATOM      2  C   UNL     1      87.239  52.446  44.445  0.00  0.00    +0.181 A 
ATOM      3  O   UNL     1      87.883  51.287  44.507  0.00  0.00    -0.451 OA
ATOM      4  C   UNL     1      88.467  50.717  43.459  0.00  0.00    +0.147 A 
ATOM      5  C   UNL     1      88.419  51.326  42.177  0.00  0.00    +0.109 A 
ATOM      6  C   UNL     1      87.769  52.581  42.088  0.00  0.00    +0.238 A 
ATOM      7  O   UNL     1      87.746  53.241  41.016  0.00  0.00    -0.283 OA
ATOM      8  C   UNL     1      89.039  50.654  41.080  0.00  0.00    +0.135 A 
ATOM      9  C   UNL     1      89.741  49.464  41.308  0.00  0.00    +0.022 A 
ATOM     10  C   UNL     1      89.793  48.890  42.579  0.00  0.00    +0.124 A 
ATOM     11  C   UNL     1      89.146  49.511  43.647  0.00  0.00    +0.023 A 
ENDROOT
BRANCH   2  12
ATOM     12  C   UNL     1      86.655  52.985  45.693  0.00  0.00    +0.028 A 
ATOM     13  C   UNL     1      86.520  54.367  45.898  0.00  0.00    -0.006 A 
ATOM     14  C   UNL     1      85.960  54.869  47.078  0.00  0.00    +0.163 A 
ATOM     15  C   UNL     1      85.537  53.971  48.088  0.00  0.00    +0.201 A 
ATOM     16  C   UNL     1      85.700  52.587  47.894  0.00  0.00    +0.163 A 
ATOM     17  C   UNL     1      86.261  52.104  46.709  0.00  0.00    -0.006 A 
BRANCH  14  18
ATOM     18  O   UNL     1      85.849  56.255  47.204  0.00  0.00    -0.503 OA
ATOM     19  H   UNL     1      86.578  56.805  46.997  0.00  0.00    +0.000 HD
ENDBRANCH  14  18
BRANCH  16  20
ATOM     20  O   UNL     1      85.307  51.671  48.871  0.00  0.00    -0.503 OA
ATOM     21  H   UNL     1      84.979  51.975  49.694  0.00  0.00    +0.000 HD
ENDBRANCH  16  20
BRANCH  15  22
ATOM     22  O   UNL     1      84.961  54.412  49.282  0.00  0.00    -0.501 OA
ATOM     23  H   UNL     1      85.337  55.135  49.745  0.00  0.00    +0.000 HD
ENDBRANCH  15  22
ENDBRANCH   2  12
BRANCH   8  24
ATOM     24  O   UNL     1      88.974  51.093  39.755  0.00  0.00    -0.506 OA
ATOM     25  H   UNL     1      89.760  51.306  39.292  0.00  0.00    +0.000 HD
ENDBRANCH   8  24
BRANCH  10  26
ATOM     26  O   UNL     1      90.488  47.696  42.765  0.00  0.00    -0.507 OA
ATOM     27  H   UNL     1      91.349  47.594  42.410  0.00  0.00    +0.000 HD
ENDBRANCH  10  26
BRANCH   1  28
ATOM     28  O   UNL     1      86.436  54.324  43.092  0.00  0.00    -0.453 OA
BRANCH  28  31
ATOM     29  C   UNL     1      83.738  53.069  41.533  0.00  0.00    +0.114 C 
ATOM     30  O   UNL     1      84.540  53.047  42.694  0.00  0.00    -0.331 OA
ATOM     31  C   UNL     1      85.022  54.356  42.909  0.00  0.00    +0.231 C 
ATOM     32  C   UNL     1      84.677  55.220  41.707  0.00  0.00    +0.145 C 
ATOM     33  C   UNL     1      83.473  54.519  41.140  0.00  0.00    +0.115 C 
BRANCH  33  34
ATOM     34  O   UNL     1      83.408  54.654  39.744  0.00  0.00    -0.386 OA
ATOM     35  H   UNL     1      82.956  53.884  39.366  0.00  0.00    +0.000 HD
ENDBRANCH  33  34
BRANCH  32  36
ATOM     36  O   UNL     1      84.369  56.531  42.107  0.00  0.00    -0.383 OA
ATOM     37  H   UNL     1      84.124  57.057  41.331  0.00  0.00    +0.000 HD
ENDBRANCH  32  36
BRANCH  29  38
ATOM     38  C   UNL     1      82.446  52.278  41.769  0.00  0.00    +0.073 C 
BRANCH  38  39
ATOM     39  O   UNL     1      81.362  52.919  41.155  0.00  0.00    -0.392 OA
ATOM     40  H   UNL     1      81.632  53.805  40.867  0.00  0.00    +0.000 HD
ENDBRANCH  38  39
ENDBRANCH  29  38
ENDBRANCH  28  31
ENDBRANCH   1  28
TORSDOF 12
ENDMDL
MODEL 6
REMARK VINA RESULT:    -8.294      2.890      6.118
REMARK INTER + INTRA:         -13.158
REMARK INTER:                 -12.511
REMARK INTRA:                  -0.647
REMARK UNBOUND:                -0.985
REMARK  Name = 
REMARK  12 active torsions:
REMARK  status: ('A' for Active; 'I' for Inactive)
REMARK    1  A    between atoms: O_1  and  C_2
REMARK    2  A    between atoms: C_2  and  C_3
REMARK    3  A    between atoms: C_5  and  O_10
REMARK    4  A    between atoms: C_6  and  O_9
REMARK    5  A    between atoms: C_7  and  O_8
REMARK    6  A    between atoms: O_10  and  C_11
REMARK    7  A    between atoms: C_12  and  C_24
REMARK    8  A    between atoms: C_18  and  O_19
REMARK    9  A    between atoms: C_21  and  O_23
REMARK   10  A    between atoms: C_26  and  O_27
REMARK   11  A    between atoms: C_28  and  O_32
REMARK   12  A    between atoms: C_29  and  O_31
REMARK                            x       y       z     vdW  Elec       q    Type
REMARK                         _______ _______ _______ _____ _____    ______ ____
ROOT
ATOM      1  C   UNL     1      85.996  54.159  43.776  0.00  0.00    +0.214 A 
ATOM      2  C   UNL     1      86.875  53.061  43.828  0.00  0.00    +0.181 A 
ATOM      3  O   UNL     1      87.051  52.417  44.975  0.00  0.00    -0.451 OA
ATOM      4  C   UNL     1      86.426  52.743  46.102  0.00  0.00    +0.147 A 
ATOM      5  C   UNL     1      85.524  53.839  46.144  0.00  0.00    +0.109 A 
ATOM      6  C   UNL     1      85.289  54.522  44.926  0.00  0.00    +0.238 A 
ATOM      7  O   UNL     1      84.444  55.451  44.840  0.00  0.00    -0.283 OA
ATOM      8  C   UNL     1      84.903  54.161  47.389  0.00  0.00    +0.135 A 
ATOM      9  C   UNL     1      85.135  53.349  48.506  0.00  0.00    +0.022 A 
ATOM     10  C   UNL     1      86.011  52.266  48.441  0.00  0.00    +0.124 A 
ATOM     11  C   UNL     1      86.664  51.974  47.243  0.00  0.00    +0.023 A 
ENDROOT
BRANCH   2  12
ATOM     12  C   UNL     1      87.613  52.580  42.639  0.00  0.00    +0.028 A 
ATOM     13  C   UNL     1      88.516  53.411  41.956  0.00  0.00    -0.006 A 
ATOM     14  C   UNL     1      89.216  52.947  40.837  0.00  0.00    +0.163 A 
ATOM     15  C   UNL     1      88.998  51.625  40.375  0.00  0.00    +0.201 A 
ATOM     16  C   UNL     1      88.071  50.804  41.043  0.00  0.00    +0.163 A 
ATOM     17  C   UNL     1      87.382  51.285  42.160  0.00  0.00    -0.006 A 
BRANCH  14  18
ATOM     18  O   UNL     1      90.104  53.827  40.218  0.00  0.00    -0.503 OA
ATOM     19  H   UNL     1      89.916  54.160  39.363  0.00  0.00    +0.000 HD
ENDBRANCH  14  18
BRANCH  16  20
ATOM     20  O   UNL     1      87.821  49.501  40.612  0.00  0.00    -0.503 OA
ATOM     21  H   UNL     1      88.454  49.051  40.087  0.00  0.00    +0.000 HD
ENDBRANCH  16  20
BRANCH  15  22
ATOM     22  O   UNL     1      89.675  51.102  39.270  0.00  0.00    -0.501 OA
ATOM     23  H   UNL     1      89.403  50.286  38.898  0.00  0.00    +0.000 HD
ENDBRANCH  15  22
ENDBRANCH   2  12
BRANCH   8  24
ATOM     24  O   UNL     1      84.079  55.273  47.587  0.00  0.00    -0.506 OA
ATOM     25  H   UNL     1      84.031  55.675  48.431  0.00  0.00    +0.000 HD
ENDBRANCH   8  24
BRANCH  10  26
ATOM     26  O   UNL     1      86.230  51.490  49.577  0.00  0.00    -0.507 OA
ATOM     27  H   UNL     1      86.901  51.728  50.186  0.00  0.00    +0.000 HD
ENDBRANCH  10  26
BRANCH   1  28
ATOM     28  O   UNL     1      85.813  54.896  42.600  0.00  0.00    -0.453 OA
BRANCH  28  31
ATOM     29  C   UNL     1      83.752  55.288  39.976  0.00  0.00    +0.114 C 
ATOM     30  O   UNL     1      85.085  55.320  40.438  0.00  0.00    -0.331 OA
ATOM     31  C   UNL     1      85.219  54.329  41.434  0.00  0.00    +0.231 C 
ATOM     32  C   UNL     1      83.846  53.771  41.773  0.00  0.00    +0.145 C 
ATOM     33  C   UNL     1      83.071  54.032  40.511  0.00  0.00    +0.115 C 
BRANCH  33  34
ATOM     34  O   UNL     1      81.715  54.276  40.782  0.00  0.00    -0.386 OA
ATOM     35  H   UNL     1      81.641  54.914  41.508  0.00  0.00    +0.000 HD
ENDBRANCH  33  34
BRANCH  32  36
ATOM     36  O   UNL     1      83.923  52.398  42.057  0.00  0.00    -0.383 OA
ATOM     37  H   UNL     1      84.742  52.212  42.541  0.00  0.00    +0.000 HD
ENDBRANCH  32  36
BRANCH  29  38
ATOM     38  C   UNL     1      83.721  55.368  38.446  0.00  0.00    +0.073 C 
BRANCH  38  39
ATOM     39  O   UNL     1      84.771  56.170  37.977  0.00  0.00    -0.392 OA
ATOM     40  H   UNL     1      84.549  56.509  37.095  0.00  0.00    +0.000 HD
ENDBRANCH  38  39
ENDBRANCH  29  38
ENDBRANCH  28  31
ENDBRANCH   1  28
TORSDOF 12
ENDMDL
MODEL 7
REMARK VINA RESULT:    -8.282      2.467      5.346
REMARK INTER + INTRA:         -13.140
REMARK INTER:                 -11.607
REMARK INTRA:                  -1.533
REMARK UNBOUND:                -0.985
REMARK  Name = 
REMARK  12 active torsions:
REMARK  status: ('A' for Active; 'I' for Inactive)
REMARK    1  A    between atoms: O_1  and  C_2
REMARK    2  A    between atoms: C_2  and  C_3
REMARK    3  A    between atoms: C_5  and  O_10
REMARK    4  A    between atoms: C_6  and  O_9
REMARK    5  A    between atoms: C_7  and  O_8
REMARK    6  A    between atoms: O_10  and  C_11
REMARK    7  A    between atoms: C_12  and  C_24
REMARK    8  A    between atoms: C_18  and  O_19
REMARK    9  A    between atoms: C_21  and  O_23
REMARK   10  A    between atoms: C_26  and  O_27
REMARK   11  A    between atoms: C_28  and  O_32
REMARK   12  A    between atoms: C_29  and  O_31
REMARK                            x       y       z     vdW  Elec       q    Type
REMARK                         _______ _______ _______ _____ _____    ______ ____
ROOT
ATOM      1  C   UNL     1      83.389  50.401  43.309  0.00  0.00    +0.214 A 
ATOM      2  C   UNL     1      84.111  49.252  43.685  0.00  0.00    +0.181 A 
ATOM      3  O   UNL     1      83.457  48.148  44.022  0.00  0.00    -0.451 OA
ATOM      4  C   UNL     1      82.132  48.051  44.017  0.00  0.00    +0.147 A 
ATOM      5  C   UNL     1      81.321  49.160  43.655  0.00  0.00    +0.109 A 
ATOM      6  C   UNL     1      81.993  50.341  43.256  0.00  0.00    +0.238 A 
ATOM      7  O   UNL     1      81.367  51.349  42.836  0.00  0.00    -0.283 OA
ATOM      8  C   UNL     1      79.902  49.007  43.695  0.00  0.00    +0.135 A 
ATOM      9  C   UNL     1      79.351  47.758  44.009  0.00  0.00    +0.022 A 
ATOM     10  C   UNL     1      80.164  46.676  44.344  0.00  0.00    +0.124 A 
ATOM     11  C   UNL     1      81.551  46.828  44.360  0.00  0.00    +0.023 A 
ENDROOT
BRANCH   2  12
ATOM     12  C   UNL     1      85.590  49.220  43.708  0.00  0.00    +0.028 A 
ATOM     13  C   UNL     1      86.322  48.608  42.678  0.00  0.00    -0.006 A 
ATOM     14  C   UNL     1      87.722  48.586  42.704  0.00  0.00    +0.163 A 
ATOM     15  C   UNL     1      88.409  49.177  43.792  0.00  0.00    +0.201 A 
ATOM     16  C   UNL     1      87.674  49.763  44.838  0.00  0.00    +0.163 A 
ATOM     17  C   UNL     1      86.277  49.775  44.795  0.00  0.00    -0.006 A 
BRANCH  14  18
ATOM     18  O   UNL     1      88.379  47.970  41.639  0.00  0.00    -0.503 OA
ATOM     19  H   UNL     1      88.038  47.180  41.270  0.00  0.00    +0.000 HD
ENDBRANCH  14  18
BRANCH  16  20
ATOM     20  O   UNL     1      88.315  50.344  45.933  0.00  0.00    -0.503 OA
ATOM     21  H   UNL     1      88.116  50.053  46.801  0.00  0.00    +0.000 HD
ENDBRANCH  16  20
BRANCH  15  22
ATOM     22  O   UNL     1      89.805  49.197  43.868  0.00  0.00    -0.501 OA
ATOM     23  H   UNL     1      90.308  48.558  43.403  0.00  0.00    +0.000 HD
ENDBRANCH  15  22
ENDBRANCH   2  12
BRANCH   8  24
ATOM     24  O   UNL     1      78.996  50.047  43.464  0.00  0.00    -0.506 OA
ATOM     25  H   UNL     1      79.046  50.544  42.672  0.00  0.00    +0.000 HD
ENDBRANCH   8  24
BRANCH  10  26
ATOM     26  O   UNL     1      79.580  45.452  44.667  0.00  0.00    -0.507 OA
ATOM     27  H   UNL     1      79.832  44.676  44.206  0.00  0.00    +0.000 HD
ENDBRANCH  10  26
BRANCH   1  28
ATOM     28  O   UNL     1      84.034  51.600  42.989  0.00  0.00    -0.453 OA
BRANCH  28  31
ATOM     29  C   UNL     1      86.247  53.121  40.970  0.00  0.00    +0.114 C 
ATOM     30  O   UNL     1      85.851  51.912  41.580  0.00  0.00    -0.331 OA
ATOM     31  C   UNL     1      84.442  51.910  41.658  0.00  0.00    +0.231 C 
ATOM     32  C   UNL     1      83.917  53.281  41.263  0.00  0.00    +0.145 C 
ATOM     33  C   UNL     1      85.018  53.806  40.382  0.00  0.00    +0.115 C 
BRANCH  33  34
ATOM     34  O   UNL     1      85.131  55.203  40.478  0.00  0.00    -0.386 OA
ATOM     35  H   UNL     1      84.627  55.617  39.761  0.00  0.00    +0.000 HD
ENDBRANCH  33  34
BRANCH  32  36
ATOM     36  O   UNL     1      82.706  53.169  40.563  0.00  0.00    -0.383 OA
ATOM     37  H   UNL     1      82.865  53.304  39.616  0.00  0.00    +0.000 HD
ENDBRANCH  32  36
BRANCH  29  38
ATOM     38  C   UNL     1      87.330  52.852  39.919  0.00  0.00    +0.073 C 
BRANCH  38  39
ATOM     39  O   UNL     1      87.074  53.590  38.755  0.00  0.00    -0.392 OA
ATOM     40  H   UNL     1      86.742  52.996  38.063  0.00  0.00    +0.000 HD
ENDBRANCH  38  39
ENDBRANCH  29  38
ENDBRANCH  28  31
ENDBRANCH   1  28
TORSDOF 12
ENDMDL
MODEL 8
REMARK VINA RESULT:    -8.031      2.377      6.593
REMARK INTER + INTRA:         -12.772
REMARK INTER:                 -12.214
REMARK INTRA:                  -0.557
REMARK UNBOUND:                -0.985
REMARK  Name = 
REMARK  12 active torsions:
REMARK  status: ('A' for Active; 'I' for Inactive)
REMARK    1  A    between atoms: O_1  and  C_2
REMARK    2  A    between atoms: C_2  and  C_3
REMARK    3  A    between atoms: C_5  and  O_10
REMARK    4  A    between atoms: C_6  and  O_9
REMARK    5  A    between atoms: C_7  and  O_8
REMARK    6  A    between atoms: O_10  and  C_11
REMARK    7  A    between atoms: C_12  and  C_24
REMARK    8  A    between atoms: C_18  and  O_19
REMARK    9  A    between atoms: C_21  and  O_23
REMARK   10  A    between atoms: C_26  and  O_27
REMARK   11  A    between atoms: C_28  and  O_32
REMARK   12  A    between atoms: C_29  and  O_31
REMARK                            x       y       z     vdW  Elec       q    Type
REMARK                         _______ _______ _______ _____ _____    ______ ____
ROOT
ATOM      1  C   UNL     1      85.793  53.311  43.635  0.00  0.00    +0.214 A 
ATOM      2  C   UNL     1      85.597  52.221  44.505  0.00  0.00    +0.181 A 
ATOM      3  O   UNL     1      85.197  52.440  45.751  0.00  0.00    -0.451 OA
ATOM      4  C   UNL     1      84.952  53.652  46.239  0.00  0.00    +0.147 A 
ATOM      5  C   UNL     1      85.125  54.810  45.435  0.00  0.00    +0.109 A 
ATOM      6  C   UNL     1      85.517  54.603  44.090  0.00  0.00    +0.238 A 
ATOM      7  O   UNL     1      85.614  55.557  43.275  0.00  0.00    -0.283 OA
ATOM      8  C   UNL     1      84.874  56.088  46.020  0.00  0.00    +0.135 A 
ATOM      9  C   UNL     1      84.392  56.163  47.333  0.00  0.00    +0.022 A 
ATOM     10  C   UNL     1      84.211  55.013  48.101  0.00  0.00    +0.124 A 
ATOM     11  C   UNL     1      84.503  53.762  47.556  0.00  0.00    +0.023 A 
ENDROOT
BRANCH   2  12
ATOM     12  C   UNL     1      85.811  50.820  44.079  0.00  0.00    +0.028 A 
ATOM     13  C   UNL     1      84.791  49.861  44.187  0.00  0.00    -0.006 A 
ATOM     14  C   UNL     1      84.998  48.540  43.777  0.00  0.00    +0.163 A 
ATOM     15  C   UNL     1      86.260  48.159  43.259  0.00  0.00    +0.201 A 
ATOM     16  C   UNL     1      87.291  49.113  43.179  0.00  0.00    +0.163 A 
ATOM     17  C   UNL     1      87.065  50.429  43.594  0.00  0.00    -0.006 A 
BRANCH  14  18
ATOM     18  O   UNL     1      83.933  47.647  43.904  0.00  0.00    -0.503 OA
ATOM     19  H   UNL     1      84.049  46.743  43.688  0.00  0.00    +0.000 HD
ENDBRANCH  14  18
BRANCH  16  20
ATOM     20  O   UNL     1      88.552  48.774  42.686  0.00  0.00    -0.503 OA
ATOM     21  H   UNL     1      89.237  49.413  42.671  0.00  0.00    +0.000 HD
ENDBRANCH  16  20
BRANCH  15  22
ATOM     22  O   UNL     1      86.524  46.858  42.823  0.00  0.00    -0.501 OA
ATOM     23  H   UNL     1      86.597  46.677  41.906  0.00  0.00    +0.000 HD
ENDBRANCH  15  22
ENDBRANCH   2  12
BRANCH   8  24
ATOM     24  O   UNL     1      85.105  57.305  45.372  0.00  0.00    -0.506 OA
ATOM     25  H   UNL     1      84.624  57.523  44.599  0.00  0.00    +0.000 HD
ENDBRANCH   8  24
BRANCH  10  26
ATOM     26  O   UNL     1      83.745  55.127  49.410  0.00  0.00    -0.507 OA
ATOM     27  H   UNL     1      84.325  55.403  50.092  0.00  0.00    +0.000 HD
ENDBRANCH  10  26
BRANCH   1  28
ATOM     28  O   UNL     1      86.257  53.131  42.327  0.00  0.00    -0.453 OA
BRANCH  28  31
ATOM     29  C   UNL     1      84.310  54.869  40.212  0.00  0.00    +0.114 C 
ATOM     30  O   UNL     1      85.573  54.278  40.430  0.00  0.00    -0.331 OA
ATOM     31  C   UNL     1      85.376  53.115  41.206  0.00  0.00    +0.231 C 
ATOM     32  C   UNL     1      83.933  53.070  41.683  0.00  0.00    +0.145 C 
ATOM     33  C   UNL     1      83.223  53.888  40.639  0.00  0.00    +0.115 C 
BRANCH  33  34
ATOM     34  O   UNL     1      82.122  54.569  41.181  0.00  0.00    -0.386 OA
ATOM     35  H   UNL     1      81.324  54.347  40.676  0.00  0.00    +0.000 HD
ENDBRANCH  33  34
BRANCH  32  36
ATOM     36  O   UNL     1      83.460  51.749  41.713  0.00  0.00    -0.383 OA
ATOM     37  H   UNL     1      83.650  51.356  42.579  0.00  0.00    +0.000 HD
ENDBRANCH  32  36
BRANCH  29  38
ATOM     38  C   UNL     1      84.174  55.297  38.746  0.00  0.00    +0.073 C 
BRANCH  38  39
ATOM     39  O   UNL     1      85.175  56.219  38.411  0.00  0.00    -0.392 OA
ATOM     40  H   UNL     1      85.333  56.191  37.454  0.00  0.00    +0.000 HD
ENDBRANCH  38  39
ENDBRANCH  29  38
ENDBRANCH  28  31
ENDBRANCH   1  28
TORSDOF 12
ENDMDL
MODEL 9
REMARK VINA RESULT:    -7.701      1.965      6.437
REMARK INTER + INTRA:         -12.288
REMARK INTER:                 -11.302
REMARK INTRA:                  -0.985
REMARK UNBOUND:                -0.985
REMARK  Name = 
REMARK  12 active torsions:
REMARK  status: ('A' for Active; 'I' for Inactive)
REMARK    1  A    between atoms: O_1  and  C_2
REMARK    2  A    between atoms: C_2  and  C_3
REMARK    3  A    between atoms: C_5  and  O_10
REMARK    4  A    between atoms: C_6  and  O_9
REMARK    5  A    between atoms: C_7  and  O_8
REMARK    6  A    between atoms: O_10  and  C_11
REMARK    7  A    between atoms: C_12  and  C_24
REMARK    8  A    between atoms: C_18  and  O_19
REMARK    9  A    between atoms: C_21  and  O_23
REMARK   10  A    between atoms: C_26  and  O_27
REMARK   11  A    between atoms: C_28  and  O_32
REMARK   12  A    between atoms: C_29  and  O_31
REMARK                            x       y       z     vdW  Elec       q    Type
REMARK                         _______ _______ _______ _____ _____    ______ ____
ROOT
ATOM      1  C   UNL     1      85.776  51.879  42.752  0.00  0.00    +0.214 A 
ATOM      2  C   UNL     1      85.091  51.246  43.806  0.00  0.00    +0.181 A 
ATOM      3  O   UNL     1      84.846  51.917  44.925  0.00  0.00    -0.451 OA
ATOM      4  C   UNL     1      85.205  53.182  45.114  0.00  0.00    +0.147 A 
ATOM      5  C   UNL     1      85.904  53.900  44.107  0.00  0.00    +0.109 A 
ATOM      6  C   UNL     1      86.147  53.220  42.889  0.00  0.00    +0.238 A 
ATOM      7  O   UNL     1      86.682  53.796  41.905  0.00  0.00    -0.283 OA
ATOM      8  C   UNL     1      86.290  55.248  44.376  0.00  0.00    +0.135 A 
ATOM      9  C   UNL     1      85.905  55.848  45.581  0.00  0.00    +0.022 A 
ATOM     10  C   UNL     1      85.204  55.133  46.551  0.00  0.00    +0.124 A 
ATOM     11  C   UNL     1      84.867  53.798  46.320  0.00  0.00    +0.023 A 
ENDROOT
BRANCH   2  12
ATOM     12  C   UNL     1      84.614  49.848  43.714  0.00  0.00    +0.028 A 
ATOM     13  C   UNL     1      85.474  48.767  43.962  0.00  0.00    -0.006 A 
ATOM     14  C   UNL     1      85.015  47.448  43.880  0.00  0.00    +0.163 A 
ATOM     15  C   UNL     1      83.666  47.199  43.525  0.00  0.00    +0.201 A 
ATOM     16  C   UNL     1      82.813  48.282  43.249  0.00  0.00    +0.163 A 
ATOM     17  C   UNL     1      83.290  49.593  43.336  0.00  0.00    -0.006 A 
BRANCH  14  18
ATOM     18  O   UNL     1      85.926  46.426  44.151  0.00  0.00    -0.503 OA
ATOM     19  H   UNL     1      85.655  45.531  44.107  0.00  0.00    +0.000 HD
ENDBRANCH  14  18
BRANCH  16  20
ATOM     20  O   UNL     1      81.481  48.077  42.885  0.00  0.00    -0.503 OA
ATOM     21  H   UNL     1      80.796  48.252  43.499  0.00  0.00    +0.000 HD
ENDBRANCH  16  20
BRANCH  15  22
ATOM     22  O   UNL     1      83.147  45.904  43.438  0.00  0.00    -0.501 OA
ATOM     23  H   UNL     1      82.247  45.745  43.649  0.00  0.00    +0.000 HD
ENDBRANCH  15  22
ENDBRANCH   2  12
BRANCH   8  24
ATOM     24  O   UNL     1      87.068  56.026  43.514  0.00  0.00    -0.506 OA
ATOM     25  H   UNL     1      87.115  55.812  42.603  0.00  0.00    +0.000 HD
ENDBRANCH   8  24
BRANCH  10  26
ATOM     26  O   UNL     1      84.852  55.758  47.746  0.00  0.00    -0.507 OA
ATOM     27  H   UNL     1      85.306  56.529  48.023  0.00  0.00    +0.000 HD
ENDBRANCH  10  26
BRANCH   1  28
ATOM     28  O   UNL     1      86.096  51.199  41.572  0.00  0.00    -0.453 OA
BRANCH  28  31
ATOM     29  C   UNL     1      88.180  48.604  42.031  0.00  0.00    +0.114 C 
ATOM     30  O   UNL     1      87.264  49.236  41.163  0.00  0.00    -0.331 OA
ATOM     31  C   UNL     1      87.385  50.630  41.350  0.00  0.00    +0.231 C 
ATOM     32  C   UNL     1      88.281  50.899  42.547  0.00  0.00    +0.145 C 
ATOM     33  C   UNL     1      89.126  49.655  42.603  0.00  0.00    +0.115 C 
BRANCH  33  34
ATOM     34  O   UNL     1      89.486  49.337  43.923  0.00  0.00    -0.386 OA
ATOM     35  H   UNL     1      90.392  49.639  44.092  0.00  0.00    +0.000 HD
ENDBRANCH  33  34
BRANCH  32  36
ATOM     36  O   UNL     1      89.064  52.045  42.337  0.00  0.00    -0.383 OA
ATOM     37  H   UNL     1      88.514  52.748  41.959  0.00  0.00    +0.000 HD
ENDBRANCH  32  36
BRANCH  29  38
ATOM     38  C   UNL     1      88.923  47.486  41.291  0.00  0.00    +0.073 C 
BRANCH  38  39
ATOM     39  O   UNL     1      89.823  46.844  42.153  0.00  0.00    -0.392 OA
ATOM     40  H   UNL     1      89.892  47.347  42.980  0.00  0.00    +0.000 HD
ENDBRANCH  38  39
ENDBRANCH  29  38
ENDBRANCH  28  31
ENDBRANCH   1  28
TORSDOF 12
ENDMDL
