MODEL 1
REMARK VINA RESULT:    -9.371      0.000      0.000
REMARK INTER + INTRA:         -13.559
REMARK INTER:                 -12.219
REMARK INTRA:                  -1.340
REMARK UNBOUND:                -0.353
REMARK  Name = 
REMARK  12 active torsions:
REMARK  status: ('A' for Active; 'I' for Inactive)
REMARK    1  A    between atoms: O_1  and  C_2
REMARK    2  A    between atoms: C_4  and  O_5
REMARK    3  A    between atoms: C_10  and  C_25
REMARK    4  A    between atoms: C_11  and  O_14
REMARK    5  A    between atoms: O_14  and  C_15
REMARK    6  A    between atoms: C_17  and  C_18
REMARK    7  A    between atoms: C_19  and  O_24
REMARK    8  A    between atoms: C_20  and  O_23
REMARK    9  A    between atoms: C_21  and  O_22
REMARK   10  A    between atoms: C_27  and  O_28
REMARK   11  A    between atoms: C_29  and  O_33
REMARK   12  A    between atoms: C_30  and  O_32
REMARK                            x       y       z     vdW  Elec       q    Type
REMARK                         _______ _______ _______ _____ _____    ______ ____
ROOT
ATOM      1  C   UNL     1      80.313  47.520  44.389  0.00  0.00    +0.124 A 
ATOM      2  C   UNL     1      81.232  46.482  44.538  0.00  0.00    +0.022 A 
ATOM      3  C   UNL     1      82.602  46.692  44.329  0.00  0.00    +0.135 A 
ATOM      4  C   UNL     1      83.073  48.003  44.019  0.00  0.00    +0.109 A 
ATOM      5  C   UNL     1      82.119  49.042  43.847  0.00  0.00    +0.147 A 
ATOM      6  C   UNL     1      80.757  48.794  44.031  0.00  0.00    +0.023 A 
ATOM      7  O   UNL     1      82.501  50.268  43.509  0.00  0.00    -0.451 OA
ATOM      8  C   UNL     1      83.770  50.618  43.334  0.00  0.00    +0.181 A 
ATOM      9  C   UNL     1      84.789  49.675  43.572  0.00  0.00    +0.214 A 
ATOM     10  C   UNL     1      84.437  48.363  43.907  0.00  0.00    +0.238 A 
ATOM     11  O   UNL     1      85.360  47.539  44.145  0.00  0.00    -0.283 OA
ENDROOT
BRANCH   8  12
ATOM     12  C   UNL     1      84.056  52.004  42.897  0.00  0.00    +0.028 A 
ATOM     13  C   UNL     1      84.001  52.324  41.531  0.00  0.00    -0.006 A 
ATOM     14  C   UNL     1      84.273  53.627  41.092  0.00  0.00    +0.163 A 
ATOM     15  C   UNL     1      84.611  54.625  42.023  0.00  0.00    +0.201 A 
ATOM     16  C   UNL     1      84.688  54.305  43.390  0.00  0.00    +0.163 A 
ATOM     17  C   UNL     1      84.423  53.001  43.818  0.00  0.00    -0.006 A 
BRANCH  14  18
ATOM     18  O   UNL     1      84.207  53.935  39.734  0.00  0.00    -0.503 OA
ATOM     19  H   UNL     1      84.993  54.111  39.254  0.00  0.00    +0.000 HD
ENDBRANCH  14  18
BRANCH  16  20
ATOM     20  O   UNL     1      85.029  55.269  44.338  0.00  0.00    -0.503 OA
ATOM     21  H   UNL     1      85.915  55.564  44.408  0.00  0.00    +0.000 HD
ENDBRANCH  16  20
BRANCH  15  22
ATOM     22  O   UNL     1      84.879  55.929  41.605  0.00  0.00    -0.501 OA
ATOM     23  H   UNL     1      85.637  56.107  41.082  0.00  0.00    +0.000 HD
ENDBRANCH  15  22
ENDBRANCH   8  12
BRANCH   1  24
ATOM     24  O   UNL     1      78.957  47.273  44.593  0.00  0.00    -0.507 OA
ATOM     25  H   UNL     1      78.592  46.443  44.360  0.00  0.00    +0.000 HD
ENDBRANCH   1  24
BRANCH   3  26
ATOM     26  O   UNL     1      83.424  45.566  44.418  0.00  0.00    -0.506 OA
ATOM     27  H   UNL     1      83.071  44.749  44.713  0.00  0.00    +0.000 HD
ENDBRANCH   3  26
BRANCH   9  28
ATOM     28  O   UNL     1      86.142  50.025  43.502  0.00  0.00    -0.453 OA
BRANCH  28  29
ATOM     29  C   UNL     1      86.823  50.211  42.259  0.00  0.00    +0.231 C 
ATOM     30  O   UNL     1      87.220  48.946  41.743  0.00  0.00    -0.334 OA
ATOM     31  C   UNL     1      88.424  48.500  42.339  0.00  0.00    +0.088 C 
ATOM     32  C   UNL     1      88.618  47.020  42.010  0.00  0.00    -0.036 C 
ATOM     33  C   UNL     1      89.622  49.347  41.830  0.00  0.00    +0.110 C 
ATOM     34  C   UNL     1      89.192  50.807  41.530  0.00  0.00    +0.115 C 
ATOM     35  C   UNL     1      88.011  51.203  42.440  0.00  0.00    +0.145 C 
BRANCH  35  36
ATOM     36  O   UNL     1      87.614  52.536  42.229  0.00  0.00    -0.383 OA
ATOM     37  H   UNL     1      86.749  52.685  42.643  0.00  0.00    +0.000 HD
ENDBRANCH  35  36
BRANCH  34  38
ATOM     38  O   UNL     1      88.813  50.902  40.179  0.00  0.00    -0.386 OA
ATOM     39  H   UNL     1      87.866  51.107  40.121  0.00  0.00    +0.000 HD
ENDBRANCH  34  38
BRANCH  33  40
ATOM     40  O   UNL     1      90.634  49.335  42.805  0.00  0.00    -0.387 OA
ATOM     41  H   UNL     1      90.237  49.219  43.683  0.00  0.00    +0.000 HD
ENDBRANCH  33  40
ENDBRANCH  28  29
ENDBRANCH   9  28
TORSDOF 11
ENDMDL
MODEL 2
REMARK VINA RESULT:    -9.254      4.111      7.664
REMARK INTER + INTRA:         -13.394
REMARK INTER:                 -12.906
REMARK INTRA:                  -0.488
REMARK UNBOUND:                -0.353
REMARK  Name = 
REMARK  12 active torsions:
REMARK  status: ('A' for Active; 'I' for Inactive)
REMARK    1  A    between atoms: O_1  and  C_2
REMARK    2  A    between atoms: C_4  and  O_5
REMARK    3  A    between atoms: C_10  and  C_25
REMARK    4  A    between atoms: C_11  and  O_14
REMARK    5  A    between atoms: O_14  and  C_15
REMARK    6  A    between atoms: C_17  and  C_18
REMARK    7  A    between atoms: C_19  and  O_24
REMARK    8  A    between atoms: C_20  and  O_23
REMARK    9  A    between atoms: C_21  and  O_22
REMARK   10  A    between atoms: C_27  and  O_28
REMARK   11  A    between atoms: C_29  and  O_33
REMARK   12  A    between atoms: C_30  and  O_32
REMARK                            x       y       z     vdW  Elec       q    Type
REMARK                         _______ _______ _______ _____ _____    ______ ____
ROOT
ATOM      1  C   UNL     1      89.629  49.851  41.531  0.00  0.00    +0.124 A 
ATOM      2  C   UNL     1      89.213  50.621  40.444  0.00  0.00    +0.022 A 
ATOM      3  C   UNL     1      88.239  51.617  40.593  0.00  0.00    +0.135 A 
ATOM      4  C   UNL     1      87.706  51.892  41.888  0.00  0.00    +0.109 A 
ATOM      5  C   UNL     1      88.123  51.081  42.977  0.00  0.00    +0.147 A 
ATOM      6  C   UNL     1      89.073  50.075  42.791  0.00  0.00    +0.023 A 
ATOM      7  O   UNL     1      87.622  51.263  44.193  0.00  0.00    -0.451 OA
ATOM      8  C   UNL     1      86.734  52.206  44.486  0.00  0.00    +0.181 A 
ATOM      9  C   UNL     1      86.331  53.114  43.487  0.00  0.00    +0.214 A 
ATOM     10  C   UNL     1      86.813  52.950  42.183  0.00  0.00    +0.238 A 
ATOM     11  O   UNL     1      86.467  53.786  41.308  0.00  0.00    -0.283 OA
ENDROOT
BRANCH   8  12
ATOM     12  C   UNL     1      86.207  52.261  45.869  0.00  0.00    +0.028 A 
ATOM     13  C   UNL     1      86.875  51.572  46.893  0.00  0.00    -0.006 A 
ATOM     14  C   UNL     1      86.393  51.604  48.208  0.00  0.00    +0.163 A 
ATOM     15  C   UNL     1      85.225  52.327  48.509  0.00  0.00    +0.201 A 
ATOM     16  C   UNL     1      84.540  53.003  47.485  0.00  0.00    +0.163 A 
ATOM     17  C   UNL     1      85.024  52.958  46.174  0.00  0.00    -0.006 A 
BRANCH  14  18
ATOM     18  O   UNL     1      87.070  50.922  49.218  0.00  0.00    -0.503 OA
ATOM     19  H   UNL     1      87.813  51.314  49.632  0.00  0.00    +0.000 HD
ENDBRANCH  14  18
BRANCH  16  20
ATOM     20  O   UNL     1      83.375  53.721  47.749  0.00  0.00    -0.503 OA
ATOM     21  H   UNL     1      82.923  53.599  48.561  0.00  0.00    +0.000 HD
ENDBRANCH  16  20
BRANCH  15  22
ATOM     22  O   UNL     1      84.734  52.375  49.815  0.00  0.00    -0.501 OA
ATOM     23  H   UNL     1      83.858  52.096  49.997  0.00  0.00    +0.000 HD
ENDBRANCH  15  22
ENDBRANCH   8  12
BRANCH   1  24
ATOM     24  O   UNL     1      90.592  48.861  41.344  0.00  0.00    -0.507 OA
ATOM     25  H   UNL     1      91.329  48.811  41.919  0.00  0.00    +0.000 HD
ENDBRANCH   1  24
BRANCH   3  26
ATOM     26  O   UNL     1      87.832  52.268  39.425  0.00  0.00    -0.506 OA
ATOM     27  H   UNL     1      88.393  52.278  38.674  0.00  0.00    +0.000 HD
ENDBRANCH   3  26
BRANCH   9  28
ATOM     28  O   UNL     1      85.478  54.186  43.772  0.00  0.00    -0.453 OA
BRANCH  28  29
ATOM     29  C   UNL     1      85.914  55.547  43.725  0.00  0.00    +0.231 C 
ATOM     30  O   UNL     1      86.546  55.883  44.955  0.00  0.00    -0.334 OA
ATOM     31  C   UNL     1      85.595  56.219  45.949  0.00  0.00    +0.088 C 
ATOM     32  C   UNL     1      86.289  56.237  47.311  0.00  0.00    -0.036 C 
ATOM     33  C   UNL     1      84.949  57.595  45.632  0.00  0.00    +0.110 C 
ATOM     34  C   UNL     1      84.852  57.833  44.103  0.00  0.00    +0.115 C 
ATOM     35  C   UNL     1      84.721  56.482  43.370  0.00  0.00    +0.145 C 
BRANCH  35  36
ATOM     36  O   UNL     1      84.589  56.654  41.979  0.00  0.00    -0.383 OA
ATOM     37  H   UNL     1      85.297  56.171  41.526  0.00  0.00    +0.000 HD
ENDBRANCH  35  36
BRANCH  34  38
ATOM     38  O   UNL     1      86.010  58.505  43.671  0.00  0.00    -0.386 OA
ATOM     39  H   UNL     1      85.758  59.323  43.213  0.00  0.00    +0.000 HD
ENDBRANCH  34  38
BRANCH  33  40
ATOM     40  O   UNL     1      83.667  57.639  46.208  0.00  0.00    -0.387 OA
ATOM     41  H   UNL     1      83.728  57.417  47.151  0.00  0.00    +0.000 HD
ENDBRANCH  33  40
ENDBRANCH  28  29
ENDBRANCH   9  28
TORSDOF 11
ENDMDL
MODEL 3
REMARK VINA RESULT:    -9.180      3.755      6.439
REMARK INTER + INTRA:         -13.289
REMARK INTER:                 -12.104
REMARK INTRA:                  -1.185
REMARK UNBOUND:                -0.353
REMARK  Name = 
REMARK  12 active torsions:
REMARK  status: ('A' for Active; 'I' for Inactive)
REMARK    1  A    between atoms: O_1  and  C_2
REMARK    2  A    between atoms: C_4  and  O_5
REMARK    3  A    between atoms: C_10  and  C_25
REMARK    4  A    between atoms: C_11  and  O_14
REMARK    5  A    between atoms: O_14  and  C_15
REMARK    6  A    between atoms: C_17  and  C_18
REMARK    7  A    between atoms: C_19  and  O_24
REMARK    8  A    between atoms: C_20  and  O_23
REMARK    9  A    between atoms: C_21  and  O_22
REMARK   10  A    between atoms: C_27  and  O_28
REMARK   11  A    between atoms: C_29  and  O_33
REMARK   12  A    between atoms: C_30  and  O_32
REMARK                            x       y       z     vdW  Elec       q    Type
REMARK                         _______ _______ _______ _____ _____    ______ ____
ROOT
ATOM      1  C   UNL     1      88.067  48.745  42.353  0.00  0.00    +0.124 A 
ATOM      2  C   UNL     1      88.338  48.929  43.708  0.00  0.00    +0.022 A 
ATOM      3  C   UNL     1      87.813  50.022  44.410  0.00  0.00    +0.135 A 
ATOM      4  C   UNL     1      86.936  50.930  43.744  0.00  0.00    +0.109 A 
ATOM      5  C   UNL     1      86.693  50.741  42.358  0.00  0.00    +0.147 A 
ATOM      6  C   UNL     1      87.256  49.660  41.678  0.00  0.00    +0.023 A 
ATOM      7  O   UNL     1      85.925  51.586  41.680  0.00  0.00    -0.451 OA
ATOM      8  C   UNL     1      85.320  52.632  42.232  0.00  0.00    +0.181 A 
ATOM      9  C   UNL     1      85.433  52.844  43.620  0.00  0.00    +0.214 A 
ATOM     10  C   UNL     1      86.250  51.996  44.375  0.00  0.00    +0.238 A 
ATOM     11  O   UNL     1      86.317  52.181  45.619  0.00  0.00    -0.283 OA
ENDROOT
BRANCH   8  12
ATOM     12  C   UNL     1      84.542  53.532  41.350  0.00  0.00    +0.028 A 
ATOM     13  C   UNL     1      85.216  54.369  40.447  0.00  0.00    -0.006 A 
ATOM     14  C   UNL     1      84.502  55.234  39.606  0.00  0.00    +0.163 A 
ATOM     15  C   UNL     1      83.098  55.272  39.670  0.00  0.00    +0.201 A 
ATOM     16  C   UNL     1      82.419  54.451  40.586  0.00  0.00    +0.163 A 
ATOM     17  C   UNL     1      83.140  53.598  41.427  0.00  0.00    -0.006 A 
BRANCH  14  18
ATOM     18  O   UNL     1      85.182  56.055  38.708  0.00  0.00    -0.503 OA
ATOM     19  H   UNL     1      84.754  56.353  37.929  0.00  0.00    +0.000 HD
ENDBRANCH  14  18
BRANCH  16  20
ATOM     20  O   UNL     1      81.028  54.472  40.679  0.00  0.00    -0.503 OA
ATOM     21  H   UNL     1      80.592  55.230  41.015  0.00  0.00    +0.000 HD
ENDBRANCH  16  20
BRANCH  15  22
ATOM     22  O   UNL     1      82.370  56.122  38.835  0.00  0.00    -0.501 OA
ATOM     23  H   UNL     1      82.186  55.867  37.952  0.00  0.00    +0.000 HD
ENDBRANCH  15  22
ENDBRANCH   8  12
BRANCH   1  24
ATOM     24  O   UNL     1      88.616  47.654  41.683  0.00  0.00    -0.507 OA
ATOM     25  H   UNL     1      89.480  47.361  41.894  0.00  0.00    +0.000 HD
ENDBRANCH   1  24
BRANCH   3  26
ATOM     26  O   UNL     1      88.217  50.159  45.741  0.00  0.00    -0.506 OA
ATOM     27  H   UNL     1      87.662  50.595  46.357  0.00  0.00    +0.000 HD
ENDBRANCH   3  26
BRANCH   9  28
ATOM     28  O   UNL     1      84.731  53.870  44.264  0.00  0.00    -0.453 OA
BRANCH  28  29
ATOM     29  C   UNL     1      85.314  55.147  44.532  0.00  0.00    +0.231 C 
ATOM     30  O   UNL     1      85.745  55.194  45.887  0.00  0.00    -0.334 OA
ATOM     31  C   UNL     1      84.673  55.497  46.761  0.00  0.00    +0.088 C 
ATOM     32  C   UNL     1      85.107  55.204  48.197  0.00  0.00    -0.036 C 
ATOM     33  C   UNL     1      84.250  56.982  46.597  0.00  0.00    +0.110 C 
ATOM     34  C   UNL     1      84.457  57.469  45.140  0.00  0.00    +0.115 C 
ATOM     35  C   UNL     1      84.314  56.283  44.165  0.00  0.00    +0.145 C 
BRANCH  35  36
ATOM     36  O   UNL     1      84.455  56.689  42.825  0.00  0.00    -0.383 OA
ATOM     37  H   UNL     1      85.006  56.047  42.349  0.00  0.00    +0.000 HD
ENDBRANCH  35  36
BRANCH  34  38
ATOM     38  O   UNL     1      85.741  58.035  45.026  0.00  0.00    -0.386 OA
ATOM     39  H   UNL     1      85.773  58.867  45.524  0.00  0.00    +0.000 HD
ENDBRANCH  34  38
BRANCH  33  40
ATOM     40  O   UNL     1      82.897  57.112  46.959  0.00  0.00    -0.387 OA
ATOM     41  H   UNL     1      82.699  58.044  47.140  0.00  0.00    +0.000 HD
ENDBRANCH  33  40
ENDBRANCH  28  29
ENDBRANCH   9  28
TORSDOF 11
ENDMDL
MODEL 4
REMARK VINA RESULT:    -9.126      2.941      5.884
REMARK INTER + INTRA:         -13.214
REMARK INTER:                 -12.718
REMARK INTRA:                  -0.495
REMARK UNBOUND:                -0.353
REMARK  Name = 
REMARK  12 active torsions:
REMARK  status: ('A' for Active; 'I' for Inactive)
REMARK    1  A    between atoms: O_1  and  C_2
REMARK    2  A    between atoms: C_4  and  O_5
REMARK    3  A    between atoms: C_10  and  C_25
REMARK    4  A    between atoms: C_11  and  O_14
REMARK    5  A    between atoms: O_14  and  C_15
REMARK    6  A    between atoms: C_17  and  C_18
REMARK    7  A    between atoms: C_19  and  O_24
REMARK    8  A    between atoms: C_20  and  O_23
REMARK    9  A    between atoms: C_21  and  O_22
REMARK   10  A    between atoms: C_27  and  O_28
REMARK   11  A    between atoms: C_29  and  O_33
REMARK   12  A    between atoms: C_30  and  O_32
REMARK                            x       y       z     vdW  Elec       q    Type
REMARK                         _______ _______ _______ _____ _____    ______ ____
ROOT
ATOM      1  C   UNL     1      83.777  56.699  46.914  0.00  0.00    +0.124 A 
ATOM      2  C   UNL     1      83.933  55.928  48.066  0.00  0.00    +0.022 A 
ATOM      3  C   UNL     1      84.646  54.722  48.038  0.00  0.00    +0.135 A 
ATOM      4  C   UNL     1      85.276  54.304  46.827  0.00  0.00    +0.109 A 
ATOM      5  C   UNL     1      85.083  55.089  45.659  0.00  0.00    +0.147 A 
ATOM      6  C   UNL     1      84.341  56.271  45.711  0.00  0.00    +0.023 A 
ATOM      7  O   UNL     1      85.606  54.718  44.496  0.00  0.00    -0.451 OA
ATOM      8  C   UNL     1      86.348  53.628  44.340  0.00  0.00    +0.181 A 
ATOM      9  C   UNL     1      86.665  52.839  45.463  0.00  0.00    +0.214 A 
ATOM     10  C   UNL     1      86.119  53.174  46.707  0.00  0.00    +0.238 A 
ATOM     11  O   UNL     1      86.436  52.475  47.706  0.00  0.00    -0.283 OA
ENDROOT
BRANCH   8  12
ATOM     12  C   UNL     1      86.818  53.295  42.976  0.00  0.00    +0.028 A 
ATOM     13  C   UNL     1      86.044  53.670  41.866  0.00  0.00    -0.006 A 
ATOM     14  C   UNL     1      86.465  53.361  40.565  0.00  0.00    +0.163 A 
ATOM     15  C   UNL     1      87.668  52.663  40.365  0.00  0.00    +0.201 A 
ATOM     16  C   UNL     1      88.437  52.266  41.473  0.00  0.00    +0.163 A 
ATOM     17  C   UNL     1      88.005  52.572  42.767  0.00  0.00    -0.006 A 
BRANCH  14  18
ATOM     18  O   UNL     1      85.692  53.747  39.471  0.00  0.00    -0.503 OA
ATOM     19  H   UNL     1      85.368  53.100  38.875  0.00  0.00    +0.000 HD
ENDBRANCH  14  18
BRANCH  16  20
ATOM     20  O   UNL     1      89.630  51.565  41.308  0.00  0.00    -0.503 OA
ATOM     21  H   UNL     1      90.261  51.854  40.678  0.00  0.00    +0.000 HD
ENDBRANCH  16  20
BRANCH  15  22
ATOM     22  O   UNL     1      88.106  52.352  39.076  0.00  0.00    -0.501 OA
ATOM     23  H   UNL     1      87.553  51.861  38.499  0.00  0.00    +0.000 HD
ENDBRANCH  15  22
ENDBRANCH   8  12
BRANCH   1  24
ATOM     24  O   UNL     1      83.052  57.887  46.975  0.00  0.00    -0.507 OA
ATOM     25  H   UNL     1      82.755  58.213  47.801  0.00  0.00    +0.000 HD
ENDBRANCH   1  24
BRANCH   3  26
ATOM     26  O   UNL     1      84.668  53.986  49.226  0.00  0.00    -0.506 OA
ATOM     27  H   UNL     1      84.774  53.055  49.198  0.00  0.00    +0.000 HD
ENDBRANCH   3  26
BRANCH   9  28
ATOM     28  O   UNL     1      87.528  51.741  45.367  0.00  0.00    -0.453 OA
BRANCH  28  29
ATOM     29  C   UNL     1      87.075  50.394  45.513  0.00  0.00    +0.231 C 
ATOM     30  O   UNL     1      88.176  49.506  45.361  0.00  0.00    -0.334 OA
ATOM     31  C   UNL     1      88.461  49.265  43.995  0.00  0.00    +0.088 C 
ATOM     32  C   UNL     1      89.831  48.596  43.887  0.00  0.00    -0.036 C 
ATOM     33  C   UNL     1      87.355  48.377  43.364  0.00  0.00    +0.110 C 
ATOM     34  C   UNL     1      85.974  48.651  44.014  0.00  0.00    +0.115 C 
ATOM     35  C   UNL     1      85.911  50.107  44.518  0.00  0.00    +0.145 C 
BRANCH  35  36
ATOM     36  O   UNL     1      84.657  50.411  45.081  0.00  0.00    -0.383 OA
ATOM     37  H   UNL     1      84.682  51.303  45.462  0.00  0.00    +0.000 HD
ENDBRANCH  35  36
BRANCH  34  38
ATOM     38  O   UNL     1      85.790  47.760  45.088  0.00  0.00    -0.386 OA
ATOM     39  H   UNL     1      86.442  47.044  45.029  0.00  0.00    +0.000 HD
ENDBRANCH  34  38
BRANCH  33  40
ATOM     40  O   UNL     1      87.296  48.637  41.983  0.00  0.00    -0.387 OA
ATOM     41  H   UNL     1      87.134  47.809  41.505  0.00  0.00    +0.000 HD
ENDBRANCH  33  40
ENDBRANCH  28  29
ENDBRANCH   9  28
TORSDOF 11
ENDMDL
MODEL 5
REMARK VINA RESULT:    -8.828      2.052      6.355
REMARK INTER + INTRA:         -12.793
REMARK INTER:                 -11.869
REMARK INTRA:                  -0.924
REMARK UNBOUND:                -0.353
REMARK  Name = 
REMARK  12 active torsions:
REMARK  status: ('A' for Active; 'I' for Inactive)
REMARK    1  A    between atoms: O_1  and  C_2
REMARK    2  A    between atoms: C_4  and  O_5
REMARK    3  A    between atoms: C_10  and  C_25
REMARK    4  A    between atoms: C_11  and  O_14
REMARK    5  A    between atoms: O_14  and  C_15
REMARK    6  A    between atoms: C_17  and  C_18
REMARK    7  A    between atoms: C_19  and  O_24
REMARK    8  A    between atoms: C_20  and  O_23
REMARK    9  A    between atoms: C_21  and  O_22
REMARK   10  A    between atoms: C_27  and  O_28
REMARK   11  A    between atoms: C_29  and  O_33
REMARK   12  A    between atoms: C_30  and  O_32
REMARK                            x       y       z     vdW  Elec       q    Type
REMARK                         _______ _______ _______ _____ _____    ______ ____
ROOT
ATOM      1  C   UNL     1      84.445  56.116  47.048  0.00  0.00    +0.124 A 
ATOM      2  C   UNL     1      85.447  56.750  46.313  0.00  0.00    +0.022 A 
ATOM      3  C   UNL     1      86.127  56.079  45.288  0.00  0.00    +0.135 A 
ATOM      4  C   UNL     1      85.748  54.746  44.946  0.00  0.00    +0.109 A 
ATOM      5  C   UNL     1      84.743  54.109  45.722  0.00  0.00    +0.147 A 
ATOM      6  C   UNL     1      84.105  54.793  46.759  0.00  0.00    +0.023 A 
ATOM      7  O   UNL     1      84.389  52.853  45.479  0.00  0.00    -0.451 OA
ATOM      8  C   UNL     1      84.912  52.120  44.503  0.00  0.00    +0.181 A 
ATOM      9  C   UNL     1      85.850  52.700  43.627  0.00  0.00    +0.214 A 
ATOM     10  C   UNL     1      86.275  54.013  43.856  0.00  0.00    +0.238 A 
ATOM     11  O   UNL     1      87.092  54.527  43.048  0.00  0.00    -0.283 OA
ENDROOT
BRANCH   8  12
ATOM     12  C   UNL     1      84.473  50.711  44.378  0.00  0.00    +0.028 A 
ATOM     13  C   UNL     1      83.209  50.424  43.841  0.00  0.00    -0.006 A 
ATOM     14  C   UNL     1      82.768  49.099  43.718  0.00  0.00    +0.163 A 
ATOM     15  C   UNL     1      83.595  48.044  44.142  0.00  0.00    +0.201 A 
ATOM     16  C   UNL     1      84.855  48.326  44.699  0.00  0.00    +0.163 A 
ATOM     17  C   UNL     1      85.282  49.651  44.825  0.00  0.00    -0.006 A 
BRANCH  14  18
ATOM     18  O   UNL     1      81.513  48.827  43.176  0.00  0.00    -0.503 OA
ATOM     19  H   UNL     1      81.368  48.927  42.255  0.00  0.00    +0.000 HD
ENDBRANCH  14  18
BRANCH  16  20
ATOM     20  O   UNL     1      85.695  47.302  45.136  0.00  0.00    -0.503 OA
ATOM     21  H   UNL     1      85.424  46.740  45.835  0.00  0.00    +0.000 HD
ENDBRANCH  16  20
BRANCH  15  22
ATOM     22  O   UNL     1      83.176  46.718  44.020  0.00  0.00    -0.501 OA
ATOM     23  H   UNL     1      83.804  46.042  43.852  0.00  0.00    +0.000 HD
ENDBRANCH  15  22
ENDBRANCH   8  12
BRANCH   1  24
ATOM     24  O   UNL     1      83.797  56.809  48.068  0.00  0.00    -0.507 OA
ATOM     25  H   UNL     1      83.772  56.453  48.934  0.00  0.00    +0.000 HD
ENDBRANCH   1  24
BRANCH   3  26
ATOM     26  O   UNL     1      87.171  56.777  44.675  0.00  0.00    -0.506 OA
ATOM     27  H   UNL     1      87.930  56.316  44.374  0.00  0.00    +0.000 HD
ENDBRANCH   3  26
BRANCH   9  28
ATOM     28  O   UNL     1      86.352  52.001  42.523  0.00  0.00    -0.453 OA
BRANCH  28  29
ATOM     29  C   UNL     1      87.575  51.263  42.573  0.00  0.00    +0.231 C 
ATOM     30  O   UNL     1      88.670  52.152  42.386  0.00  0.00    -0.334 OA
ATOM     31  C   UNL     1      88.888  52.423  41.014  0.00  0.00    +0.088 C 
ATOM     32  C   UNL     1      89.831  53.620  40.891  0.00  0.00    -0.036 C 
ATOM     33  C   UNL     1      89.475  51.173  40.305  0.00  0.00    +0.110 C 
ATOM     34  C   UNL     1      88.946  49.863  40.943  0.00  0.00    +0.115 C 
ATOM     35  C   UNL     1      87.543  50.099  41.538  0.00  0.00    +0.145 C 
BRANCH  35  36
ATOM     36  O   UNL     1      87.007  48.922  42.094  0.00  0.00    -0.383 OA
ATOM     37  H   UNL     1      86.458  49.148  42.861  0.00  0.00    +0.000 HD
ENDBRANCH  35  36
BRANCH  34  38
ATOM     38  O   UNL     1      89.837  49.456  41.954  0.00  0.00    -0.386 OA
ATOM     39  H   UNL     1      89.574  48.583  42.285  0.00  0.00    +0.000 HD
ENDBRANCH  34  38
BRANCH  33  40
ATOM     40  O   UNL     1      89.129  51.218  38.943  0.00  0.00    -0.387 OA
ATOM     41  H   UNL     1      89.935  51.249  38.404  0.00  0.00    +0.000 HD
ENDBRANCH  33  40
ENDBRANCH  28  29
ENDBRANCH   9  28
TORSDOF 11
ENDMDL
MODEL 6
REMARK VINA RESULT:    -8.768      3.646      4.875
REMARK INTER + INTRA:         -12.708
REMARK INTER:                 -12.758
REMARK INTRA:                   0.050
REMARK UNBOUND:                -0.353
REMARK  Name = 
REMARK  12 active torsions:
REMARK  status: ('A' for Active; 'I' for Inactive)
REMARK    1  A    between atoms: O_1  and  C_2
REMARK    2  A    between atoms: C_4  and  O_5
REMARK    3  A    between atoms: C_10  and  C_25
REMARK    4  A    between atoms: C_11  and  O_14
REMARK    5  A    between atoms: O_14  and  C_15
REMARK    6  A    between atoms: C_17  and  C_18
REMARK    7  A    between atoms: C_19  and  O_24
REMARK    8  A    between atoms: C_20  and  O_23
REMARK    9  A    between atoms: C_21  and  O_22
REMARK   10  A    between atoms: C_27  and  O_28
REMARK   11  A    between atoms: C_29  and  O_33
REMARK   12  A    between atoms: C_30  and  O_32
REMARK                            x       y       z     vdW  Elec       q    Type
REMARK                         _______ _______ _______ _____ _____    ______ ____
ROOT
ATOM      1  C   UNL     1      84.637  53.886  48.613  0.00  0.00    +0.124 A 
ATOM      2  C   UNL     1      85.552  52.844  48.762  0.00  0.00    +0.022 A 
ATOM      3  C   UNL     1      86.064  52.166  47.648  0.00  0.00    +0.135 A 
ATOM      4  C   UNL     1      85.693  52.587  46.336  0.00  0.00    +0.109 A 
ATOM      5  C   UNL     1      84.741  53.633  46.205  0.00  0.00    +0.147 A 
ATOM      6  C   UNL     1      84.224  54.269  47.336  0.00  0.00    +0.023 A 
ATOM      7  O   UNL     1      84.324  54.029  45.008  0.00  0.00    -0.451 OA
ATOM      8  C   UNL     1      84.769  53.510  43.869  0.00  0.00    +0.181 A 
ATOM      9  C   UNL     1      85.781  52.530  43.901  0.00  0.00    +0.214 A 
ATOM     10  C   UNL     1      86.236  52.062  45.139  0.00  0.00    +0.238 A 
ATOM     11  O   UNL     1      87.161  51.207  45.151  0.00  0.00    -0.283 OA
ENDROOT
BRANCH   8  12
ATOM     12  C   UNL     1      84.175  53.999  42.603  0.00  0.00    +0.028 A 
ATOM     13  C   UNL     1      82.793  53.876  42.394  0.00  0.00    -0.006 A 
ATOM     14  C   UNL     1      82.208  54.326  41.203  0.00  0.00    +0.163 A 
ATOM     15  C   UNL     1      83.011  54.899  40.201  0.00  0.00    +0.201 A 
ATOM     16  C   UNL     1      84.399  55.006  40.396  0.00  0.00    +0.163 A 
ATOM     17  C   UNL     1      84.974  54.548  41.585  0.00  0.00    -0.006 A 
BRANCH  14  18
ATOM     18  O   UNL     1      80.833  54.206  41.010  0.00  0.00    -0.503 OA
ATOM     19  H   UNL     1      80.393  54.771  40.405  0.00  0.00    +0.000 HD
ENDBRANCH  14  18
BRANCH  16  20
ATOM     20  O   UNL     1      85.223  55.563  39.419  0.00  0.00    -0.503 OA
ATOM     21  H   UNL     1      84.982  55.506  38.515  0.00  0.00    +0.000 HD
ENDBRANCH  16  20
BRANCH  15  22
ATOM     22  O   UNL     1      82.445  55.359  39.011  0.00  0.00    -0.501 OA
ATOM     23  H   UNL     1      81.548  55.167  38.813  0.00  0.00    +0.000 HD
ENDBRANCH  15  22
ENDBRANCH   8  12
BRANCH   1  24
ATOM     24  O   UNL     1      84.139  54.531  49.743  0.00  0.00    -0.507 OA
ATOM     25  H   UNL     1      83.271  54.346  50.044  0.00  0.00    +0.000 HD
ENDBRANCH   1  24
BRANCH   3  26
ATOM     26  O   UNL     1      86.906  51.082  47.913  0.00  0.00    -0.506 OA
ATOM     27  H   UNL     1      87.836  51.187  47.863  0.00  0.00    +0.000 HD
ENDBRANCH   3  26
BRANCH   9  28
ATOM     28  O   UNL     1      86.354  52.030  42.726  0.00  0.00    -0.453 OA
BRANCH  28  29
ATOM     29  C   UNL     1      87.605  51.340  42.716  0.00  0.00    +0.231 C 
ATOM     30  O   UNL     1      88.652  52.265  42.446  0.00  0.00    -0.334 OA
ATOM     31  C   UNL     1      88.776  52.514  41.058  0.00  0.00    +0.088 C 
ATOM     32  C   UNL     1      89.663  53.742  40.854  0.00  0.00    -0.036 C 
ATOM     33  C   UNL     1      89.368  51.271  40.339  0.00  0.00    +0.110 C 
ATOM     34  C   UNL     1      88.930  49.957  41.035  0.00  0.00    +0.115 C 
ATOM     35  C   UNL     1      87.557  50.153  41.709  0.00  0.00    +0.145 C 
BRANCH  35  36
ATOM     36  O   UNL     1      87.101  48.969  42.320  0.00  0.00    -0.383 OA
ATOM     37  H   UNL     1      87.261  48.218  41.727  0.00  0.00    +0.000 HD
ENDBRANCH  35  36
BRANCH  34  38
ATOM     38  O   UNL     1      89.894  49.606  41.997  0.00  0.00    -0.386 OA
ATOM     39  H   UNL     1      89.470  49.521  42.866  0.00  0.00    +0.000 HD
ENDBRANCH  34  38
BRANCH  33  40
ATOM     40  O   UNL     1      88.939  51.273  39.001  0.00  0.00    -0.387 OA
ATOM     41  H   UNL     1      88.086  51.731  38.935  0.00  0.00    +0.000 HD
ENDBRANCH  33  40
ENDBRANCH  28  29
ENDBRANCH   9  28
TORSDOF 11
ENDMDL
MODEL 7
REMARK VINA RESULT:    -8.530      1.903      7.425
REMARK INTER + INTRA:         -12.373
REMARK INTER:                 -11.232
REMARK INTRA:                  -1.141
REMARK UNBOUND:                -0.353
REMARK  Name = 
REMARK  12 active torsions:
REMARK  status: ('A' for Active; 'I' for Inactive)
REMARK    1  A    between atoms: O_1  and  C_2
REMARK    2  A    between atoms: C_4  and  O_5
REMARK    3  A    between atoms: C_10  and  C_25
REMARK    4  A    between atoms: C_11  and  O_14
REMARK    5  A    between atoms: O_14  and  C_15
REMARK    6  A    between atoms: C_17  and  C_18
REMARK    7  A    between atoms: C_19  and  O_24
REMARK    8  A    between atoms: C_20  and  O_23
REMARK    9  A    between atoms: C_21  and  O_22
REMARK   10  A    between atoms: C_27  and  O_28
REMARK   11  A    between atoms: C_29  and  O_33
REMARK   12  A    between atoms: C_30  and  O_32
REMARK                            x       y       z     vdW  Elec       q    Type
REMARK                         _______ _______ _______ _____ _____    ______ ____
ROOT
ATOM      1  C   UNL     1      84.378  55.760  39.123  0.00  0.00    +0.124 A 
ATOM      2  C   UNL     1      83.000  55.680  39.322  0.00  0.00    +0.022 A 
ATOM      3  C   UNL     1      82.444  54.696  40.150  0.00  0.00    +0.135 A 
ATOM      4  C   UNL     1      83.304  53.798  40.851  0.00  0.00    +0.109 A 
ATOM      5  C   UNL     1      84.702  53.878  40.615  0.00  0.00    +0.147 A 
ATOM      6  C   UNL     1      85.224  54.850  39.759  0.00  0.00    +0.023 A 
ATOM      7  O   UNL     1      85.542  53.033  41.202  0.00  0.00    -0.451 OA
ATOM      8  C   UNL     1      85.155  52.089  42.052  0.00  0.00    +0.181 A 
ATOM      9  C   UNL     1      83.797  51.995  42.414  0.00  0.00    +0.214 A 
ATOM     10  C   UNL     1      82.869  52.846  41.804  0.00  0.00    +0.238 A 
ATOM     11  O   UNL     1      81.664  52.770  42.160  0.00  0.00    -0.283 OA
ENDROOT
BRANCH   8  12
ATOM     12  C   UNL     1      86.186  51.172  42.590  0.00  0.00    +0.028 A 
ATOM     13  C   UNL     1      86.536  51.242  43.947  0.00  0.00    -0.006 A 
ATOM     14  C   UNL     1      87.513  50.389  44.478  0.00  0.00    +0.163 A 
ATOM     15  C   UNL     1      88.156  49.456  43.646  0.00  0.00    +0.201 A 
ATOM     16  C   UNL     1      87.825  49.395  42.281  0.00  0.00    +0.163 A 
ATOM     17  C   UNL     1      86.855  50.256  41.759  0.00  0.00    -0.006 A 
BRANCH  14  18
ATOM     18  O   UNL     1      87.847  50.463  45.830  0.00  0.00    -0.503 OA
ATOM     19  H   UNL     1      87.923  51.298  46.249  0.00  0.00    +0.000 HD
ENDBRANCH  14  18
BRANCH  16  20
ATOM     20  O   UNL     1      88.450  48.487  41.428  0.00  0.00    -0.503 OA
ATOM     21  H   UNL     1      88.423  47.570  41.618  0.00  0.00    +0.000 HD
ENDBRANCH  16  20
BRANCH  15  22
ATOM     22  O   UNL     1      89.127  48.594  44.159  0.00  0.00    -0.501 OA
ATOM     23  H   UNL     1      89.852  48.939  44.642  0.00  0.00    +0.000 HD
ENDBRANCH  15  22
ENDBRANCH   8  12
BRANCH   1  24
ATOM     24  O   UNL     1      84.896  56.744  38.283  0.00  0.00    -0.507 OA
ATOM     25  H   UNL     1      84.331  57.200  37.691  0.00  0.00    +0.000 HD
ENDBRANCH   1  24
BRANCH   3  26
ATOM     26  O   UNL     1      81.048  54.651  40.212  0.00  0.00    -0.506 OA
ATOM     27  H   UNL     1      80.550  54.492  39.434  0.00  0.00    +0.000 HD
ENDBRANCH   3  26
BRANCH   9  28
ATOM     28  O   UNL     1      83.358  51.085  43.383  0.00  0.00    -0.453 OA
BRANCH  28  29
ATOM     29  C   UNL     1      82.986  49.743  43.062  0.00  0.00    +0.231 C 
ATOM     30  O   UNL     1      81.653  49.728  42.566  0.00  0.00    -0.334 OA
ATOM     31  C   UNL     1      80.709  49.739  43.621  0.00  0.00    +0.088 C 
ATOM     32  C   UNL     1      79.330  50.062  43.046  0.00  0.00    -0.036 C 
ATOM     33  C   UNL     1      80.703  48.370  44.353  0.00  0.00    +0.110 C 
ATOM     34  C   UNL     1      82.112  47.721  44.343  0.00  0.00    +0.115 C 
ATOM     35  C   UNL     1      83.195  48.818  44.298  0.00  0.00    +0.145 C 
BRANCH  35  36
ATOM     36  O   UNL     1      84.492  48.272  44.328  0.00  0.00    -0.383 OA
ATOM     37  H   UNL     1      84.654  47.778  43.509  0.00  0.00    +0.000 HD
ENDBRANCH  35  36
BRANCH  34  38
ATOM     38  O   UNL     1      82.221  46.887  43.215  0.00  0.00    -0.386 OA
ATOM     39  H   UNL     1      81.435  46.323  43.151  0.00  0.00    +0.000 HD
ENDBRANCH  34  38
BRANCH  33  40
ATOM     40  O   UNL     1      80.273  48.564  45.678  0.00  0.00    -0.387 OA
ATOM     41  H   UNL     1      79.591  49.254  45.699  0.00  0.00    +0.000 HD
ENDBRANCH  33  40
ENDBRANCH  28  29
ENDBRANCH   9  28
TORSDOF 11
ENDMDL
MODEL 8
REMARK VINA RESULT:    -8.443      3.232      4.215
REMARK INTER + INTRA:         -12.251
REMARK INTER:                 -11.841
REMARK INTRA:                  -0.410
REMARK UNBOUND:                -0.353
REMARK  Name = 
REMARK  12 active torsions:
REMARK  status: ('A' for Active; 'I' for Inactive)
REMARK    1  A    between atoms: O_1  and  C_2
REMARK    2  A    between atoms: C_4  and  O_5
REMARK    3  A    between atoms: C_10  and  C_25
REMARK    4  A    between atoms: C_11  and  O_14
REMARK    5  A    between atoms: O_14  and  C_15
REMARK    6  A    between atoms: C_17  and  C_18
REMARK    7  A    between atoms: C_19  and  O_24
REMARK    8  A    between atoms: C_20  and  O_23
REMARK    9  A    between atoms: C_21  and  O_22
REMARK   10  A    between atoms: C_27  and  O_28
REMARK   11  A    between atoms: C_29  and  O_33
REMARK   12  A    between atoms: C_30  and  O_32
REMARK                            x       y       z     vdW  Elec       q    Type
REMARK                         _______ _______ _______ _____ _____    ______ ____
ROOT
ATOM      1  C   UNL     1      85.702  53.110  48.373  0.00  0.00    +0.124 A 
ATOM      2  C   UNL     1      86.351  51.876  48.364  0.00  0.00    +0.022 A 
ATOM      3  C   UNL     1      86.458  51.123  47.187  0.00  0.00    +0.135 A 
ATOM      4  C   UNL     1      85.950  51.653  45.963  0.00  0.00    +0.109 A 
ATOM      5  C   UNL     1      85.270  52.900  45.998  0.00  0.00    +0.147 A 
ATOM      6  C   UNL     1      85.152  53.613  47.193  0.00  0.00    +0.023 A 
ATOM      7  O   UNL     1      84.735  53.415  44.897  0.00  0.00    -0.451 OA
ATOM      8  C   UNL     1      84.811  52.834  43.705  0.00  0.00    +0.181 A 
ATOM      9  C   UNL     1      85.544  51.640  43.561  0.00  0.00    +0.214 A 
ATOM     10  C   UNL     1      86.107  51.045  44.695  0.00  0.00    +0.238 A 
ATOM     11  O   UNL     1      86.783  49.993  44.546  0.00  0.00    -0.283 OA
ENDROOT
BRANCH   8  12
ATOM     12  C   UNL     1      84.116  53.482  42.569  0.00  0.00    +0.028 A 
ATOM     13  C   UNL     1      84.848  54.274  41.670  0.00  0.00    -0.006 A 
ATOM     14  C   UNL     1      84.213  54.903  40.591  0.00  0.00    +0.163 A 
ATOM     15  C   UNL     1      82.828  54.747  40.406  0.00  0.00    +0.201 A 
ATOM     16  C   UNL     1      82.086  53.972  41.314  0.00  0.00    +0.163 A 
ATOM     17  C   UNL     1      82.727  53.356  42.392  0.00  0.00    -0.006 A 
BRANCH  14  18
ATOM     18  O   UNL     1      84.952  55.680  39.700  0.00  0.00    -0.503 OA
ATOM     19  H   UNL     1      84.699  55.729  38.799  0.00  0.00    +0.000 HD
ENDBRANCH  14  18
BRANCH  16  20
ATOM     20  O   UNL     1      80.710  53.805  41.163  0.00  0.00    -0.503 OA
ATOM     21  H   UNL     1      80.372  53.015  40.790  0.00  0.00    +0.000 HD
ENDBRANCH  16  20
BRANCH  15  22
ATOM     22  O   UNL     1      82.179  55.360  39.333  0.00  0.00    -0.501 OA
ATOM     23  H   UNL     1      82.464  55.192  38.455  0.00  0.00    +0.000 HD
ENDBRANCH  15  22
ENDBRANCH   8  12
BRANCH   1  24
ATOM     24  O   UNL     1      85.604  53.827  49.564  0.00  0.00    -0.507 OA
ATOM     25  H   UNL     1      85.168  54.656  49.577  0.00  0.00    +0.000 HD
ENDBRANCH   1  24
BRANCH   3  26
ATOM     26  O   UNL     1      87.050  49.862  47.307  0.00  0.00    -0.506 OA
ATOM     27  H   UNL     1      87.878  49.772  47.738  0.00  0.00    +0.000 HD
ENDBRANCH   3  26
BRANCH   9  28
ATOM     28  O   UNL     1      85.740  51.047  42.308  0.00  0.00    -0.453 OA
BRANCH  28  29
ATOM     29  C   UNL     1      86.904  51.292  41.516  0.00  0.00    +0.231 C 
ATOM     30  O   UNL     1      87.349  50.070  40.939  0.00  0.00    -0.334 OA
ATOM     31  C   UNL     1      88.127  49.320  41.854  0.00  0.00    +0.088 C 
ATOM     32  C   UNL     1      88.287  47.898  41.315  0.00  0.00    -0.036 C 
ATOM     33  C   UNL     1      89.508  49.996  42.066  0.00  0.00    +0.110 C 
ATOM     34  C   UNL     1      89.404  51.539  41.947  0.00  0.00    +0.115 C 
ATOM     35  C   UNL     1      87.995  52.003  42.370  0.00  0.00    +0.145 C 
BRANCH  35  36
ATOM     36  O   UNL     1      87.869  53.404  42.315  0.00  0.00    -0.383 OA
ATOM     37  H   UNL     1      88.166  53.721  41.448  0.00  0.00    +0.000 HD
ENDBRANCH  35  36
BRANCH  34  38
ATOM     38  O   UNL     1      89.655  51.911  40.614  0.00  0.00    -0.386 OA
ATOM     39  H   UNL     1      90.586  52.166  40.518  0.00  0.00    +0.000 HD
ENDBRANCH  34  38
BRANCH  33  40
ATOM     40  O   UNL     1      89.996  49.644  43.337  0.00  0.00    -0.387 OA
ATOM     41  H   UNL     1      89.350  49.901  44.014  0.00  0.00    +0.000 HD
ENDBRANCH  33  40
ENDBRANCH  28  29
ENDBRANCH   9  28
TORSDOF 11
ENDMDL
MODEL 9
REMARK VINA RESULT:    -8.381      3.482      6.376
REMARK INTER + INTRA:         -12.164
REMARK INTER:                 -11.811
REMARK INTRA:                  -0.353
REMARK UNBOUND:                -0.353
REMARK  Name = 
REMARK  12 active torsions:
REMARK  status: ('A' for Active; 'I' for Inactive)
REMARK    1  A    between atoms: O_1  and  C_2
REMARK    2  A    between atoms: C_4  and  O_5
REMARK    3  A    between atoms: C_10  and  C_25
REMARK    4  A    between atoms: C_11  and  O_14
REMARK    5  A    between atoms: O_14  and  C_15
REMARK    6  A    between atoms: C_17  and  C_18
REMARK    7  A    between atoms: C_19  and  O_24
REMARK    8  A    between atoms: C_20  and  O_23
REMARK    9  A    between atoms: C_21  and  O_22
REMARK   10  A    between atoms: C_27  and  O_28
REMARK   11  A    between atoms: C_29  and  O_33
REMARK   12  A    between atoms: C_30  and  O_32
REMARK                            x       y       z     vdW  Elec       q    Type
REMARK                         _______ _______ _______ _____ _____    ______ ____
ROOT
ATOM      1  C   UNL     1      87.998  50.311  47.629  0.00  0.00    +0.124 A 
ATOM      2  C   UNL     1      87.754  49.389  46.611  0.00  0.00    +0.022 A 
ATOM      3  C   UNL     1      87.040  49.753  45.461  0.00  0.00    +0.135 A 
ATOM      4  C   UNL     1      86.608  51.104  45.299  0.00  0.00    +0.109 A 
ATOM      5  C   UNL     1      86.843  52.021  46.358  0.00  0.00    +0.147 A 
ATOM      6  C   UNL     1      87.530  51.620  47.506  0.00  0.00    +0.023 A 
ATOM      7  O   UNL     1      86.418  53.276  46.279  0.00  0.00    -0.451 OA
ATOM      8  C   UNL     1      85.778  53.768  45.224  0.00  0.00    +0.181 A 
ATOM      9  C   UNL     1      85.581  52.954  44.091  0.00  0.00    +0.214 A 
ATOM     10  C   UNL     1      85.990  51.617  44.133  0.00  0.00    +0.238 A 
ATOM     11  O   UNL     1      85.833  50.911  43.102  0.00  0.00    -0.283 OA
ENDROOT
BRANCH   8  12
ATOM     12  C   UNL     1      85.301  55.169  45.289  0.00  0.00    +0.028 A 
ATOM     13  C   UNL     1      85.834  56.123  44.409  0.00  0.00    -0.006 A 
ATOM     14  C   UNL     1      85.404  57.456  44.455  0.00  0.00    +0.163 A 
ATOM     15  C   UNL     1      84.433  57.847  45.395  0.00  0.00    +0.201 A 
ATOM     16  C   UNL     1      83.911  56.900  46.292  0.00  0.00    +0.163 A 
ATOM     17  C   UNL     1      84.352  55.574  46.244  0.00  0.00    -0.006 A 
BRANCH  14  18
ATOM     18  O   UNL     1      85.935  58.394  43.570  0.00  0.00    -0.503 OA
ATOM     19  H   UNL     1      86.810  58.706  43.689  0.00  0.00    +0.000 HD
ENDBRANCH  14  18
BRANCH  16  20
ATOM     20  O   UNL     1      82.954  57.257  47.241  0.00  0.00    -0.503 OA
ATOM     21  H   UNL     1      82.872  58.151  47.510  0.00  0.00    +0.000 HD
ENDBRANCH  16  20
BRANCH  15  22
ATOM     22  O   UNL     1      83.988  59.168  45.450  0.00  0.00    -0.501 OA
ATOM     23  H   UNL     1      84.238  59.776  44.782  0.00  0.00    +0.000 HD
ENDBRANCH  15  22
ENDBRANCH   8  12
BRANCH   1  24
ATOM     24  O   UNL     1      88.700  49.912  48.764  0.00  0.00    -0.507 OA
ATOM     25  H   UNL     1      88.584  49.048  49.108  0.00  0.00    +0.000 HD
ENDBRANCH   1  24
BRANCH   3  26
ATOM     26  O   UNL     1      86.777  48.732  44.544  0.00  0.00    -0.506 OA
ATOM     27  H   UNL     1      86.105  48.103  44.722  0.00  0.00    +0.000 HD
ENDBRANCH   3  26
BRANCH   9  28
ATOM     28  O   UNL     1      85.006  53.457  42.918  0.00  0.00    -0.453 OA
BRANCH  28  29
ATOM     29  C   UNL     1      84.043  52.722  42.159  0.00  0.00    +0.231 C 
ATOM     30  O   UNL     1      83.821  53.379  40.916  0.00  0.00    -0.334 OA
ATOM     31  C   UNL     1      82.902  54.446  41.053  0.00  0.00    +0.088 C 
ATOM     32  C   UNL     1      82.959  55.312  39.794  0.00  0.00    -0.036 C 
ATOM     33  C   UNL     1      81.469  53.896  41.287  0.00  0.00    +0.110 C 
ATOM     34  C   UNL     1      81.501  52.561  42.076  0.00  0.00    +0.115 C 
ATOM     35  C   UNL     1      82.742  52.522  42.991  0.00  0.00    +0.145 C 
BRANCH  35  36
ATOM     36  O   UNL     1      82.789  51.342  43.756  0.00  0.00    -0.383 OA
ATOM     37  H   UNL     1      83.072  50.603  43.195  0.00  0.00    +0.000 HD
ENDBRANCH  35  36
BRANCH  34  38
ATOM     38  O   UNL     1      81.542  51.492  41.161  0.00  0.00    -0.386 OA
ATOM     39  H   UNL     1      80.887  50.823  41.415  0.00  0.00    +0.000 HD
ENDBRANCH  34  38
BRANCH  33  40
ATOM     40  O   UNL     1      80.724  54.854  41.996  0.00  0.00    -0.387 OA
ATOM     41  H   UNL     1      80.930  55.740  41.657  0.00  0.00    +0.000 HD
ENDBRANCH  33  40
ENDBRANCH  28  29
ENDBRANCH   9  28
TORSDOF 11
ENDMDL
