MODEL 1
REMARK VINA RESULT:    -8.740      0.000      0.000
REMARK INTER + INTRA:         -14.378
REMARK INTER:                 -13.383
REMARK INTRA:                  -0.996
REMARK UNBOUND:                -1.550
REMARK  Name = 
REMARK  12 active torsions:
REMARK  status: ('A' for Active; 'I' for Inactive)
REMARK    1  A    between atoms: O_1  and  C_2
REMARK    2  A    between atoms: C_2  and  C_3
REMARK    3  A    between atoms: C_5  and  O_10
REMARK    4  A    between atoms: C_6  and  O_9
REMARK    5  A    between atoms: C_7  and  O_8
REMARK    6  A    between atoms: O_10  and  C_11
REMARK    7  A    between atoms: C_12  and  C_24
REMARK    8  A    between atoms: C_18  and  O_19
REMARK    9  A    between atoms: C_21  and  O_23
REMARK   10  A    between atoms: C_26  and  O_27
REMARK   11  A    between atoms: C_28  and  O_32
REMARK   12  A    between atoms: C_29  and  O_31
REMARK                            x       y       z     vdW  Elec       q    Type
REMARK                         _______ _______ _______ _____ _____    ______ ____
ROOT
ATOM      1  C   UNL     1      85.606  53.602  43.151  0.00  0.00    +0.214 A 
ATOM      2  C   UNL     1      85.362  52.963  44.382  0.00  0.00    +0.181 A 
ATOM      3  O   UNL     1      84.983  53.682  45.430  0.00  0.00    -0.451 OA
ATOM      4  C   UNL     1      84.801  54.998  45.388  0.00  0.00    +0.147 A 
ATOM      5  C   UNL     1      85.026  55.727  44.190  0.00  0.00    +0.109 A 
ATOM      6  C   UNL     1      85.398  54.980  43.046  0.00  0.00    +0.238 A 
ATOM      7  O   UNL     1      85.537  55.521  41.918  0.00  0.00    -0.283 OA
ATOM      8  C   UNL     1      84.844  57.143  44.211  0.00  0.00    +0.135 A 
ATOM      9  C   UNL     1      84.375  57.761  45.378  0.00  0.00    +0.022 A 
ATOM     10  C   UNL     1      84.143  57.026  46.540  0.00  0.00    +0.124 A 
ATOM     11  C   UNL     1      84.369  55.648  46.545  0.00  0.00    +0.023 A 
ENDROOT
BRANCH   2  12
ATOM     12  C   UNL     1      85.503  51.499  44.556  0.00  0.00    +0.028 A 
ATOM     13  C   UNL     1      86.746  50.917  44.850  0.00  0.00    -0.006 A 
ATOM     14  C   UNL     1      86.870  49.533  45.021  0.00  0.00    +0.163 A 
ATOM     15  C   UNL     1      85.728  48.707  44.877  0.00  0.00    +0.201 A 
ATOM     16  C   UNL     1      84.490  49.289  44.552  0.00  0.00    +0.163 A 
ATOM     17  C   UNL     1      84.385  50.673  44.387  0.00  0.00    -0.006 A 
BRANCH  14  18
ATOM     18  O   UNL     1      88.135  49.029  45.324  0.00  0.00    -0.503 OA
ATOM     19  H   UNL     1      88.801  49.004  44.665  0.00  0.00    +0.000 HD
ENDBRANCH  14  18
BRANCH  16  20
ATOM     20  O   UNL     1      83.345  48.507  44.391  0.00  0.00    -0.503 OA
ATOM     21  H   UNL     1      82.512  48.917  44.264  0.00  0.00    +0.000 HD
ENDBRANCH  16  20
BRANCH  15  22
ATOM     22  O   UNL     1      85.787  47.321  45.046  0.00  0.00    -0.501 OA
ATOM     23  H   UNL     1      86.239  46.791  44.418  0.00  0.00    +0.000 HD
ENDBRANCH  15  22
ENDBRANCH   2  12
BRANCH   8  24
ATOM     24  O   UNL     1      85.131  57.985  43.133  0.00  0.00    -0.506 OA
ATOM     25  H   UNL     1      85.154  58.913  43.257  0.00  0.00    +0.000 HD
ENDBRANCH   8  24
BRANCH  10  26
ATOM     26  O   UNL     1      83.693  57.677  47.686  0.00  0.00    -0.507 OA
ATOM     27  H   UNL     1      82.793  57.927  47.761  0.00  0.00    +0.000 HD
ENDBRANCH  10  26
BRANCH   1  28
ATOM     28  O   UNL     1      86.051  52.890  42.031  0.00  0.00    -0.453 OA
BRANCH  28  31
ATOM     29  C   UNL     1      88.997  53.117  40.432  0.00  0.00    +0.114 C 
ATOM     30  O   UNL     1      88.233  53.515  41.549  0.00  0.00    -0.331 OA
ATOM     31  C   UNL     1      87.397  52.436  41.907  0.00  0.00    +0.231 C 
ATOM     32  C   UNL     1      87.482  51.360  40.836  0.00  0.00    +0.145 C 
ATOM     33  C   UNL     1      88.837  51.613  40.233  0.00  0.00    +0.115 C 
BRANCH  33  34
ATOM     34  O   UNL     1      88.862  51.284  38.869  0.00  0.00    -0.386 OA
ATOM     35  H   UNL     1      88.209  50.588  38.693  0.00  0.00    +0.000 HD
ENDBRANCH  33  34
BRANCH  32  36
ATOM     36  O   UNL     1      87.403  50.080  41.408  0.00  0.00    -0.383 OA
ATOM     37  H   UNL     1      87.855  50.080  42.266  0.00  0.00    +0.000 HD
ENDBRANCH  32  36
BRANCH  29  38
ATOM     38  C   UNL     1      90.460  53.534  40.616  0.00  0.00    +0.073 C 
BRANCH  38  39
ATOM     39  O   UNL     1      90.609  54.908  40.384  0.00  0.00    -0.392 OA
ATOM     40  H   UNL     1      90.485  55.391  41.217  0.00  0.00    +0.000 HD
ENDBRANCH  38  39
ENDBRANCH  29  38
ENDBRANCH  28  31
ENDBRANCH   1  28
TORSDOF 12
ENDMDL
MODEL 2
REMARK VINA RESULT:    -8.653      2.475      6.577
REMARK INTER + INTRA:         -14.250
REMARK INTER:                 -13.798
REMARK INTRA:                  -0.451
REMARK UNBOUND:                -1.550
REMARK  Name = 
REMARK  12 active torsions:
REMARK  status: ('A' for Active; 'I' for Inactive)
REMARK    1  A    between atoms: O_1  and  C_2
REMARK    2  A    between atoms: C_2  and  C_3
REMARK    3  A    between atoms: C_5  and  O_10
REMARK    4  A    between atoms: C_6  and  O_9
REMARK    5  A    between atoms: C_7  and  O_8
REMARK    6  A    between atoms: O_10  and  C_11
REMARK    7  A    between atoms: C_12  and  C_24
REMARK    8  A    between atoms: C_18  and  O_19
REMARK    9  A    between atoms: C_21  and  O_23
REMARK   10  A    between atoms: C_26  and  O_27
REMARK   11  A    between atoms: C_28  and  O_32
REMARK   12  A    between atoms: C_29  and  O_31
REMARK                            x       y       z     vdW  Elec       q    Type
REMARK                         _______ _______ _______ _____ _____    ______ ____
ROOT
ATOM      1  C   UNL     1      86.562  53.684  43.622  0.00  0.00    +0.214 A 
ATOM      2  C   UNL     1      86.211  54.216  44.878  0.00  0.00    +0.181 A 
ATOM      3  O   UNL     1      86.387  53.485  45.972  0.00  0.00    -0.451 OA
ATOM      4  C   UNL     1      86.899  52.259  45.958  0.00  0.00    +0.147 A 
ATOM      5  C   UNL     1      87.279  51.641  44.737  0.00  0.00    +0.109 A 
ATOM      6  C   UNL     1      87.134  52.410  43.558  0.00  0.00    +0.238 A 
ATOM      7  O   UNL     1      87.522  51.986  42.438  0.00  0.00    -0.283 OA
ATOM      8  C   UNL     1      87.796  50.310  44.780  0.00  0.00    +0.135 A 
ATOM      9  C   UNL     1      87.988  49.684  46.018  0.00  0.00    +0.022 A 
ATOM     10  C   UNL     1      87.625  50.315  47.209  0.00  0.00    +0.124 A 
ATOM     11  C   UNL     1      87.070  51.595  47.174  0.00  0.00    +0.023 A 
ENDROOT
BRANCH   2  12
ATOM     12  C   UNL     1      85.655  55.579  45.034  0.00  0.00    +0.028 A 
ATOM     13  C   UNL     1      86.135  56.653  44.268  0.00  0.00    -0.006 A 
ATOM     14  C   UNL     1      85.600  57.938  44.416  0.00  0.00    +0.163 A 
ATOM     15  C   UNL     1      84.571  58.161  45.363  0.00  0.00    +0.201 A 
ATOM     16  C   UNL     1      84.112  57.090  46.150  0.00  0.00    +0.163 A 
ATOM     17  C   UNL     1      84.658  55.813  45.988  0.00  0.00    -0.006 A 
BRANCH  14  18
ATOM     18  O   UNL     1      86.121  58.953  43.612  0.00  0.00    -0.503 OA
ATOM     19  H   UNL     1      86.651  58.739  42.871  0.00  0.00    +0.000 HD
ENDBRANCH  14  18
BRANCH  16  20
ATOM     20  O   UNL     1      83.108  57.272  47.102  0.00  0.00    -0.503 OA
ATOM     21  H   UNL     1      83.255  57.021  47.993  0.00  0.00    +0.000 HD
ENDBRANCH  16  20
BRANCH  15  22
ATOM     22  O   UNL     1      83.990  59.419  45.548  0.00  0.00    -0.501 OA
ATOM     23  H   UNL     1      84.249  60.139  45.007  0.00  0.00    +0.000 HD
ENDBRANCH  15  22
ENDBRANCH   2  12
BRANCH   8  24
ATOM     24  O   UNL     1      88.108  49.555  43.646  0.00  0.00    -0.506 OA
ATOM     25  H   UNL     1      88.822  49.809  43.096  0.00  0.00    +0.000 HD
ENDBRANCH   8  24
BRANCH  10  26
ATOM     26  O   UNL     1      87.816  49.655  48.421  0.00  0.00    -0.507 OA
ATOM     27  H   UNL     1      87.077  49.373  48.923  0.00  0.00    +0.000 HD
ENDBRANCH  10  26
BRANCH   1  28
ATOM     28  O   UNL     1      86.352  54.400  42.439  0.00  0.00    -0.453 OA
BRANCH  28  31
ATOM     29  C   UNL     1      83.906  55.222  40.286  0.00  0.00    +0.114 C 
ATOM     30  O   UNL     1      85.284  54.968  40.458  0.00  0.00    -0.331 OA
ATOM     31  C   UNL     1      85.418  53.972  41.449  0.00  0.00    +0.231 C 
ATOM     32  C   UNL     1      84.064  53.719  42.092  0.00  0.00    +0.145 C 
ATOM     33  C   UNL     1      83.109  54.140  41.007  0.00  0.00    +0.115 C 
BRANCH  33  34
ATOM     34  O   UNL     1      81.923  54.667  41.543  0.00  0.00    -0.386 OA
ATOM     35  H   UNL     1      81.162  54.278  41.085  0.00  0.00    +0.000 HD
ENDBRANCH  33  34
BRANCH  32  36
ATOM     36  O   UNL     1      83.911  52.362  42.416  0.00  0.00    -0.383 OA
ATOM     37  H   UNL     1      84.758  51.904  42.300  0.00  0.00    +0.000 HD
ENDBRANCH  32  36
BRANCH  29  38
ATOM     38  C   UNL     1      83.568  55.305  38.793  0.00  0.00    +0.073 C 
BRANCH  38  39
ATOM     39  O   UNL     1      84.506  56.101  38.123  0.00  0.00    -0.392 OA
ATOM     40  H   UNL     1      84.082  56.528  37.361  0.00  0.00    +0.000 HD
ENDBRANCH  38  39
ENDBRANCH  29  38
ENDBRANCH  28  31
ENDBRANCH   1  28
TORSDOF 12
ENDMDL
MODEL 3
REMARK VINA RESULT:    -8.587      2.477      4.845
REMARK INTER + INTRA:         -14.154
REMARK INTER:                 -13.999
REMARK INTRA:                  -0.155
REMARK UNBOUND:                -1.550
REMARK  Name = 
REMARK  12 active torsions:
REMARK  status: ('A' for Active; 'I' for Inactive)
REMARK    1  A    between atoms: O_1  and  C_2
REMARK    2  A    between atoms: C_2  and  C_3
REMARK    3  A    between atoms: C_5  and  O_10
REMARK    4  A    between atoms: C_6  and  O_9
REMARK    5  A    between atoms: C_7  and  O_8
REMARK    6  A    between atoms: O_10  and  C_11
REMARK    7  A    between atoms: C_12  and  C_24
REMARK    8  A    between atoms: C_18  and  O_19
REMARK    9  A    between atoms: C_21  and  O_23
REMARK   10  A    between atoms: C_26  and  O_27
REMARK   11  A    between atoms: C_28  and  O_32
REMARK   12  A    between atoms: C_29  and  O_31
REMARK                            x       y       z     vdW  Elec       q    Type
REMARK                         _______ _______ _______ _____ _____    ______ ____
ROOT
ATOM      1  C   UNL     1      85.828  52.579  43.463  0.00  0.00    +0.214 A 
ATOM      2  C   UNL     1      84.745  53.475  43.549  0.00  0.00    +0.181 A 
ATOM      3  O   UNL     1      84.289  53.840  44.741  0.00  0.00    -0.451 OA
ATOM      4  C   UNL     1      84.810  53.412  45.886  0.00  0.00    +0.147 A 
ATOM      5  C   UNL     1      85.901  52.504  45.897  0.00  0.00    +0.109 A 
ATOM      6  C   UNL     1      86.432  52.125  44.640  0.00  0.00    +0.238 A 
ATOM      7  O   UNL     1      87.452  51.394  44.544  0.00  0.00    -0.283 OA
ATOM      8  C   UNL     1      86.401  52.056  47.157  0.00  0.00    +0.135 A 
ATOM      9  C   UNL     1      85.861  52.579  48.339  0.00  0.00    +0.022 A 
ATOM     10  C   UNL     1      84.801  53.484  48.309  0.00  0.00    +0.124 A 
ATOM     11  C   UNL     1      84.269  53.888  47.083  0.00  0.00    +0.023 A 
ENDROOT
BRANCH   2  12
ATOM     12  C   UNL     1      84.092  54.045  42.350  0.00  0.00    +0.028 A 
ATOM     13  C   UNL     1      84.822  54.778  41.401  0.00  0.00    -0.006 A 
ATOM     14  C   UNL     1      84.199  55.308  40.265  0.00  0.00    +0.163 A 
ATOM     15  C   UNL     1      82.808  55.117  40.079  0.00  0.00    +0.201 A 
ATOM     16  C   UNL     1      82.072  54.408  41.046  0.00  0.00    +0.163 A 
ATOM     17  C   UNL     1      82.712  53.885  42.173  0.00  0.00    -0.006 A 
BRANCH  14  18
ATOM     18  O   UNL     1      84.993  56.015  39.361  0.00  0.00    -0.503 OA
ATOM     19  H   UNL     1      84.628  56.722  38.868  0.00  0.00    +0.000 HD
ENDBRANCH  14  18
BRANCH  16  20
ATOM     20  O   UNL     1      80.698  54.209  40.903  0.00  0.00    -0.503 OA
ATOM     21  H   UNL     1      80.095  54.809  41.296  0.00  0.00    +0.000 HD
ENDBRANCH  16  20
BRANCH  15  22
ATOM     22  O   UNL     1      82.132  55.613  38.960  0.00  0.00    -0.501 OA
ATOM     23  H   UNL     1      82.473  55.458  38.101  0.00  0.00    +0.000 HD
ENDBRANCH  15  22
ENDBRANCH   2  12
BRANCH   8  24
ATOM     24  O   UNL     1      87.399  51.088  47.304  0.00  0.00    -0.506 OA
ATOM     25  H   UNL     1      87.254  50.215  46.997  0.00  0.00    +0.000 HD
ENDBRANCH   8  24
BRANCH  10  26
ATOM     26  O   UNL     1      84.278  53.970  49.505  0.00  0.00    -0.507 OA
ATOM     27  H   UNL     1      83.385  54.250  49.547  0.00  0.00    +0.000 HD
ENDBRANCH  10  26
BRANCH   1  28
ATOM     28  O   UNL     1      86.313  52.132  42.230  0.00  0.00    -0.453 OA
BRANCH  28  31
ATOM     29  C   UNL     1      89.114  52.922  40.551  0.00  0.00    +0.114 C 
ATOM     30  O   UNL     1      88.365  53.097  41.734  0.00  0.00    -0.331 OA
ATOM     31  C   UNL     1      87.699  51.882  42.005  0.00  0.00    +0.231 C 
ATOM     32  C   UNL     1      87.870  50.942  40.822  0.00  0.00    +0.145 C 
ATOM     33  C   UNL     1      89.145  51.439  40.198  0.00  0.00    +0.115 C 
BRANCH  33  34
ATOM     34  O   UNL     1      89.141  51.257  38.806  0.00  0.00    -0.386 OA
ATOM     35  H   UNL     1      90.048  51.324  38.469  0.00  0.00    +0.000 HD
ENDBRANCH  33  34
BRANCH  32  36
ATOM     36  O   UNL     1      87.991  49.612  41.255  0.00  0.00    -0.383 OA
ATOM     37  H   UNL     1      88.032  49.024  40.486  0.00  0.00    +0.000 HD
ENDBRANCH  32  36
BRANCH  29  38
ATOM     38  C   UNL     1      90.517  53.516  40.723  0.00  0.00    +0.073 C 
BRANCH  38  39
ATOM     39  O   UNL     1      90.507  54.886  40.430  0.00  0.00    -0.392 OA
ATOM     40  H   UNL     1      91.411  55.181  40.236  0.00  0.00    +0.000 HD
ENDBRANCH  38  39
ENDBRANCH  29  38
ENDBRANCH  28  31
ENDBRANCH   1  28
TORSDOF 12
ENDMDL
MODEL 4
REMARK VINA RESULT:    -8.356      1.568      6.195
REMARK INTER + INTRA:         -13.815
REMARK INTER:                 -13.075
REMARK INTRA:                  -0.739
REMARK UNBOUND:                -1.550
REMARK  Name = 
REMARK  12 active torsions:
REMARK  status: ('A' for Active; 'I' for Inactive)
REMARK    1  A    between atoms: O_1  and  C_2
REMARK    2  A    between atoms: C_2  and  C_3
REMARK    3  A    between atoms: C_5  and  O_10
REMARK    4  A    between atoms: C_6  and  O_9
REMARK    5  A    between atoms: C_7  and  O_8
REMARK    6  A    between atoms: O_10  and  C_11
REMARK    7  A    between atoms: C_12  and  C_24
REMARK    8  A    between atoms: C_18  and  O_19
REMARK    9  A    between atoms: C_21  and  O_23
REMARK   10  A    between atoms: C_26  and  O_27
REMARK   11  A    between atoms: C_28  and  O_32
REMARK   12  A    between atoms: C_29  and  O_31
REMARK                            x       y       z     vdW  Elec       q    Type
REMARK                         _______ _______ _______ _____ _____    ______ ____
ROOT
ATOM      1  C   UNL     1      86.340  50.945  43.603  0.00  0.00    +0.214 A 
ATOM      2  C   UNL     1      85.115  51.634  43.532  0.00  0.00    +0.181 A 
ATOM      3  O   UNL     1      83.976  50.952  43.565  0.00  0.00    -0.451 OA
ATOM      4  C   UNL     1      83.918  49.630  43.676  0.00  0.00    +0.147 A 
ATOM      5  C   UNL     1      85.104  48.851  43.751  0.00  0.00    +0.109 A 
ATOM      6  C   UNL     1      86.333  49.555  43.753  0.00  0.00    +0.238 A 
ATOM      7  O   UNL     1      87.434  48.964  43.902  0.00  0.00    -0.283 OA
ATOM      8  C   UNL     1      84.981  47.432  43.840  0.00  0.00    +0.135 A 
ATOM      9  C   UNL     1      83.709  46.853  43.931  0.00  0.00    +0.022 A 
ATOM     10  C   UNL     1      82.556  47.636  43.874  0.00  0.00    +0.124 A 
ATOM     11  C   UNL     1      82.663  49.020  43.734  0.00  0.00    +0.023 A 
ENDROOT
BRANCH   2  12
ATOM     12  C   UNL     1      85.040  53.109  43.431  0.00  0.00    +0.028 A 
ATOM     13  C   UNL     1      85.002  53.916  44.579  0.00  0.00    -0.006 A 
ATOM     14  C   UNL     1      84.938  55.311  44.476  0.00  0.00    +0.163 A 
ATOM     15  C   UNL     1      84.895  55.916  43.197  0.00  0.00    +0.201 A 
ATOM     16  C   UNL     1      84.904  55.104  42.048  0.00  0.00    +0.163 A 
ATOM     17  C   UNL     1      84.968  53.713  42.170  0.00  0.00    -0.006 A 
BRANCH  14  18
ATOM     18  O   UNL     1      84.915  56.047  45.662  0.00  0.00    -0.503 OA
ATOM     19  H   UNL     1      85.679  56.094  46.200  0.00  0.00    +0.000 HD
ENDBRANCH  14  18
BRANCH  16  20
ATOM     20  O   UNL     1      84.851  55.662  40.770  0.00  0.00    -0.503 OA
ATOM     21  H   UNL     1      85.635  55.753  40.265  0.00  0.00    +0.000 HD
ENDBRANCH  16  20
BRANCH  15  22
ATOM     22  O   UNL     1      84.842  57.302  43.030  0.00  0.00    -0.501 OA
ATOM     23  H   UNL     1      84.614  57.852  43.754  0.00  0.00    +0.000 HD
ENDBRANCH  15  22
ENDBRANCH   2  12
BRANCH   8  24
ATOM     24  O   UNL     1      86.065  46.549  43.815  0.00  0.00    -0.506 OA
ATOM     25  H   UNL     1      86.679  46.541  44.523  0.00  0.00    +0.000 HD
ENDBRANCH   8  24
BRANCH  10  26
ATOM     26  O   UNL     1      81.306  47.024  43.952  0.00  0.00    -0.507 OA
ATOM     27  H   UNL     1      81.023  46.636  44.756  0.00  0.00    +0.000 HD
ENDBRANCH  10  26
BRANCH   1  28
ATOM     28  O   UNL     1      87.565  51.617  43.526  0.00  0.00    -0.453 OA
BRANCH  28  31
ATOM     29  C   UNL     1      89.109  53.177  40.982  0.00  0.00    +0.114 C 
ATOM     30  O   UNL     1      89.226  52.670  42.294  0.00  0.00    -0.331 OA
ATOM     31  C   UNL     1      88.414  51.518  42.385  0.00  0.00    +0.231 C 
ATOM     32  C   UNL     1      87.573  51.399  41.124  0.00  0.00    +0.145 C 
ATOM     33  C   UNL     1      88.400  52.144  40.112  0.00  0.00    +0.115 C 
BRANCH  33  34
ATOM     34  O   UNL     1      87.593  52.771  39.150  0.00  0.00    -0.386 OA
ATOM     35  H   UNL     1      86.673  52.778  39.456  0.00  0.00    +0.000 HD
ENDBRANCH  33  34
BRANCH  32  36
ATOM     36  O   UNL     1      87.406  50.052  40.763  0.00  0.00    -0.383 OA
ATOM     37  H   UNL     1      86.991  50.000  39.888  0.00  0.00    +0.000 HD
ENDBRANCH  32  36
BRANCH  29  38
ATOM     38  C   UNL     1      90.491  53.557  40.438  0.00  0.00    +0.073 C 
BRANCH  38  39
ATOM     39  O   UNL     1      90.611  54.949  40.339  0.00  0.00    -0.392 OA
ATOM     40  H   UNL     1      90.866  55.313  41.203  0.00  0.00    +0.000 HD
ENDBRANCH  38  39
ENDBRANCH  29  38
ENDBRANCH  28  31
ENDBRANCH   1  28
TORSDOF 12
ENDMDL
MODEL 5
REMARK VINA RESULT:    -8.215      2.464      4.907
REMARK INTER + INTRA:         -13.607
REMARK INTER:                 -12.929
REMARK INTRA:                  -0.678
REMARK UNBOUND:                -1.550
REMARK  Name = 
REMARK  12 active torsions:
REMARK  status: ('A' for Active; 'I' for Inactive)
REMARK    1  A    between atoms: O_1  and  C_2
REMARK    2  A    between atoms: C_2  and  C_3
REMARK    3  A    between atoms: C_5  and  O_10
REMARK    4  A    between atoms: C_6  and  O_9
REMARK    5  A    between atoms: C_7  and  O_8
REMARK    6  A    between atoms: O_10  and  C_11
REMARK    7  A    between atoms: C_12  and  C_24
REMARK    8  A    between atoms: C_18  and  O_19
REMARK    9  A    between atoms: C_21  and  O_23
REMARK   10  A    between atoms: C_26  and  O_27
REMARK   11  A    between atoms: C_28  and  O_32
REMARK   12  A    between atoms: C_29  and  O_31
REMARK                            x       y       z     vdW  Elec       q    Type
REMARK                         _______ _______ _______ _____ _____    ______ ____
ROOT
ATOM      1  C   UNL     1      85.823  54.350  43.783  0.00  0.00    +0.214 A 
ATOM      2  C   UNL     1      86.647  53.214  43.906  0.00  0.00    +0.181 A 
ATOM      3  O   UNL     1      86.741  52.596  45.077  0.00  0.00    -0.451 OA
ATOM      4  C   UNL     1      86.082  52.983  46.164  0.00  0.00    +0.147 A 
ATOM      5  C   UNL     1      85.231  54.120  46.135  0.00  0.00    +0.109 A 
ATOM      6  C   UNL     1      85.084  54.778  44.890  0.00  0.00    +0.238 A 
ATOM      7  O   UNL     1      84.288  55.741  44.740  0.00  0.00    -0.283 OA
ATOM      8  C   UNL     1      84.571  54.506  47.341  0.00  0.00    +0.135 A 
ATOM      9  C   UNL     1      84.714  53.718  48.489  0.00  0.00    +0.022 A 
ATOM     10  C   UNL     1      85.541  52.594  48.494  0.00  0.00    +0.124 A 
ATOM     11  C   UNL     1      86.232  52.238  47.335  0.00  0.00    +0.023 A 
ENDROOT
BRANCH   2  12
ATOM     12  C   UNL     1      87.414  52.665  42.765  0.00  0.00    +0.028 A 
ATOM     13  C   UNL     1      88.391  53.430  42.109  0.00  0.00    -0.006 A 
ATOM     14  C   UNL     1      89.117  52.902  41.035  0.00  0.00    +0.163 A 
ATOM     15  C   UNL     1      88.852  51.583  40.594  0.00  0.00    +0.201 A 
ATOM     16  C   UNL     1      87.852  50.828  41.234  0.00  0.00    +0.163 A 
ATOM     17  C   UNL     1      87.137  51.372  42.305  0.00  0.00    -0.006 A 
BRANCH  14  18
ATOM     18  O   UNL     1      90.080  53.719  40.441  0.00  0.00    -0.503 OA
ATOM     19  H   UNL     1      90.665  54.219  40.974  0.00  0.00    +0.000 HD
ENDBRANCH  14  18
BRANCH  16  20
ATOM     20  O   UNL     1      87.553  49.529  40.821  0.00  0.00    -0.503 OA
ATOM     21  H   UNL     1      87.126  48.937  41.408  0.00  0.00    +0.000 HD
ENDBRANCH  16  20
BRANCH  15  22
ATOM     22  O   UNL     1      89.552  50.997  39.536  0.00  0.00    -0.501 OA
ATOM     23  H   UNL     1      89.583  51.424  38.702  0.00  0.00    +0.000 HD
ENDBRANCH  15  22
ENDBRANCH   2  12
BRANCH   8  24
ATOM     24  O   UNL     1      83.793  55.660  47.471  0.00  0.00    -0.506 OA
ATOM     25  H   UNL     1      84.163  56.499  47.281  0.00  0.00    +0.000 HD
ENDBRANCH   8  24
BRANCH  10  26
ATOM     26  O   UNL     1      85.672  51.843  49.660  0.00  0.00    -0.507 OA
ATOM     27  H   UNL     1      86.521  51.576  49.953  0.00  0.00    +0.000 HD
ENDBRANCH  10  26
BRANCH   1  28
ATOM     28  O   UNL     1      85.728  55.060  42.581  0.00  0.00    -0.453 OA
BRANCH  28  31
ATOM     29  C   UNL     1      83.697  55.528  39.946  0.00  0.00    +0.114 C 
ATOM     30  O   UNL     1      85.028  55.490  40.411  0.00  0.00    -0.331 OA
ATOM     31  C   UNL     1      85.105  54.509  41.423  0.00  0.00    +0.231 C 
ATOM     32  C   UNL     1      83.702  54.035  41.767  0.00  0.00    +0.145 C 
ATOM     33  C   UNL     1      82.945  54.321  40.499  0.00  0.00    +0.115 C 
BRANCH  33  34
ATOM     34  O   UNL     1      81.604  54.646  40.762  0.00  0.00    -0.386 OA
ATOM     35  H   UNL     1      81.543  55.090  41.623  0.00  0.00    +0.000 HD
ENDBRANCH  33  34
BRANCH  32  36
ATOM     36  O   UNL     1      83.699  52.665  42.072  0.00  0.00    -0.383 OA
ATOM     37  H   UNL     1      84.146  52.521  42.920  0.00  0.00    +0.000 HD
ENDBRANCH  32  36
BRANCH  29  38
ATOM     38  C   UNL     1      83.673  55.585  38.415  0.00  0.00    +0.073 C 
BRANCH  38  39
ATOM     39  O   UNL     1      84.693  56.421  37.941  0.00  0.00    -0.392 OA
ATOM     40  H   UNL     1      85.516  56.229  38.420  0.00  0.00    +0.000 HD
ENDBRANCH  38  39
ENDBRANCH  29  38
ENDBRANCH  28  31
ENDBRANCH   1  28
TORSDOF 12
ENDMDL
MODEL 6
REMARK VINA RESULT:    -8.060      1.929      5.342
REMARK INTER + INTRA:         -13.380
REMARK INTER:                 -12.241
REMARK INTRA:                  -1.140
REMARK UNBOUND:                -1.550
REMARK  Name = 
REMARK  12 active torsions:
REMARK  status: ('A' for Active; 'I' for Inactive)
REMARK    1  A    between atoms: O_1  and  C_2
REMARK    2  A    between atoms: C_2  and  C_3
REMARK    3  A    between atoms: C_5  and  O_10
REMARK    4  A    between atoms: C_6  and  O_9
REMARK    5  A    between atoms: C_7  and  O_8
REMARK    6  A    between atoms: O_10  and  C_11
REMARK    7  A    between atoms: C_12  and  C_24
REMARK    8  A    between atoms: C_18  and  O_19
REMARK    9  A    between atoms: C_21  and  O_23
REMARK   10  A    between atoms: C_26  and  O_27
REMARK   11  A    between atoms: C_28  and  O_32
REMARK   12  A    between atoms: C_29  and  O_31
REMARK                            x       y       z     vdW  Elec       q    Type
REMARK                         _______ _______ _______ _____ _____    ______ ____
ROOT
ATOM      1  C   UNL     1      85.746  52.360  44.730  0.00  0.00    +0.214 A 
ATOM      2  C   UNL     1      86.458  53.187  43.841  0.00  0.00    +0.181 A 
ATOM      3  O   UNL     1      86.448  54.503  44.018  0.00  0.00    -0.451 OA
ATOM      4  C   UNL     1      85.803  55.102  45.013  0.00  0.00    +0.147 A 
ATOM      5  C   UNL     1      85.055  54.348  45.956  0.00  0.00    +0.109 A 
ATOM      6  C   UNL     1      85.077  52.940  45.812  0.00  0.00    +0.238 A 
ATOM      7  O   UNL     1      84.517  52.180  46.645  0.00  0.00    -0.283 OA
ATOM      8  C   UNL     1      84.357  55.048  46.987  0.00  0.00    +0.135 A 
ATOM      9  C   UNL     1      84.491  56.438  47.090  0.00  0.00    +0.022 A 
ATOM     10  C   UNL     1      85.245  57.160  46.164  0.00  0.00    +0.124 A 
ATOM     11  C   UNL     1      85.888  56.492  45.121  0.00  0.00    +0.023 A 
ENDROOT
BRANCH   2  12
ATOM     12  C   UNL     1      87.239  52.644  42.707  0.00  0.00    +0.028 A 
ATOM     13  C   UNL     1      88.239  51.679  42.906  0.00  0.00    -0.006 A 
ATOM     14  C   UNL     1      88.968  51.165  41.828  0.00  0.00    +0.163 A 
ATOM     15  C   UNL     1      88.706  51.637  40.519  0.00  0.00    +0.201 A 
ATOM     16  C   UNL     1      87.724  52.625  40.325  0.00  0.00    +0.163 A 
ATOM     17  C   UNL     1      87.005  53.126  41.413  0.00  0.00    -0.006 A 
BRANCH  14  18
ATOM     18  O   UNL     1      89.938  50.199  42.104  0.00  0.00    -0.503 OA
ATOM     19  H   UNL     1      89.681  49.329  42.334  0.00  0.00    +0.000 HD
ENDBRANCH  14  18
BRANCH  16  20
ATOM     20  O   UNL     1      87.445  53.124  39.051  0.00  0.00    -0.503 OA
ATOM     21  H   UNL     1      87.661  54.010  38.837  0.00  0.00    +0.000 HD
ENDBRANCH  16  20
BRANCH  15  22
ATOM     22  O   UNL     1      89.393  51.153  39.402  0.00  0.00    -0.501 OA
ATOM     23  H   UNL     1      90.330  51.131  39.402  0.00  0.00    +0.000 HD
ENDBRANCH  15  22
ENDBRANCH   2  12
BRANCH   8  24
ATOM     24  O   UNL     1      83.506  54.435  47.911  0.00  0.00    -0.506 OA
ATOM     25  H   UNL     1      83.856  53.854  48.557  0.00  0.00    +0.000 HD
ENDBRANCH   8  24
BRANCH  10  26
ATOM     26  O   UNL     1      85.342  58.545  46.289  0.00  0.00    -0.507 OA
ATOM     27  H   UNL     1      84.691  59.019  46.766  0.00  0.00    +0.000 HD
ENDBRANCH  10  26
BRANCH   1  28
ATOM     28  O   UNL     1      85.691  50.973  44.556  0.00  0.00    -0.453 OA
BRANCH  28  31
ATOM     29  C   UNL     1      82.573  50.947  43.305  0.00  0.00    +0.114 C 
ATOM     30  O   UNL     1      83.915  51.339  43.109  0.00  0.00    -0.331 OA
ATOM     31  C   UNL     1      84.741  50.354  43.691  0.00  0.00    +0.231 C 
ATOM     32  C   UNL     1      83.880  49.381  44.480  0.00  0.00    +0.145 C 
ATOM     33  C   UNL     1      82.546  49.503  43.796  0.00  0.00    +0.115 C 
BRANCH  33  34
ATOM     34  O   UNL     1      81.487  49.302  44.697  0.00  0.00    -0.386 OA
ATOM     35  H   UNL     1      80.847  50.026  44.608  0.00  0.00    +0.000 HD
ENDBRANCH  33  34
BRANCH  32  36
ATOM     36  O   UNL     1      84.390  48.076  44.388  0.00  0.00    -0.383 OA
ATOM     37  H   UNL     1      84.623  47.884  43.466  0.00  0.00    +0.000 HD
ENDBRANCH  32  36
BRANCH  29  38
ATOM     38  C   UNL     1      81.772  51.143  42.013  0.00  0.00    +0.073 C 
BRANCH  38  39
ATOM     39  O   UNL     1      80.424  50.821  42.220  0.00  0.00    -0.392 OA
ATOM     40  H   UNL     1      79.869  51.574  41.963  0.00  0.00    +0.000 HD
ENDBRANCH  38  39
ENDBRANCH  29  38
ENDBRANCH  28  31
ENDBRANCH   1  28
TORSDOF 12
ENDMDL
MODEL 7
REMARK VINA RESULT:    -8.058      3.293      5.954
REMARK INTER + INTRA:         -13.377
REMARK INTER:                 -11.826
REMARK INTRA:                  -1.550
REMARK UNBOUND:                -1.550
REMARK  Name = 
REMARK  12 active torsions:
REMARK  status: ('A' for Active; 'I' for Inactive)
REMARK    1  A    between atoms: O_1  and  C_2
REMARK    2  A    between atoms: C_2  and  C_3
REMARK    3  A    between atoms: C_5  and  O_10
REMARK    4  A    between atoms: C_6  and  O_9
REMARK    5  A    between atoms: C_7  and  O_8
REMARK    6  A    between atoms: O_10  and  C_11
REMARK    7  A    between atoms: C_12  and  C_24
REMARK    8  A    between atoms: C_18  and  O_19
REMARK    9  A    between atoms: C_21  and  O_23
REMARK   10  A    between atoms: C_26  and  O_27
REMARK   11  A    between atoms: C_28  and  O_32
REMARK   12  A    between atoms: C_29  and  O_31
REMARK                            x       y       z     vdW  Elec       q    Type
REMARK                         _______ _______ _______ _____ _____    ______ ____
ROOT
ATOM      1  C   UNL     1      83.257  50.593  43.606  0.00  0.00    +0.214 A 
ATOM      2  C   UNL     1      83.882  49.431  44.097  0.00  0.00    +0.181 A 
ATOM      3  O   UNL     1      83.140  48.399  44.478  0.00  0.00    -0.451 OA
ATOM      4  C   UNL     1      81.813  48.387  44.413  0.00  0.00    +0.147 A 
ATOM      5  C   UNL     1      81.097  49.516  43.934  0.00  0.00    +0.109 A 
ATOM      6  C   UNL     1      81.864  50.619  43.487  0.00  0.00    +0.238 A 
ATOM      7  O   UNL     1      81.328  51.632  42.967  0.00  0.00    -0.283 OA
ATOM      8  C   UNL     1      79.670  49.458  43.913  0.00  0.00    +0.135 A 
ATOM      9  C   UNL     1      79.022  48.274  44.286  0.00  0.00    +0.022 A 
ATOM     10  C   UNL     1      79.744  47.168  44.736  0.00  0.00    +0.124 A 
ATOM     11  C   UNL     1      81.136  47.233  44.811  0.00  0.00    +0.023 A 
ENDROOT
BRANCH   2  12
ATOM     12  C   UNL     1      85.353  49.306  44.198  0.00  0.00    +0.028 A 
ATOM     13  C   UNL     1      86.054  49.804  45.307  0.00  0.00    -0.006 A 
ATOM     14  C   UNL     1      87.444  49.676  45.399  0.00  0.00    +0.163 A 
ATOM     15  C   UNL     1      88.158  49.048  44.349  0.00  0.00    +0.201 A 
ATOM     16  C   UNL     1      87.458  48.575  43.223  0.00  0.00    +0.163 A 
ATOM     17  C   UNL     1      86.069  48.712  43.150  0.00  0.00    -0.006 A 
BRANCH  14  18
ATOM     18  O   UNL     1      88.068  50.186  46.538  0.00  0.00    -0.503 OA
ATOM     19  H   UNL     1      87.593  50.739  47.125  0.00  0.00    +0.000 HD
ENDBRANCH  14  18
BRANCH  16  20
ATOM     20  O   UNL     1      88.127  47.962  42.163  0.00  0.00    -0.503 OA
ATOM     21  H   UNL     1      87.773  48.007  41.297  0.00  0.00    +0.000 HD
ENDBRANCH  16  20
BRANCH  15  22
ATOM     22  O   UNL     1      89.545  48.881  44.388  0.00  0.00    -0.501 OA
ATOM     23  H   UNL     1      90.056  49.350  45.018  0.00  0.00    +0.000 HD
ENDBRANCH  15  22
ENDBRANCH   2  12
BRANCH   8  24
ATOM     24  O   UNL     1      78.848  50.534  43.564  0.00  0.00    -0.506 OA
ATOM     25  H   UNL     1      78.039  50.380  43.119  0.00  0.00    +0.000 HD
ENDBRANCH   8  24
BRANCH  10  26
ATOM     26  O   UNL     1      79.064  46.012  45.114  0.00  0.00    -0.507 OA
ATOM     27  H   UNL     1      79.291  45.188  44.730  0.00  0.00    +0.000 HD
ENDBRANCH  10  26
BRANCH   1  28
ATOM     28  O   UNL     1      83.996  51.722  43.236  0.00  0.00    -0.453 OA
BRANCH  28  31
ATOM     29  C   UNL     1      86.350  53.023  41.223  0.00  0.00    +0.114 C 
ATOM     30  O   UNL     1      85.895  51.879  41.912  0.00  0.00    -0.331 OA
ATOM     31  C   UNL     1      84.484  51.907  41.908  0.00  0.00    +0.231 C 
ATOM     32  C   UNL     1      84.011  53.246  41.366  0.00  0.00    +0.145 C 
ATOM     33  C   UNL     1      85.171  53.673  40.508  0.00  0.00    +0.115 C 
BRANCH  33  34
ATOM     34  O   UNL     1      85.307  55.071  40.488  0.00  0.00    -0.386 OA
ATOM     35  H   UNL     1      86.153  55.306  40.077  0.00  0.00    +0.000 HD
ENDBRANCH  33  34
BRANCH  32  36
ATOM     36  O   UNL     1      82.839  53.091  40.609  0.00  0.00    -0.383 OA
ATOM     37  H   UNL     1      83.069  52.839  39.702  0.00  0.00    +0.000 HD
ENDBRANCH  32  36
BRANCH  29  38
ATOM     38  C   UNL     1      87.484  52.646  40.263  0.00  0.00    +0.073 C 
BRANCH  38  39
ATOM     39  O   UNL     1      87.402  53.404  39.088  0.00  0.00    -0.392 OA
ATOM     40  H   UNL     1      88.026  54.146  39.138  0.00  0.00    +0.000 HD
ENDBRANCH  38  39
ENDBRANCH  29  38
ENDBRANCH  28  31
ENDBRANCH   1  28
TORSDOF 12
ENDMDL
MODEL 8
REMARK VINA RESULT:    -8.041      2.183      3.413
REMARK INTER + INTRA:         -13.352
REMARK INTER:                 -12.800
REMARK INTRA:                  -0.552
REMARK UNBOUND:                -1.550
REMARK  Name = 
REMARK  12 active torsions:
REMARK  status: ('A' for Active; 'I' for Inactive)
REMARK    1  A    between atoms: O_1  and  C_2
REMARK    2  A    between atoms: C_2  and  C_3
REMARK    3  A    between atoms: C_5  and  O_10
REMARK    4  A    between atoms: C_6  and  O_9
REMARK    5  A    between atoms: C_7  and  O_8
REMARK    6  A    between atoms: O_10  and  C_11
REMARK    7  A    between atoms: C_12  and  C_24
REMARK    8  A    between atoms: C_18  and  O_19
REMARK    9  A    between atoms: C_21  and  O_23
REMARK   10  A    between atoms: C_26  and  O_27
REMARK   11  A    between atoms: C_28  and  O_32
REMARK   12  A    between atoms: C_29  and  O_31
REMARK                            x       y       z     vdW  Elec       q    Type
REMARK                         _______ _______ _______ _____ _____    ______ ____
ROOT
ATOM      1  C   UNL     1      85.773  54.260  43.382  0.00  0.00    +0.214 A 
ATOM      2  C   UNL     1      85.864  53.174  44.273  0.00  0.00    +0.181 A 
ATOM      3  O   UNL     1      85.459  53.321  45.529  0.00  0.00    -0.451 OA
ATOM      4  C   UNL     1      84.950  54.452  46.006  0.00  0.00    +0.147 A 
ATOM      5  C   UNL     1      84.824  55.600  45.181  0.00  0.00    +0.109 A 
ATOM      6  C   UNL     1      85.215  55.462  43.827  0.00  0.00    +0.238 A 
ATOM      7  O   UNL     1      85.062  56.394  42.995  0.00  0.00    -0.283 OA
ATOM      8  C   UNL     1      84.298  56.797  45.755  0.00  0.00    +0.135 A 
ATOM      9  C   UNL     1      83.849  56.786  47.082  0.00  0.00    +0.022 A 
ATOM     10  C   UNL     1      83.965  55.642  47.872  0.00  0.00    +0.124 A 
ATOM     11  C   UNL     1      84.527  54.483  47.336  0.00  0.00    +0.023 A 
ENDROOT
BRANCH   2  12
ATOM     12  C   UNL     1      86.388  51.852  43.861  0.00  0.00    +0.028 A 
ATOM     13  C   UNL     1      87.623  51.730  43.206  0.00  0.00    -0.006 A 
ATOM     14  C   UNL     1      88.116  50.477  42.826  0.00  0.00    +0.163 A 
ATOM     15  C   UNL     1      87.349  49.316  43.090  0.00  0.00    +0.201 A 
ATOM     16  C   UNL     1      86.097  49.442  43.720  0.00  0.00    +0.163 A 
ATOM     17  C   UNL     1      85.622  50.703  44.093  0.00  0.00    -0.006 A 
BRANCH  14  18
ATOM     18  O   UNL     1      89.357  50.434  42.189  0.00  0.00    -0.503 OA
ATOM     19  H   UNL     1      90.071  50.943  42.519  0.00  0.00    +0.000 HD
ENDBRANCH  14  18
BRANCH  16  20
ATOM     20  O   UNL     1      85.308  48.323  43.987  0.00  0.00    -0.503 OA
ATOM     21  H   UNL     1      85.480  47.798  44.743  0.00  0.00    +0.000 HD
ENDBRANCH  16  20
BRANCH  15  22
ATOM     22  O   UNL     1      87.793  48.036  42.744  0.00  0.00    -0.501 OA
ATOM     23  H   UNL     1      88.037  47.848  41.859  0.00  0.00    +0.000 HD
ENDBRANCH  15  22
ENDBRANCH   2  12
BRANCH   8  24
ATOM     24  O   UNL     1      84.218  58.019  45.082  0.00  0.00    -0.506 OA
ATOM     25  H   UNL     1      84.991  58.407  44.723  0.00  0.00    +0.000 HD
ENDBRANCH   8  24
BRANCH  10  26
ATOM     26  O   UNL     1      83.523  55.673  49.194  0.00  0.00    -0.507 OA
ATOM     27  H   UNL     1      84.060  55.323  49.876  0.00  0.00    +0.000 HD
ENDBRANCH  10  26
BRANCH   1  28
ATOM     28  O   UNL     1      86.229  54.165  42.062  0.00  0.00    -0.453 OA
BRANCH  28  31
ATOM     29  C   UNL     1      83.891  55.338  39.954  0.00  0.00    +0.114 C 
ATOM     30  O   UNL     1      85.259  55.052  40.150  0.00  0.00    -0.331 OA
ATOM     31  C   UNL     1      85.346  53.908  40.972  0.00  0.00    +0.231 C 
ATOM     32  C   UNL     1      83.962  53.563  41.498  0.00  0.00    +0.145 C 
ATOM     33  C   UNL     1      83.061  54.159  40.451  0.00  0.00    +0.115 C 
BRANCH  33  34
ATOM     34  O   UNL     1      81.849  54.600  41.006  0.00  0.00    -0.386 OA
ATOM     35  H   UNL     1      82.000  54.892  41.919  0.00  0.00    +0.000 HD
ENDBRANCH  33  34
BRANCH  32  36
ATOM     36  O   UNL     1      83.796  52.172  41.590  0.00  0.00    -0.383 OA
ATOM     37  H   UNL     1      84.348  51.827  42.309  0.00  0.00    +0.000 HD
ENDBRANCH  32  36
BRANCH  29  38
ATOM     38  C   UNL     1      83.626  55.664  38.479  0.00  0.00    +0.073 C 
BRANCH  38  39
ATOM     39  O   UNL     1      84.680  56.421  37.949  0.00  0.00    -0.392 OA
ATOM     40  H   UNL     1      84.705  57.288  38.384  0.00  0.00    +0.000 HD
ENDBRANCH  38  39
ENDBRANCH  29  38
ENDBRANCH  28  31
ENDBRANCH   1  28
TORSDOF 12
ENDMDL
MODEL 9
REMARK VINA RESULT:    -8.016      2.392      7.434
REMARK INTER + INTRA:         -13.315
REMARK INTER:                 -12.471
REMARK INTRA:                  -0.844
REMARK UNBOUND:                -1.550
REMARK  Name = 
REMARK  12 active torsions:
REMARK  status: ('A' for Active; 'I' for Inactive)
REMARK    1  A    between atoms: O_1  and  C_2
REMARK    2  A    between atoms: C_2  and  C_3
REMARK    3  A    between atoms: C_5  and  O_10
REMARK    4  A    between atoms: C_6  and  O_9
REMARK    5  A    between atoms: C_7  and  O_8
REMARK    6  A    between atoms: O_10  and  C_11
REMARK    7  A    between atoms: C_12  and  C_24
REMARK    8  A    between atoms: C_18  and  O_19
REMARK    9  A    between atoms: C_21  and  O_23
REMARK   10  A    between atoms: C_26  and  O_27
REMARK   11  A    between atoms: C_28  and  O_32
REMARK   12  A    between atoms: C_29  and  O_31
REMARK                            x       y       z     vdW  Elec       q    Type
REMARK                         _______ _______ _______ _____ _____    ______ ____
ROOT
ATOM      1  C   UNL     1      85.464  52.682  43.673  0.00  0.00    +0.214 A 
ATOM      2  C   UNL     1      85.372  52.525  42.277  0.00  0.00    +0.181 A 
ATOM      3  O   UNL     1      86.089  51.586  41.674  0.00  0.00    -0.451 OA
ATOM      4  C   UNL     1      86.900  50.755  42.321  0.00  0.00    +0.147 A 
ATOM      5  C   UNL     1      87.059  50.841  43.729  0.00  0.00    +0.109 A 
ATOM      6  C   UNL     1      86.279  51.812  44.404  0.00  0.00    +0.238 A 
ATOM      7  O   UNL     1      86.283  51.910  45.659  0.00  0.00    -0.283 OA
ATOM      8  C   UNL     1      87.966  49.942  44.368  0.00  0.00    +0.135 A 
ATOM      9  C   UNL     1      88.608  48.956  43.609  0.00  0.00    +0.022 A 
ATOM     10  C   UNL     1      88.426  48.875  42.229  0.00  0.00    +0.124 A 
ATOM     11  C   UNL     1      87.582  49.783  41.587  0.00  0.00    +0.023 A 
ENDROOT
BRANCH   2  12
ATOM     12  C   UNL     1      84.487  53.368  41.442  0.00  0.00    +0.028 A 
ATOM     13  C   UNL     1      83.098  53.394  41.648  0.00  0.00    -0.006 A 
ATOM     14  C   UNL     1      82.268  54.198  40.859  0.00  0.00    +0.163 A 
ATOM     15  C   UNL     1      82.835  54.987  39.828  0.00  0.00    +0.201 A 
ATOM     16  C   UNL     1      84.223  54.937  39.604  0.00  0.00    +0.163 A 
ATOM     17  C   UNL     1      85.036  54.128  40.402  0.00  0.00    -0.006 A 
BRANCH  14  18
ATOM     18  O   UNL     1      80.899  54.180  41.131  0.00  0.00    -0.503 OA
ATOM     19  H   UNL     1      80.401  53.403  40.974  0.00  0.00    +0.000 HD
ENDBRANCH  14  18
BRANCH  16  20
ATOM     20  O   UNL     1      84.817  55.690  38.590  0.00  0.00    -0.503 OA
ATOM     21  H   UNL     1      85.012  55.292  37.764  0.00  0.00    +0.000 HD
ENDBRANCH  16  20
BRANCH  15  22
ATOM     22  O   UNL     1      82.059  55.818  39.015  0.00  0.00    -0.501 OA
ATOM     23  H   UNL     1      81.971  56.727  39.224  0.00  0.00    +0.000 HD
ENDBRANCH  15  22
ENDBRANCH   2  12
BRANCH   8  24
ATOM     24  O   UNL     1      88.290  49.991  45.727  0.00  0.00    -0.506 OA
ATOM     25  H   UNL     1      88.917  49.393  46.081  0.00  0.00    +0.000 HD
ENDBRANCH   8  24
BRANCH  10  26
ATOM     26  O   UNL     1      89.094  47.890  41.504  0.00  0.00    -0.507 OA
ATOM     27  H   UNL     1      89.988  47.690  41.700  0.00  0.00    +0.000 HD
ENDBRANCH  10  26
BRANCH   1  28
ATOM     28  O   UNL     1      84.761  53.687  44.346  0.00  0.00    -0.453 OA
BRANCH  28  31
ATOM     29  C   UNL     1      84.521  56.924  45.213  0.00  0.00    +0.114 C 
ATOM     30  O   UNL     1      84.505  55.585  45.657  0.00  0.00    -0.331 OA
ATOM     31  C   UNL     1      85.406  54.853  44.854  0.00  0.00    +0.231 C 
ATOM     32  C   UNL     1      85.873  55.728  43.702  0.00  0.00    +0.145 C 
ATOM     33  C   UNL     1      85.694  57.115  44.257  0.00  0.00    +0.115 C 
BRANCH  33  34
ATOM     34  O   UNL     1      85.370  58.035  43.247  0.00  0.00    -0.386 OA
ATOM     35  H   UNL     1      84.481  58.389  43.407  0.00  0.00    +0.000 HD
ENDBRANCH  33  34
BRANCH  32  36
ATOM     36  O   UNL     1      87.217  55.467  43.390  0.00  0.00    -0.383 OA
ATOM     37  H   UNL     1      87.528  56.109  42.733  0.00  0.00    +0.000 HD
ENDBRANCH  32  36
BRANCH  29  38
ATOM     38  C   UNL     1      84.579  57.877  46.413  0.00  0.00    +0.073 C 
BRANCH  38  39
ATOM     39  O   UNL     1      83.869  59.053  46.137  0.00  0.00    -0.392 OA
ATOM     40  H   UNL     1      83.914  59.645  46.905  0.00  0.00    +0.000 HD
ENDBRANCH  38  39
ENDBRANCH  29  38
ENDBRANCH  28  31
ENDBRANCH   1  28
TORSDOF 12
ENDMDL
