MODEL 1
REMARK VINA RESULT:    -9.342      0.000      0.000
REMARK INTER + INTRA:         -14.043
REMARK INTER:                 -12.704
REMARK INTRA:                  -1.338
REMARK UNBOUND:                -0.878
REMARK  Name = 
REMARK  12 active torsions:
REMARK  status: ('A' for Active; 'I' for Inactive)
REMARK    1  A    between atoms: O_1  and  C_2
REMARK    2  A    between atoms: C_4  and  O_5
REMARK    3  A    between atoms: C_10  and  C_25
REMARK    4  A    between atoms: C_11  and  O_14
REMARK    5  A    between atoms: O_14  and  C_15
REMARK    6  A    between atoms: C_17  and  C_18
REMARK    7  A    between atoms: C_19  and  O_24
REMARK    8  A    between atoms: C_20  and  O_23
REMARK    9  A    between atoms: C_21  and  O_22
REMARK   10  A    between atoms: C_27  and  O_28
REMARK   11  A    between atoms: C_29  and  O_33
REMARK   12  A    between atoms: C_30  and  O_32
REMARK                            x       y       z     vdW  Elec       q    Type
REMARK                         _______ _______ _______ _____ _____    ______ ____
ROOT
ATOM      1  C   UNL     1      80.520  47.463  44.033  0.00  0.00    +0.124 A 
ATOM      2  C   UNL     1      81.468  46.447  44.154  0.00  0.00    +0.022 A 
ATOM      3  C   UNL     1      82.830  46.699  43.942  0.00  0.00    +0.135 A 
ATOM      4  C   UNL     1      83.264  48.029  43.658  0.00  0.00    +0.109 A 
ATOM      5  C   UNL     1      82.282  49.044  43.514  0.00  0.00    +0.147 A 
ATOM      6  C   UNL     1      80.928  48.756  43.700  0.00  0.00    +0.023 A 
ATOM      7  O   UNL     1      82.628  50.288  43.201  0.00  0.00    -0.451 OA
ATOM      8  C   UNL     1      83.886  50.676  43.027  0.00  0.00    +0.181 A 
ATOM      9  C   UNL     1      84.931  49.756  43.239  0.00  0.00    +0.214 A 
ATOM     10  C   UNL     1      84.618  48.427  43.546  0.00  0.00    +0.238 A 
ATOM     11  O   UNL     1      85.564  47.624  43.761  0.00  0.00    -0.283 OA
ENDROOT
BRANCH   8  12
ATOM     12  C   UNL     1      84.132  52.078  42.618  0.00  0.00    +0.028 A 
ATOM     13  C   UNL     1      84.076  52.423  41.259  0.00  0.00    -0.006 A 
ATOM     14  C   UNL     1      84.310  53.742  40.846  0.00  0.00    +0.163 A 
ATOM     15  C   UNL     1      84.611  54.731  41.799  0.00  0.00    +0.201 A 
ATOM     16  C   UNL     1      84.687  54.388  43.160  0.00  0.00    +0.163 A 
ATOM     17  C   UNL     1      84.460  53.068  43.561  0.00  0.00    -0.006 A 
BRANCH  14  18
ATOM     18  O   UNL     1      84.245  54.074  39.494  0.00  0.00    -0.503 OA
ATOM     19  H   UNL     1      84.625  53.506  38.853  0.00  0.00    +0.000 HD
ENDBRANCH  14  18
BRANCH  16  20
ATOM     20  O   UNL     1      84.991  55.344  44.128  0.00  0.00    -0.503 OA
ATOM     21  H   UNL     1      84.303  55.819  44.551  0.00  0.00    +0.000 HD
ENDBRANCH  16  20
BRANCH  15  22
ATOM     22  O   UNL     1      84.840  56.051  41.407  0.00  0.00    -0.501 OA
ATOM     23  H   UNL     1      84.348  56.748  41.797  0.00  0.00    +0.000 HD
ENDBRANCH  15  22
ENDBRANCH   8  12
BRANCH   1  24
ATOM     24  O   UNL     1      79.173  47.174  44.239  0.00  0.00    -0.507 OA
ATOM     25  H   UNL     1      78.890  46.817  45.058  0.00  0.00    +0.000 HD
ENDBRANCH   1  24
BRANCH   3  26
ATOM     26  O   UNL     1      83.684  45.594  44.003  0.00  0.00    -0.506 OA
ATOM     27  H   UNL     1      84.067  45.342  44.820  0.00  0.00    +0.000 HD
ENDBRANCH   3  26
BRANCH   9  28
ATOM     28  O   UNL     1      86.274  50.144  43.169  0.00  0.00    -0.453 OA
BRANCH  28  29
ATOM     29  C   UNL     1      86.945  50.366  41.926  0.00  0.00    +0.231 C 
ATOM     30  O   UNL     1      87.356  49.118  41.381  0.00  0.00    -0.334 OA
ATOM     31  C   UNL     1      88.570  48.676  41.960  0.00  0.00    +0.088 C 
ATOM     32  C   UNL     1      88.783  47.206  41.599  0.00  0.00    -0.036 C 
ATOM     33  C   UNL     1      89.752  49.550  41.463  0.00  0.00    +0.110 C 
ATOM     34  C   UNL     1      89.301  51.010  41.197  0.00  0.00    +0.115 C 
ATOM     35  C   UNL     1      88.120  51.370  42.121  0.00  0.00    +0.145 C 
BRANCH  35  36
ATOM     36  O   UNL     1      87.703  52.702  41.941  0.00  0.00    -0.383 OA
ATOM     37  H   UNL     1      88.260  53.289  42.476  0.00  0.00    +0.000 HD
ENDBRANCH  35  36
BRANCH  34  38
ATOM     38  O   UNL     1      88.913  51.129  39.850  0.00  0.00    -0.386 OA
ATOM     39  H   UNL     1      88.874  50.248  39.444  0.00  0.00    +0.000 HD
ENDBRANCH  34  38
BRANCH  33  40
ATOM     40  O   UNL     1      90.771  49.531  42.432  0.00  0.00    -0.387 OA
ATOM     41  H   UNL     1      90.977  48.613  42.667  0.00  0.00    +0.000 HD
ENDBRANCH  33  40
ENDBRANCH  28  29
ENDBRANCH   9  28
TORSDOF 11
ENDMDL
MODEL 2
REMARK VINA RESULT:    -9.083      4.015      7.500
REMARK INTER + INTRA:         -13.678
REMARK INTER:                 -13.114
REMARK INTRA:                  -0.564
REMARK UNBOUND:                -0.878
REMARK  Name = 
REMARK  12 active torsions:
REMARK  status: ('A' for Active; 'I' for Inactive)
REMARK    1  A    between atoms: O_1  and  C_2
REMARK    2  A    between atoms: C_4  and  O_5
REMARK    3  A    between atoms: C_10  and  C_25
REMARK    4  A    between atoms: C_11  and  O_14
REMARK    5  A    between atoms: O_14  and  C_15
REMARK    6  A    between atoms: C_17  and  C_18
REMARK    7  A    between atoms: C_19  and  O_24
REMARK    8  A    between atoms: C_20  and  O_23
REMARK    9  A    between atoms: C_21  and  O_22
REMARK   10  A    between atoms: C_27  and  O_28
REMARK   11  A    between atoms: C_29  and  O_33
REMARK   12  A    between atoms: C_30  and  O_32
REMARK                            x       y       z     vdW  Elec       q    Type
REMARK                         _______ _______ _______ _____ _____    ______ ____
ROOT
ATOM      1  C   UNL     1      89.694  49.503  42.285  0.00  0.00    +0.124 A 
ATOM      2  C   UNL     1      89.399  50.174  41.099  0.00  0.00    +0.022 A 
ATOM      3  C   UNL     1      88.441  51.197  41.065  0.00  0.00    +0.135 A 
ATOM      4  C   UNL     1      87.800  51.601  42.275  0.00  0.00    +0.109 A 
ATOM      5  C   UNL     1      88.095  50.888  43.467  0.00  0.00    +0.147 A 
ATOM      6  C   UNL     1      89.031  49.852  43.463  0.00  0.00    +0.023 A 
ATOM      7  O   UNL     1      87.489  51.190  44.609  0.00  0.00    -0.451 OA
ATOM      8  C   UNL     1      86.602  52.172  44.731  0.00  0.00    +0.181 A 
ATOM      9  C   UNL     1      86.317  52.989  43.620  0.00  0.00    +0.214 A 
ATOM     10  C   UNL     1      86.911  52.696  42.388  0.00  0.00    +0.238 A 
ATOM     11  O   UNL     1      86.668  53.454  41.411  0.00  0.00    -0.283 OA
ENDROOT
BRANCH   8  12
ATOM     12  C   UNL     1      85.953  52.364  46.048  0.00  0.00    +0.028 A 
ATOM     13  C   UNL     1      86.547  51.824  47.199  0.00  0.00    -0.006 A 
ATOM     14  C   UNL     1      85.949  51.988  48.455  0.00  0.00    +0.163 A 
ATOM     15  C   UNL     1      84.738  52.694  48.569  0.00  0.00    +0.201 A 
ATOM     16  C   UNL     1      84.128  53.220  47.417  0.00  0.00    +0.163 A 
ATOM     17  C   UNL     1      84.728  53.044  46.167  0.00  0.00    -0.006 A 
BRANCH  14  18
ATOM     18  O   UNL     1      86.553  51.453  49.593  0.00  0.00    -0.503 OA
ATOM     19  H   UNL     1      86.818  52.018  50.292  0.00  0.00    +0.000 HD
ENDBRANCH  14  18
BRANCH  16  20
ATOM     20  O   UNL     1      82.923  53.917  47.495  0.00  0.00    -0.503 OA
ATOM     21  H   UNL     1      82.165  53.504  47.859  0.00  0.00    +0.000 HD
ENDBRANCH  16  20
BRANCH  15  22
ATOM     22  O   UNL     1      84.132  52.873  49.813  0.00  0.00    -0.501 OA
ATOM     23  H   UNL     1      84.481  52.444  50.571  0.00  0.00    +0.000 HD
ENDBRANCH  15  22
ENDBRANCH   8  12
BRANCH   1  24
ATOM     24  O   UNL     1      90.644  48.483  42.281  0.00  0.00    -0.507 OA
ATOM     25  H   UNL     1      90.766  47.954  43.043  0.00  0.00    +0.000 HD
ENDBRANCH   1  24
BRANCH   3  26
ATOM     26  O   UNL     1      88.160  51.744  39.810  0.00  0.00    -0.506 OA
ATOM     27  H   UNL     1      88.167  51.198  39.049  0.00  0.00    +0.000 HD
ENDBRANCH   3  26
BRANCH   9  28
ATOM     28  O   UNL     1      85.469  54.098  43.725  0.00  0.00    -0.453 OA
BRANCH  28  29
ATOM     29  C   UNL     1      85.950  55.442  43.644  0.00  0.00    +0.231 C 
ATOM     30  O   UNL     1      86.613  55.780  44.857  0.00  0.00    -0.334 OA
ATOM     31  C   UNL     1      85.691  56.168  45.859  0.00  0.00    +0.088 C 
ATOM     32  C   UNL     1      86.409  56.189  47.208  0.00  0.00    -0.036 C 
ATOM     33  C   UNL     1      85.087  57.558  45.525  0.00  0.00    +0.110 C 
ATOM     34  C   UNL     1      84.972  57.769  43.993  0.00  0.00    +0.115 C 
ATOM     35  C   UNL     1      84.782  56.410  43.290  0.00  0.00    +0.145 C 
BRANCH  35  36
ATOM     36  O   UNL     1      84.633  56.559  41.898  0.00  0.00    -0.383 OA
ATOM     37  H   UNL     1      83.817  57.049  41.712  0.00  0.00    +0.000 HD
ENDBRANCH  35  36
BRANCH  34  38
ATOM     38  O   UNL     1      86.144  58.394  43.529  0.00  0.00    -0.386 OA
ATOM     39  H   UNL     1      86.651  58.734  44.284  0.00  0.00    +0.000 HD
ENDBRANCH  34  38
BRANCH  33  40
ATOM     40  O   UNL     1      83.817  57.658  46.121  0.00  0.00    -0.387 OA
ATOM     41  H   UNL     1      83.909  57.624  47.086  0.00  0.00    +0.000 HD
ENDBRANCH  33  40
ENDBRANCH  28  29
ENDBRANCH   9  28
TORSDOF 11
ENDMDL
MODEL 3
REMARK VINA RESULT:    -8.806      1.598      2.803
REMARK INTER + INTRA:         -13.288
REMARK INTER:                 -11.940
REMARK INTRA:                  -1.348
REMARK UNBOUND:                -0.878
REMARK  Name = 
REMARK  12 active torsions:
REMARK  status: ('A' for Active; 'I' for Inactive)
REMARK    1  A    between atoms: O_1  and  C_2
REMARK    2  A    between atoms: C_4  and  O_5
REMARK    3  A    between atoms: C_10  and  C_25
REMARK    4  A    between atoms: C_11  and  O_14
REMARK    5  A    between atoms: O_14  and  C_15
REMARK    6  A    between atoms: C_17  and  C_18
REMARK    7  A    between atoms: C_19  and  O_24
REMARK    8  A    between atoms: C_20  and  O_23
REMARK    9  A    between atoms: C_21  and  O_22
REMARK   10  A    between atoms: C_27  and  O_28
REMARK   11  A    between atoms: C_29  and  O_33
REMARK   12  A    between atoms: C_30  and  O_32
REMARK                            x       y       z     vdW  Elec       q    Type
REMARK                         _______ _______ _______ _____ _____    ______ ____
ROOT
ATOM      1  C   UNL     1      79.058  48.567  44.373  0.00  0.00    +0.124 A 
ATOM      2  C   UNL     1      79.770  47.374  44.498  0.00  0.00    +0.022 A 
ATOM      3  C   UNL     1      81.135  47.310  44.189  0.00  0.00    +0.135 A 
ATOM      4  C   UNL     1      81.825  48.497  43.798  0.00  0.00    +0.109 A 
ATOM      5  C   UNL     1      81.078  49.696  43.651  0.00  0.00    +0.147 A 
ATOM      6  C   UNL     1      79.711  49.721  43.937  0.00  0.00    +0.023 A 
ATOM      7  O   UNL     1      81.661  50.816  43.242  0.00  0.00    -0.451 OA
ATOM      8  C   UNL     1      82.957  50.909  42.967  0.00  0.00    +0.181 A 
ATOM      9  C   UNL     1      83.791  49.793  43.172  0.00  0.00    +0.214 A 
ATOM     10  C   UNL     1      83.221  48.582  43.579  0.00  0.00    +0.238 A 
ATOM     11  O   UNL     1      83.983  47.601  43.785  0.00  0.00    -0.283 OA
ENDROOT
BRANCH   8  12
ATOM     12  C   UNL     1      83.470  52.203  42.459  0.00  0.00    +0.028 A 
ATOM     13  C   UNL     1      83.850  53.202  43.368  0.00  0.00    -0.006 A 
ATOM     14  C   UNL     1      84.333  54.436  42.911  0.00  0.00    +0.163 A 
ATOM     15  C   UNL     1      84.433  54.682  41.530  0.00  0.00    +0.201 A 
ATOM     16  C   UNL     1      84.035  53.692  40.615  0.00  0.00    +0.163 A 
ATOM     17  C   UNL     1      83.547  52.467  41.080  0.00  0.00    -0.006 A 
BRANCH  14  18
ATOM     18  O   UNL     1      84.715  55.419  43.823  0.00  0.00    -0.503 OA
ATOM     19  H   UNL     1      84.632  56.325  43.599  0.00  0.00    +0.000 HD
ENDBRANCH  14  18
BRANCH  16  20
ATOM     20  O   UNL     1      84.114  53.908  39.240  0.00  0.00    -0.503 OA
ATOM     21  H   UNL     1      84.949  54.023  38.831  0.00  0.00    +0.000 HD
ENDBRANCH  16  20
BRANCH  15  22
ATOM     22  O   UNL     1      84.918  55.902  41.058  0.00  0.00    -0.501 OA
ATOM     23  H   UNL     1      84.332  56.517  40.660  0.00  0.00    +0.000 HD
ENDBRANCH  15  22
ENDBRANCH   8  12
BRANCH   1  24
ATOM     24  O   UNL     1      77.699  48.592  44.678  0.00  0.00    -0.507 OA
ATOM     25  H   UNL     1      77.160  49.286  44.356  0.00  0.00    +0.000 HD
ENDBRANCH   1  24
BRANCH   3  26
ATOM     26  O   UNL     1      81.731  46.048  44.265  0.00  0.00    -0.506 OA
ATOM     27  H   UNL     1      82.419  45.891  44.882  0.00  0.00    +0.000 HD
ENDBRANCH   3  26
BRANCH   9  28
ATOM     28  O   UNL     1      85.178  49.872  42.996  0.00  0.00    -0.453 OA
BRANCH  28  29
ATOM     29  C   UNL     1      86.046  50.429  43.985  0.00  0.00    +0.231 C 
ATOM     30  O   UNL     1      86.962  51.322  43.360  0.00  0.00    -0.334 OA
ATOM     31  C   UNL     1      88.054  50.625  42.791  0.00  0.00    +0.088 C 
ATOM     32  C   UNL     1      88.812  51.571  41.859  0.00  0.00    -0.036 C 
ATOM     33  C   UNL     1      88.984  50.077  43.907  0.00  0.00    +0.110 C 
ATOM     34  C   UNL     1      88.178  49.707  45.179  0.00  0.00    +0.115 C 
ATOM     35  C   UNL     1      86.744  49.293  44.790  0.00  0.00    +0.145 C 
BRANCH  35  36
ATOM     36  O   UNL     1      85.988  48.910  45.913  0.00  0.00    -0.383 OA
ATOM     37  H   UNL     1      85.254  49.532  46.037  0.00  0.00    +0.000 HD
ENDBRANCH  35  36
BRANCH  34  38
ATOM     38  O   UNL     1      88.143  50.821  46.038  0.00  0.00    -0.386 OA
ATOM     39  H   UNL     1      88.417  51.614  45.551  0.00  0.00    +0.000 HD
ENDBRANCH  34  38
BRANCH  33  40
ATOM     40  O   UNL     1      89.661  48.945  43.420  0.00  0.00    -0.387 OA
ATOM     41  H   UNL     1      89.096  48.479  42.784  0.00  0.00    +0.000 HD
ENDBRANCH  33  40
ENDBRANCH  28  29
ENDBRANCH   9  28
TORSDOF 11
ENDMDL
MODEL 4
REMARK VINA RESULT:    -8.596      2.982      5.627
REMARK INTER + INTRA:         -12.992
REMARK INTER:                 -12.549
REMARK INTRA:                  -0.443
REMARK UNBOUND:                -0.878
REMARK  Name = 
REMARK  12 active torsions:
REMARK  status: ('A' for Active; 'I' for Inactive)
REMARK    1  A    between atoms: O_1  and  C_2
REMARK    2  A    between atoms: C_4  and  O_5
REMARK    3  A    between atoms: C_10  and  C_25
REMARK    4  A    between atoms: C_11  and  O_14
REMARK    5  A    between atoms: O_14  and  C_15
REMARK    6  A    between atoms: C_17  and  C_18
REMARK    7  A    between atoms: C_19  and  O_24
REMARK    8  A    between atoms: C_20  and  O_23
REMARK    9  A    between atoms: C_21  and  O_22
REMARK   10  A    between atoms: C_27  and  O_28
REMARK   11  A    between atoms: C_29  and  O_33
REMARK   12  A    between atoms: C_30  and  O_32
REMARK                            x       y       z     vdW  Elec       q    Type
REMARK                         _______ _______ _______ _____ _____    ______ ____
ROOT
ATOM      1  C   UNL     1      83.911  56.080  46.748  0.00  0.00    +0.124 A 
ATOM      2  C   UNL     1      84.109  55.237  47.841  0.00  0.00    +0.022 A 
ATOM      3  C   UNL     1      84.866  54.064  47.722  0.00  0.00    +0.135 A 
ATOM      4  C   UNL     1      85.495  53.754  46.479  0.00  0.00    +0.109 A 
ATOM      5  C   UNL     1      85.260  54.611  45.371  0.00  0.00    +0.147 A 
ATOM      6  C   UNL     1      84.475  55.758  45.512  0.00  0.00    +0.023 A 
ATOM      7  O   UNL     1      85.781  54.343  44.179  0.00  0.00    -0.451 OA
ATOM      8  C   UNL     1      86.561  53.295  43.940  0.00  0.00    +0.181 A 
ATOM      9  C   UNL     1      86.920  52.441  45.002  0.00  0.00    +0.214 A 
ATOM     10  C   UNL     1      86.378  52.668  46.272  0.00  0.00    +0.238 A 
ATOM     11  O   UNL     1      86.732  51.914  47.216  0.00  0.00    -0.283 OA
ENDROOT
BRANCH   8  12
ATOM     12  C   UNL     1      87.025  53.075  42.551  0.00  0.00    +0.028 A 
ATOM     13  C   UNL     1      86.218  53.483  41.478  0.00  0.00    -0.006 A 
ATOM     14  C   UNL     1      86.633  53.281  40.155  0.00  0.00    +0.163 A 
ATOM     15  C   UNL     1      87.866  52.658  39.894  0.00  0.00    +0.201 A 
ATOM     16  C   UNL     1      88.670  52.229  40.965  0.00  0.00    +0.163 A 
ATOM     17  C   UNL     1      88.243  52.427  42.281  0.00  0.00    -0.006 A 
BRANCH  14  18
ATOM     18  O   UNL     1      85.826  53.698  39.097  0.00  0.00    -0.503 OA
ATOM     19  H   UNL     1      86.051  53.468  38.217  0.00  0.00    +0.000 HD
ENDBRANCH  14  18
BRANCH  16  20
ATOM     20  O   UNL     1      89.894  51.600  40.740  0.00  0.00    -0.503 OA
ATOM     21  H   UNL     1      90.678  52.109  40.676  0.00  0.00    +0.000 HD
ENDBRANCH  16  20
BRANCH  15  22
ATOM     22  O   UNL     1      88.298  52.454  38.583  0.00  0.00    -0.501 OA
ATOM     23  H   UNL     1      88.176  51.620  38.173  0.00  0.00    +0.000 HD
ENDBRANCH  15  22
ENDBRANCH   8  12
BRANCH   1  24
ATOM     24  O   UNL     1      83.144  57.233  46.899  0.00  0.00    -0.507 OA
ATOM     25  H   UNL     1      82.321  57.309  46.458  0.00  0.00    +0.000 HD
ENDBRANCH   1  24
BRANCH   3  26
ATOM     26  O   UNL     1      84.929  53.248  48.855  0.00  0.00    -0.506 OA
ATOM     27  H   UNL     1      84.929  53.632  49.710  0.00  0.00    +0.000 HD
ENDBRANCH   3  26
BRANCH   9  28
ATOM     28  O   UNL     1      87.822  51.386  44.821  0.00  0.00    -0.453 OA
BRANCH  28  29
ATOM     29  C   UNL     1      87.404  50.020  44.774  0.00  0.00    +0.231 C 
ATOM     30  O   UNL     1      88.534  49.188  44.537  0.00  0.00    -0.334 OA
ATOM     31  C   UNL     1      88.859  49.138  43.160  0.00  0.00    +0.088 C 
ATOM     32  C   UNL     1      90.250  48.525  43.003  0.00  0.00    -0.036 C 
ATOM     33  C   UNL     1      87.794  48.315  42.386  0.00  0.00    +0.110 C 
ATOM     34  C   UNL     1      86.391  48.464  43.028  0.00  0.00    +0.115 C 
ATOM     35  C   UNL     1      86.274  49.838  43.718  0.00  0.00    +0.145 C 
BRANCH  35  36
ATOM     36  O   UNL     1      84.998  50.033  44.281  0.00  0.00    -0.383 OA
ATOM     37  H   UNL     1      84.319  49.839  43.616  0.00  0.00    +0.000 HD
ENDBRANCH  35  36
BRANCH  34  38
ATOM     38  O   UNL     1      86.207  47.434  43.969  0.00  0.00    -0.386 OA
ATOM     39  H   UNL     1      87.047  46.968  44.107  0.00  0.00    +0.000 HD
ENDBRANCH  34  38
BRANCH  33  40
ATOM     40  O   UNL     1      87.762  48.754  41.051  0.00  0.00    -0.387 OA
ATOM     41  H   UNL     1      87.768  47.987  40.457  0.00  0.00    +0.000 HD
ENDBRANCH  33  40
ENDBRANCH  28  29
ENDBRANCH   9  28
TORSDOF 11
ENDMDL
MODEL 5
REMARK VINA RESULT:    -8.305      3.688      6.768
REMARK INTER + INTRA:         -12.582
REMARK INTER:                 -12.078
REMARK INTRA:                  -0.504
REMARK UNBOUND:                -0.878
REMARK  Name = 
REMARK  12 active torsions:
REMARK  status: ('A' for Active; 'I' for Inactive)
REMARK    1  A    between atoms: O_1  and  C_2
REMARK    2  A    between atoms: C_4  and  O_5
REMARK    3  A    between atoms: C_10  and  C_25
REMARK    4  A    between atoms: C_11  and  O_14
REMARK    5  A    between atoms: O_14  and  C_15
REMARK    6  A    between atoms: C_17  and  C_18
REMARK    7  A    between atoms: C_19  and  O_24
REMARK    8  A    between atoms: C_20  and  O_23
REMARK    9  A    between atoms: C_21  and  O_22
REMARK   10  A    between atoms: C_27  and  O_28
REMARK   11  A    between atoms: C_29  and  O_33
REMARK   12  A    between atoms: C_30  and  O_32
REMARK                            x       y       z     vdW  Elec       q    Type
REMARK                         _______ _______ _______ _____ _____    ______ ____
ROOT
ATOM      1  C   UNL     1      90.321  48.352  43.442  0.00  0.00    +0.124 A 
ATOM      2  C   UNL     1      89.755  48.281  42.169  0.00  0.00    +0.022 A 
ATOM      3  C   UNL     1      88.616  49.029  41.841  0.00  0.00    +0.135 A 
ATOM      4  C   UNL     1      88.060  49.924  42.804  0.00  0.00    +0.109 A 
ATOM      5  C   UNL     1      88.635  49.962  44.102  0.00  0.00    +0.147 A 
ATOM      6  C   UNL     1      89.751  49.182  44.409  0.00  0.00    +0.023 A 
ATOM      7  O   UNL     1      88.125  50.740  45.050  0.00  0.00    -0.451 OA
ATOM      8  C   UNL     1      87.082  51.540  44.859  0.00  0.00    +0.181 A 
ATOM      9  C   UNL     1      86.505  51.633  43.577  0.00  0.00    +0.214 A 
ATOM     10  C   UNL     1      86.991  50.816  42.550  0.00  0.00    +0.238 A 
ATOM     11  O   UNL     1      86.484  50.932  41.404  0.00  0.00    -0.283 OA
ENDROOT
BRANCH   8  12
ATOM     12  C   UNL     1      86.573  52.310  46.018  0.00  0.00    +0.028 A 
ATOM     13  C   UNL     1      85.982  51.630  47.094  0.00  0.00    -0.006 A 
ATOM     14  C   UNL     1      85.488  52.336  48.199  0.00  0.00    +0.163 A 
ATOM     15  C   UNL     1      85.577  53.739  48.232  0.00  0.00    +0.201 A 
ATOM     16  C   UNL     1      86.150  54.426  47.147  0.00  0.00    +0.163 A 
ATOM     17  C   UNL     1      86.633  53.714  46.046  0.00  0.00    -0.006 A 
BRANCH  14  18
ATOM     18  O   UNL     1      84.911  51.650  49.267  0.00  0.00    -0.503 OA
ATOM     19  H   UNL     1      84.974  51.995  50.136  0.00  0.00    +0.000 HD
ENDBRANCH  14  18
BRANCH  16  20
ATOM     20  O   UNL     1      86.245  55.817  47.145  0.00  0.00    -0.503 OA
ATOM     21  H   UNL     1      85.836  56.316  47.824  0.00  0.00    +0.000 HD
ENDBRANCH  16  20
BRANCH  15  22
ATOM     22  O   UNL     1      85.097  54.458  49.327  0.00  0.00    -0.501 OA
ATOM     23  H   UNL     1      85.666  54.652  50.047  0.00  0.00    +0.000 HD
ENDBRANCH  15  22
ENDBRANCH   8  12
BRANCH   1  24
ATOM     24  O   UNL     1      91.447  47.586  43.737  0.00  0.00    -0.507 OA
ATOM     25  H   UNL     1      91.379  46.861  44.326  0.00  0.00    +0.000 HD
ENDBRANCH   1  24
BRANCH   3  26
ATOM     26  O   UNL     1      88.080  48.818  40.567  0.00  0.00    -0.506 OA
ATOM     27  H   UNL     1      87.162  48.659  40.466  0.00  0.00    +0.000 HD
ENDBRANCH   3  26
BRANCH   9  28
ATOM     28  O   UNL     1      85.473  52.538  43.302  0.00  0.00    -0.453 OA
BRANCH  28  29
ATOM     29  C   UNL     1      85.536  53.468  42.218  0.00  0.00    +0.231 C 
ATOM     30  O   UNL     1      86.313  54.595  42.608  0.00  0.00    -0.334 OA
ATOM     31  C   UNL     1      85.545  55.517  43.358  0.00  0.00    +0.088 C 
ATOM     32  C   UNL     1      86.488  56.517  44.027  0.00  0.00    -0.036 C 
ATOM     33  C   UNL     1      84.524  56.241  42.438  0.00  0.00    +0.110 C 
ATOM     34  C   UNL     1      84.045  55.315  41.291  0.00  0.00    +0.115 C 
ATOM     35  C   UNL     1      84.099  53.843  41.748  0.00  0.00    +0.145 C 
BRANCH  35  36
ATOM     36  O   UNL     1      83.633  52.968  40.748  0.00  0.00    -0.383 OA
ATOM     37  H   UNL     1      82.853  52.493  41.073  0.00  0.00    +0.000 HD
ENDBRANCH  35  36
BRANCH  34  38
ATOM     38  O   UNL     1      84.878  55.505  40.173  0.00  0.00    -0.386 OA
ATOM     39  H   UNL     1      85.671  55.995  40.439  0.00  0.00    +0.000 HD
ENDBRANCH  34  38
BRANCH  33  40
ATOM     40  O   UNL     1      83.426  56.654  43.214  0.00  0.00    -0.387 OA
ATOM     41  H   UNL     1      83.741  56.986  44.069  0.00  0.00    +0.000 HD
ENDBRANCH  33  40
ENDBRANCH  28  29
ENDBRANCH   9  28
TORSDOF 11
ENDMDL
MODEL 6
REMARK VINA RESULT:    -8.185      3.463      4.600
REMARK INTER + INTRA:         -12.412
REMARK INTER:                 -12.109
REMARK INTRA:                  -0.304
REMARK UNBOUND:                -0.878
REMARK  Name = 
REMARK  12 active torsions:
REMARK  status: ('A' for Active; 'I' for Inactive)
REMARK    1  A    between atoms: O_1  and  C_2
REMARK    2  A    between atoms: C_4  and  O_5
REMARK    3  A    between atoms: C_10  and  C_25
REMARK    4  A    between atoms: C_11  and  O_14
REMARK    5  A    between atoms: O_14  and  C_15
REMARK    6  A    between atoms: C_17  and  C_18
REMARK    7  A    between atoms: C_19  and  O_24
REMARK    8  A    between atoms: C_20  and  O_23
REMARK    9  A    between atoms: C_21  and  O_22
REMARK   10  A    between atoms: C_27  and  O_28
REMARK   11  A    between atoms: C_29  and  O_33
REMARK   12  A    between atoms: C_30  and  O_32
REMARK                            x       y       z     vdW  Elec       q    Type
REMARK                         _______ _______ _______ _____ _____    ______ ____
ROOT
ATOM      1  C   UNL     1      84.896  53.402  48.394  0.00  0.00    +0.124 A 
ATOM      2  C   UNL     1      85.583  52.221  48.675  0.00  0.00    +0.022 A 
ATOM      3  C   UNL     1      86.033  51.383  47.645  0.00  0.00    +0.135 A 
ATOM      4  C   UNL     1      85.840  51.772  46.286  0.00  0.00    +0.109 A 
ATOM      5  C   UNL     1      85.116  52.965  46.020  0.00  0.00    +0.147 A 
ATOM      6  C   UNL     1      84.653  53.764  47.068  0.00  0.00    +0.023 A 
ATOM      7  O   UNL     1      84.865  53.347  44.773  0.00  0.00    -0.451 OA
ATOM      8  C   UNL     1      85.281  52.676  43.705  0.00  0.00    +0.181 A 
ATOM      9  C   UNL     1      86.082  51.530  43.873  0.00  0.00    +0.214 A 
ATOM     10  C   UNL     1      86.354  51.074  45.168  0.00  0.00    +0.238 A 
ATOM     11  O   UNL     1      87.096  50.065  45.302  0.00  0.00    -0.283 OA
ENDROOT
BRANCH   8  12
ATOM     12  C   UNL     1      84.879  53.176  42.369  0.00  0.00    +0.028 A 
ATOM     13  C   UNL     1      83.539  53.519  42.133  0.00  0.00    -0.006 A 
ATOM     14  C   UNL     1      83.133  53.990  40.876  0.00  0.00    +0.163 A 
ATOM     15  C   UNL     1      84.073  54.114  39.838  0.00  0.00    +0.201 A 
ATOM     16  C   UNL     1      85.413  53.753  40.063  0.00  0.00    +0.163 A 
ATOM     17  C   UNL     1      85.806  53.277  41.317  0.00  0.00    -0.006 A 
BRANCH  14  18
ATOM     18  O   UNL     1      81.801  54.335  40.656  0.00  0.00    -0.503 OA
ATOM     19  H   UNL     1      81.325  53.941  39.951  0.00  0.00    +0.000 HD
ENDBRANCH  14  18
BRANCH  16  20
ATOM     20  O   UNL     1      86.367  53.856  39.052  0.00  0.00    -0.503 OA
ATOM     21  H   UNL     1      87.117  53.294  39.055  0.00  0.00    +0.000 HD
ENDBRANCH  16  20
BRANCH  15  22
ATOM     22  O   UNL     1      83.689  54.587  38.582  0.00  0.00    -0.501 OA
ATOM     23  H   UNL     1      83.294  54.004  37.962  0.00  0.00    +0.000 HD
ENDBRANCH  15  22
ENDBRANCH   8  12
BRANCH   1  24
ATOM     24  O   UNL     1      84.453  54.206  49.442  0.00  0.00    -0.507 OA
ATOM     25  H   UNL     1      85.003  54.889  49.773  0.00  0.00    +0.000 HD
ENDBRANCH   1  24
BRANCH   3  26
ATOM     26  O   UNL     1      86.632  50.183  48.038  0.00  0.00    -0.506 OA
ATOM     27  H   UNL     1      87.560  50.074  47.958  0.00  0.00    +0.000 HD
ENDBRANCH   3  26
BRANCH   9  28
ATOM     28  O   UNL     1      86.629  50.851  42.778  0.00  0.00    -0.453 OA
BRANCH  28  29
ATOM     29  C   UNL     1      88.010  50.487  42.712  0.00  0.00    +0.231 C 
ATOM     30  O   UNL     1      88.804  51.665  42.627  0.00  0.00    -0.334 OA
ATOM     31  C   UNL     1      88.866  52.151  41.299  0.00  0.00    +0.088 C 
ATOM     32  C   UNL     1      89.433  53.571  41.319  0.00  0.00    -0.036 C 
ATOM     33  C   UNL     1      89.740  51.213  40.423  0.00  0.00    +0.110 C 
ATOM     34  C   UNL     1      89.630  49.739  40.893  0.00  0.00    +0.115 C 
ATOM     35  C   UNL     1      88.249  49.496  41.535  0.00  0.00    +0.145 C 
BRANCH  35  36
ATOM     36  O   UNL     1      88.090  48.158  41.940  0.00  0.00    -0.383 OA
ATOM     37  H   UNL     1      88.316  47.568  41.204  0.00  0.00    +0.000 HD
ENDBRANCH  35  36
BRANCH  34  38
ATOM     38  O   UNL     1      90.649  49.481  41.827  0.00  0.00    -0.386 OA
ATOM     39  H   UNL     1      90.992  48.583  41.693  0.00  0.00    +0.000 HD
ENDBRANCH  34  38
BRANCH  33  40
ATOM     40  O   UNL     1      89.325  51.323  39.084  0.00  0.00    -0.387 OA
ATOM     41  H   UNL     1      89.750  52.094  38.676  0.00  0.00    +0.000 HD
ENDBRANCH  33  40
ENDBRANCH  28  29
ENDBRANCH   9  28
TORSDOF 11
ENDMDL
MODEL 7
REMARK VINA RESULT:    -8.166      1.743      5.278
REMARK INTER + INTRA:         -12.385
REMARK INTER:                 -11.337
REMARK INTRA:                  -1.048
REMARK UNBOUND:                -0.878
REMARK  Name = 
REMARK  12 active torsions:
REMARK  status: ('A' for Active; 'I' for Inactive)
REMARK    1  A    between atoms: O_1  and  C_2
REMARK    2  A    between atoms: C_4  and  O_5
REMARK    3  A    between atoms: C_10  and  C_25
REMARK    4  A    between atoms: C_11  and  O_14
REMARK    5  A    between atoms: O_14  and  C_15
REMARK    6  A    between atoms: C_17  and  C_18
REMARK    7  A    between atoms: C_19  and  O_24
REMARK    8  A    between atoms: C_20  and  O_23
REMARK    9  A    between atoms: C_21  and  O_22
REMARK   10  A    between atoms: C_27  and  O_28
REMARK   11  A    between atoms: C_29  and  O_33
REMARK   12  A    between atoms: C_30  and  O_32
REMARK                            x       y       z     vdW  Elec       q    Type
REMARK                         _______ _______ _______ _____ _____    ______ ____
ROOT
ATOM      1  C   UNL     1      80.080  46.870  44.576  0.00  0.00    +0.124 A 
ATOM      2  C   UNL     1      79.272  47.897  44.090  0.00  0.00    +0.022 A 
ATOM      3  C   UNL     1      79.830  49.071  43.566  0.00  0.00    +0.135 A 
ATOM      4  C   UNL     1      81.249  49.194  43.471  0.00  0.00    +0.109 A 
ATOM      5  C   UNL     1      82.055  48.148  43.995  0.00  0.00    +0.147 A 
ATOM      6  C   UNL     1      81.469  47.004  44.539  0.00  0.00    +0.023 A 
ATOM      7  O   UNL     1      83.380  48.235  43.976  0.00  0.00    -0.451 OA
ATOM      8  C   UNL     1      84.040  49.266  43.460  0.00  0.00    +0.181 A 
ATOM      9  C   UNL     1      83.323  50.307  42.838  0.00  0.00    +0.214 A 
ATOM     10  C   UNL     1      81.924  50.273  42.852  0.00  0.00    +0.238 A 
ATOM     11  O   UNL     1      81.298  51.196  42.266  0.00  0.00    -0.283 OA
ENDROOT
BRANCH   8  12
ATOM     12  C   UNL     1      85.518  49.268  43.560  0.00  0.00    +0.028 A 
ATOM     13  C   UNL     1      86.283  48.717  42.521  0.00  0.00    -0.006 A 
ATOM     14  C   UNL     1      87.682  48.702  42.594  0.00  0.00    +0.163 A 
ATOM     15  C   UNL     1      88.330  49.236  43.722  0.00  0.00    +0.201 A 
ATOM     16  C   UNL     1      87.568  49.771  44.775  0.00  0.00    +0.163 A 
ATOM     17  C   UNL     1      86.173  49.774  44.696  0.00  0.00    -0.006 A 
BRANCH  14  18
ATOM     18  O   UNL     1      88.432  48.159  41.552  0.00  0.00    -0.503 OA
ATOM     19  H   UNL     1      88.061  48.090  40.694  0.00  0.00    +0.000 HD
ENDBRANCH  14  18
BRANCH  16  20
ATOM     20  O   UNL     1      88.181  50.301  45.911  0.00  0.00    -0.503 OA
ATOM     21  H   UNL     1      88.532  51.169  45.891  0.00  0.00    +0.000 HD
ENDBRANCH  16  20
BRANCH  15  22
ATOM     22  O   UNL     1      89.723  49.236  43.810  0.00  0.00    -0.501 OA
ATOM     23  H   UNL     1      90.235  49.641  43.137  0.00  0.00    +0.000 HD
ENDBRANCH  15  22
ENDBRANCH   8  12
BRANCH   1  24
ATOM     24  O   UNL     1      79.492  45.721  45.100  0.00  0.00    -0.507 OA
ATOM     25  H   UNL     1      78.560  45.664  45.174  0.00  0.00    +0.000 HD
ENDBRANCH   1  24
BRANCH   3  26
ATOM     26  O   UNL     1      78.931  50.072  43.187  0.00  0.00    -0.506 OA
ATOM     27  H   UNL     1      79.168  50.974  43.280  0.00  0.00    +0.000 HD
ENDBRANCH   3  26
BRANCH   9  28
ATOM     28  O   UNL     1      83.976  51.361  42.189  0.00  0.00    -0.453 OA
BRANCH  28  29
ATOM     29  C   UNL     1      84.178  52.634  42.806  0.00  0.00    +0.231 C 
ATOM     30  O   UNL     1      83.067  53.478  42.522  0.00  0.00    -0.334 OA
ATOM     31  C   UNL     1      83.187  54.075  41.244  0.00  0.00    +0.088 C 
ATOM     32  C   UNL     1      81.839  54.684  40.856  0.00  0.00    -0.036 C 
ATOM     33  C   UNL     1      84.304  55.153  41.257  0.00  0.00    +0.110 C 
ATOM     34  C   UNL     1      85.442  54.773  42.239  0.00  0.00    +0.115 C 
ATOM     35  C   UNL     1      85.541  53.239  42.358  0.00  0.00    +0.145 C 
BRANCH  35  36
ATOM     36  O   UNL     1      86.590  52.849  43.212  0.00  0.00    -0.383 OA
ATOM     37  H   UNL     1      86.720  51.890  43.146  0.00  0.00    +0.000 HD
ENDBRANCH  35  36
BRANCH  34  38
ATOM     38  O   UNL     1      85.165  55.338  43.498  0.00  0.00    -0.386 OA
ATOM     39  H   UNL     1      85.544  54.780  44.195  0.00  0.00    +0.000 HD
ENDBRANCH  34  38
BRANCH  33  40
ATOM     40  O   UNL     1      84.819  55.290  39.955  0.00  0.00    -0.387 OA
ATOM     41  H   UNL     1      85.310  54.488  39.716  0.00  0.00    +0.000 HD
ENDBRANCH  33  40
ENDBRANCH  28  29
ENDBRANCH   9  28
TORSDOF 11
ENDMDL
MODEL 8
REMARK VINA RESULT:    -8.027      2.162      6.183
REMARK INTER + INTRA:         -12.190
REMARK INTER:                 -11.419
REMARK INTRA:                  -0.772
REMARK UNBOUND:                -0.878
REMARK  Name = 
REMARK  12 active torsions:
REMARK  status: ('A' for Active; 'I' for Inactive)
REMARK    1  A    between atoms: O_1  and  C_2
REMARK    2  A    between atoms: C_4  and  O_5
REMARK    3  A    between atoms: C_10  and  C_25
REMARK    4  A    between atoms: C_11  and  O_14
REMARK    5  A    between atoms: O_14  and  C_15
REMARK    6  A    between atoms: C_17  and  C_18
REMARK    7  A    between atoms: C_19  and  O_24
REMARK    8  A    between atoms: C_20  and  O_23
REMARK    9  A    between atoms: C_21  and  O_22
REMARK   10  A    between atoms: C_27  and  O_28
REMARK   11  A    between atoms: C_29  and  O_33
REMARK   12  A    between atoms: C_30  and  O_32
REMARK                            x       y       z     vdW  Elec       q    Type
REMARK                         _______ _______ _______ _____ _____    ______ ____
ROOT
ATOM      1  C   UNL     1      84.325  54.951  47.422  0.00  0.00    +0.124 A 
ATOM      2  C   UNL     1      85.295  55.728  46.791  0.00  0.00    +0.022 A 
ATOM      3  C   UNL     1      86.024  55.232  45.701  0.00  0.00    +0.135 A 
ATOM      4  C   UNL     1      85.727  53.933  45.189  0.00  0.00    +0.109 A 
ATOM      5  C   UNL     1      84.754  53.147  45.861  0.00  0.00    +0.147 A 
ATOM      6  C   UNL     1      84.066  53.658  46.965  0.00  0.00    +0.023 A 
ATOM      7  O   UNL     1      84.476  51.913  45.456  0.00  0.00    -0.451 OA
ATOM      8  C   UNL     1      85.052  51.341  44.405  0.00  0.00    +0.181 A 
ATOM      9  C   UNL     1      85.963  52.080  43.625  0.00  0.00    +0.214 A 
ATOM     10  C   UNL     1      86.307  53.376  44.025  0.00  0.00    +0.238 A 
ATOM     11  O   UNL     1      87.101  54.033  43.301  0.00  0.00    -0.283 OA
ENDROOT
BRANCH   8  12
ATOM     12  C   UNL     1      84.698  49.936  44.097  0.00  0.00    +0.028 A 
ATOM     13  C   UNL     1      83.426  49.639  43.585  0.00  0.00    -0.006 A 
ATOM     14  C   UNL     1      83.065  48.316  43.291  0.00  0.00    +0.163 A 
ATOM     15  C   UNL     1      83.981  47.274  43.516  0.00  0.00    +0.201 A 
ATOM     16  C   UNL     1      85.250  47.563  44.048  0.00  0.00    +0.163 A 
ATOM     17  C   UNL     1      85.597  48.884  44.345  0.00  0.00    -0.006 A 
BRANCH  14  18
ATOM     18  O   UNL     1      81.801  48.034  42.775  0.00  0.00    -0.503 OA
ATOM     19  H   UNL     1      81.307  47.314  43.114  0.00  0.00    +0.000 HD
ENDBRANCH  14  18
BRANCH  16  20
ATOM     20  O   UNL     1      86.178  46.551  44.290  0.00  0.00    -0.503 OA
ATOM     21  H   UNL     1      86.167  45.771  43.770  0.00  0.00    +0.000 HD
ENDBRANCH  16  20
BRANCH  15  22
ATOM     22  O   UNL     1      83.642  45.952  43.223  0.00  0.00    -0.501 OA
ATOM     23  H   UNL     1      82.746  45.678  43.263  0.00  0.00    +0.000 HD
ENDBRANCH  15  22
ENDBRANCH   8  12
BRANCH   1  24
ATOM     24  O   UNL     1      83.627  55.471  48.510  0.00  0.00    -0.507 OA
ATOM     25  H   UNL     1      83.841  56.321  48.841  0.00  0.00    +0.000 HD
ENDBRANCH   1  24
BRANCH   3  26
ATOM     26  O   UNL     1      87.031  56.060  45.199  0.00  0.00    -0.506 OA
ATOM     27  H   UNL     1      87.857  55.694  44.947  0.00  0.00    +0.000 HD
ENDBRANCH   3  26
BRANCH   9  28
ATOM     28  O   UNL     1      86.516  51.555  42.451  0.00  0.00    -0.453 OA
BRANCH  28  29
ATOM     29  C   UNL     1      87.799  50.927  42.421  0.00  0.00    +0.231 C 
ATOM     30  O   UNL     1      88.812  51.925  42.365  0.00  0.00    -0.334 OA
ATOM     31  C   UNL     1      89.006  52.390  41.041  0.00  0.00    +0.088 C 
ATOM     32  C   UNL     1      89.840  53.670  41.086  0.00  0.00    -0.036 C 
ATOM     33  C   UNL     1      89.703  51.299  40.185  0.00  0.00    +0.110 C 
ATOM     34  C   UNL     1      89.291  49.875  40.642  0.00  0.00    +0.115 C 
ATOM     35  C   UNL     1      87.872  49.908  41.245  0.00  0.00    +0.145 C 
BRANCH  35  36
ATOM     36  O   UNL     1      87.442  48.627  41.637  0.00  0.00    -0.383 OA
ATOM     37  H   UNL     1      86.902  48.700  42.440  0.00  0.00    +0.000 HD
ENDBRANCH  35  36
BRANCH  34  38
ATOM     38  O   UNL     1      90.213  49.420  41.603  0.00  0.00    -0.386 OA
ATOM     39  H   UNL     1      91.044  49.176  41.165  0.00  0.00    +0.000 HD
ENDBRANCH  34  38
BRANCH  33  40
ATOM     40  O   UNL     1      89.356  51.489  38.835  0.00  0.00    -0.387 OA
ATOM     41  H   UNL     1      88.582  52.072  38.780  0.00  0.00    +0.000 HD
ENDBRANCH  33  40
ENDBRANCH  28  29
ENDBRANCH   9  28
TORSDOF 11
ENDMDL
MODEL 9
REMARK VINA RESULT:    -7.975      1.036      2.032
REMARK INTER + INTRA:         -12.117
REMARK INTER:                 -11.239
REMARK INTRA:                  -0.878
REMARK UNBOUND:                -0.878
REMARK  Name = 
REMARK  12 active torsions:
REMARK  status: ('A' for Active; 'I' for Inactive)
REMARK    1  A    between atoms: O_1  and  C_2
REMARK    2  A    between atoms: C_4  and  O_5
REMARK    3  A    between atoms: C_10  and  C_25
REMARK    4  A    between atoms: C_11  and  O_14
REMARK    5  A    between atoms: O_14  and  C_15
REMARK    6  A    between atoms: C_17  and  C_18
REMARK    7  A    between atoms: C_19  and  O_24
REMARK    8  A    between atoms: C_20  and  O_23
REMARK    9  A    between atoms: C_21  and  O_22
REMARK   10  A    between atoms: C_27  and  O_28
REMARK   11  A    between atoms: C_29  and  O_33
REMARK   12  A    between atoms: C_30  and  O_32
REMARK                            x       y       z     vdW  Elec       q    Type
REMARK                         _______ _______ _______ _____ _____    ______ ____
ROOT
ATOM      1  C   UNL     1      80.918  47.180  43.515  0.00  0.00    +0.124 A 
ATOM      2  C   UNL     1      81.887  46.328  44.045  0.00  0.00    +0.022 A 
ATOM      3  C   UNL     1      83.208  46.758  44.225  0.00  0.00    +0.135 A 
ATOM      4  C   UNL     1      83.558  48.107  43.919  0.00  0.00    +0.109 A 
ATOM      5  C   UNL     1      82.564  48.952  43.356  0.00  0.00    +0.147 A 
ATOM      6  C   UNL     1      81.263  48.485  43.159  0.00  0.00    +0.023 A 
ATOM      7  O   UNL     1      82.850  50.201  43.006  0.00  0.00    -0.451 OA
ATOM      8  C   UNL     1      84.046  50.753  43.173  0.00  0.00    +0.181 A 
ATOM      9  C   UNL     1      85.067  50.017  43.807  0.00  0.00    +0.214 A 
ATOM     10  C   UNL     1      84.823  48.689  44.172  0.00  0.00    +0.238 A 
ATOM     11  O   UNL     1      85.736  48.055  44.764  0.00  0.00    -0.283 OA
ENDROOT
BRANCH   8  12
ATOM     12  C   UNL     1      84.249  52.135  42.682  0.00  0.00    +0.028 A 
ATOM     13  C   UNL     1      84.265  52.385  41.301  0.00  0.00    -0.006 A 
ATOM     14  C   UNL     1      84.460  53.683  40.812  0.00  0.00    +0.163 A 
ATOM     15  C   UNL     1      84.651  54.749  41.709  0.00  0.00    +0.201 A 
ATOM     16  C   UNL     1      84.657  54.502  43.093  0.00  0.00    +0.163 A 
ATOM     17  C   UNL     1      84.469  53.202  43.571  0.00  0.00    -0.006 A 
BRANCH  14  18
ATOM     18  O   UNL     1      84.465  53.920  39.438  0.00  0.00    -0.503 OA
ATOM     19  H   UNL     1      85.072  53.466  38.886  0.00  0.00    +0.000 HD
ENDBRANCH  14  18
BRANCH  16  20
ATOM     20  O   UNL     1      84.853  55.535  44.008  0.00  0.00    -0.503 OA
ATOM     21  H   UNL     1      85.664  56.004  44.020  0.00  0.00    +0.000 HD
ENDBRANCH  16  20
BRANCH  15  22
ATOM     22  O   UNL     1      84.841  56.049  41.240  0.00  0.00    -0.501 OA
ATOM     23  H   UNL     1      85.518  56.586  41.606  0.00  0.00    +0.000 HD
ENDBRANCH  15  22
ENDBRANCH   8  12
BRANCH   1  24
ATOM     24  O   UNL     1      79.616  46.716  43.338  0.00  0.00    -0.507 OA
ATOM     25  H   UNL     1      78.982  47.253  42.907  0.00  0.00    +0.000 HD
ENDBRANCH   1  24
BRANCH   3  26
ATOM     26  O   UNL     1      84.117  45.799  44.682  0.00  0.00    -0.506 OA
ATOM     27  H   UNL     1      84.743  45.428  44.091  0.00  0.00    +0.000 HD
ENDBRANCH   3  26
BRANCH   9  28
ATOM     28  O   UNL     1      86.310  50.591  44.097  0.00  0.00    -0.453 OA
BRANCH  28  29
ATOM     29  C   UNL     1      87.503  50.234  43.395  0.00  0.00    +0.231 C 
ATOM     30  O   UNL     1      88.328  51.385  43.251  0.00  0.00    -0.334 OA
ATOM     31  C   UNL     1      87.918  52.182  42.156  0.00  0.00    +0.088 C 
ATOM     32  C   UNL     1      88.604  53.544  42.252  0.00  0.00    -0.036 C 
ATOM     33  C   UNL     1      88.264  51.475  40.817  0.00  0.00    +0.110 C 
ATOM     34  C   UNL     1      88.180  49.933  40.957  0.00  0.00    +0.115 C 
ATOM     35  C   UNL     1      87.145  49.560  42.037  0.00  0.00    +0.145 C 
BRANCH  35  36
ATOM     36  O   UNL     1      87.008  48.165  42.168  0.00  0.00    -0.383 OA
ATOM     37  H   UNL     1      86.766  47.949  43.082  0.00  0.00    +0.000 HD
ENDBRANCH  35  36
BRANCH  34  38
ATOM     38  O   UNL     1      89.448  49.437  41.311  0.00  0.00    -0.386 OA
ATOM     39  H   UNL     1      90.107  50.146  41.234  0.00  0.00    +0.000 HD
ENDBRANCH  34  38
BRANCH  33  40
ATOM     40  O   UNL     1      87.371  51.917  39.825  0.00  0.00    -0.387 OA
ATOM     41  H   UNL     1      86.502  51.512  39.968  0.00  0.00    +0.000 HD
ENDBRANCH  33  40
ENDBRANCH  28  29
ENDBRANCH   9  28
TORSDOF 11
ENDMDL
