MODEL 1
REMARK VINA RESULT:    -8.375      0.000      0.000
REMARK INTER + INTRA:         -10.845
REMARK INTER:                 -10.448
REMARK INTRA:                  -0.397
REMARK UNBOUND:                -0.267
REMARK  Name = 
REMARK  9 active torsions:
REMARK  status: ('A' for Active; 'I' for Inactive)
REMARK    1  A    between atoms: C_1  and  O_2
REMARK    2  A    between atoms: O_2  and  C_3
REMARK    3  A    between atoms: C_8  and  O_9
REMARK    4  A    between atoms: O_9  and  C_10
REMARK    5  A    between atoms: C_11  and  O_12
REMARK    6  A    between atoms: C_16  and  O_17
REMARK    7  A    between atoms: O_17  and  C_18
REMARK    8  A    between atoms: C_19  and  O_20
REMARK    9  A    between atoms: O_20  and  C_21
REMARK                            x       y       z     vdW  Elec       q    Type
REMARK                         _______ _______ _______ _____ _____    ______ ____
ROOT
ATOM      1  C   UNL     1      82.204  48.679  43.892  0.00  0.00    +0.162 A 
ATOM      2  C   UNL     1      83.557  48.982  43.665  0.00  0.00    -0.008 A 
ATOM      3  C   UNL     1      84.551  47.974  43.655  0.00  0.00    +0.001 A 
ATOM      4  C   UNL     1      84.121  46.618  43.669  0.00  0.00    +0.030 A 
ATOM      5  C   UNL     1      82.768  46.330  43.953  0.00  0.00    -0.005 A 
ATOM      6  C   UNL     1      81.815  47.353  44.073  0.00  0.00    +0.162 A 
ATOM      7  C   UNL     1      85.043  45.580  43.387  0.00  0.00    +0.147 A 
ATOM      8  C   UNL     1      86.411  45.874  43.227  0.00  0.00    +0.091 A 
ATOM      9  C   UNL     1      86.838  47.219  43.210  0.00  0.00    +0.019 A 
ATOM     10  C   UNL     1      85.945  48.275  43.529  0.00  0.00    +0.038 A 
ATOM     11  C   UNL     1      86.499  49.568  43.779  0.00  0.00    +0.170 A 
ATOM     12  C   UNL     1      87.828  49.852  43.381  0.00  0.00    +0.163 A 
ATOM     13  C   UNL     1      88.641  48.816  42.903  0.00  0.00    -0.008 A 
ATOM     14  C   UNL     1      88.171  47.505  42.861  0.00  0.00    -0.011 A 
ATOM     15  C   UNL     1      89.069  46.430  42.401  0.00  0.00    -0.039 C 
ATOM     16  C   UNL     1      88.679  45.160  42.472  0.00  0.00    +0.005 C 
ATOM     17  N   UNL     1      87.398  44.822  43.036  0.00  0.00    -0.246 N 
ATOM     18  C   UNL     1      87.248  43.524  43.637  0.00  0.00    +0.211 C 
ATOM     19  O   UNL     1      87.977  42.559  43.283  0.00  0.00    -0.279 OA
ENDROOT
BRANCH   1  21
ATOM     20  C   UNL     1      80.823  50.491  42.844  0.00  0.00    +0.079 C 
ATOM     21  O   UNL     1      81.213  49.675  43.944  0.00  0.00    -0.491 OA
ENDBRANCH   1  21
BRANCH   6  22
ATOM     22  O   UNL     1      80.462  47.088  44.347  0.00  0.00    -0.491 OA
ATOM     23  C   UNL     1      79.994  46.299  45.434  0.00  0.00    +0.079 C 
ENDBRANCH   6  22
BRANCH   7  24
ATOM     24  O   UNL     1      84.620  44.262  43.172  0.00  0.00    -0.504 OA
ATOM     25  H   UNL     1      84.731  43.867  42.330  0.00  0.00    +0.000 HD
ENDBRANCH   7  24
BRANCH  11  26
ATOM     26  O   UNL     1      85.735  50.516  44.487  0.00  0.00    -0.491 OA
ATOM     27  C   UNL     1      85.958  50.943  45.829  0.00  0.00    +0.079 C 
ENDBRANCH  11  26
BRANCH  12  28
ATOM     28  O   UNL     1      88.308  51.170  43.457  0.00  0.00    -0.491 OA
ATOM     29  C   UNL     1      88.299  52.107  42.385  0.00  0.00    +0.079 C 
ENDBRANCH  12  28
TORSDOF 5
ENDMDL
MODEL 2
REMARK VINA RESULT:    -8.212      2.977      6.415
REMARK INTER + INTRA:         -10.639
REMARK INTER:                 -10.235
REMARK INTRA:                  -0.404
REMARK UNBOUND:                -0.267
REMARK  Name = 
REMARK  9 active torsions:
REMARK  status: ('A' for Active; 'I' for Inactive)
REMARK    1  A    between atoms: C_1  and  O_2
REMARK    2  A    between atoms: O_2  and  C_3
REMARK    3  A    between atoms: C_8  and  O_9
REMARK    4  A    between atoms: O_9  and  C_10
REMARK    5  A    between atoms: C_11  and  O_12
REMARK    6  A    between atoms: C_16  and  O_17
REMARK    7  A    between atoms: O_17  and  C_18
REMARK    8  A    between atoms: C_19  and  O_20
REMARK    9  A    between atoms: O_20  and  C_21
REMARK                            x       y       z     vdW  Elec       q    Type
REMARK                         _______ _______ _______ _____ _____    ______ ____
ROOT
ATOM      1  C   UNL     1      84.665  53.275  46.006  0.00  0.00    +0.162 A 
ATOM      2  C   UNL     1      85.040  51.980  45.610  0.00  0.00    -0.008 A 
ATOM      3  C   UNL     1      85.806  51.755  44.442  0.00  0.00    +0.001 A 
ATOM      4  C   UNL     1      86.370  52.887  43.789  0.00  0.00    +0.030 A 
ATOM      5  C   UNL     1      85.941  54.179  44.164  0.00  0.00    -0.005 A 
ATOM      6  C   UNL     1      85.086  54.374  45.260  0.00  0.00    +0.162 A 
ATOM      7  C   UNL     1      87.358  52.709  42.790  0.00  0.00    +0.147 A 
ATOM      8  C   UNL     1      87.687  51.415  42.343  0.00  0.00    +0.091 A 
ATOM      9  C   UNL     1      87.130  50.292  42.991  0.00  0.00    +0.019 A 
ATOM     10  C   UNL     1      86.109  50.440  43.967  0.00  0.00    +0.038 A 
ATOM     11  C   UNL     1      85.390  49.271  44.365  0.00  0.00    +0.170 A 
ATOM     12  C   UNL     1      85.910  47.989  44.065  0.00  0.00    +0.163 A 
ATOM     13  C   UNL     1      87.032  47.877  43.233  0.00  0.00    -0.008 A 
ATOM     14  C   UNL     1      87.609  49.009  42.662  0.00  0.00    -0.011 A 
ATOM     15  C   UNL     1      88.757  48.854  41.750  0.00  0.00    -0.039 C 
ATOM     16  C   UNL     1      89.241  49.910  41.101  0.00  0.00    +0.005 C 
ATOM     17  N   UNL     1      88.623  51.201  41.251  0.00  0.00    -0.246 N 
ATOM     18  C   UNL     1      88.743  52.136  40.163  0.00  0.00    +0.211 C 
ATOM     19  O   UNL     1      89.706  52.064  39.353  0.00  0.00    -0.279 OA
ENDROOT
BRANCH   1  21
ATOM     20  C   UNL     1      84.313  53.360  48.488  0.00  0.00    +0.079 C 
ATOM     21  O   UNL     1      83.870  53.510  47.142  0.00  0.00    -0.491 OA
ENDBRANCH   1  21
BRANCH   6  22
ATOM     22  O   UNL     1      84.653  55.652  45.654  0.00  0.00    -0.491 OA
ATOM     23  C   UNL     1      85.433  56.579  46.400  0.00  0.00    +0.079 C 
ENDBRANCH   6  22
BRANCH   7  24
ATOM     24  O   UNL     1      88.095  53.789  42.287  0.00  0.00    -0.504 OA
ATOM     25  H   UNL     1      87.698  54.635  42.216  0.00  0.00    +0.000 HD
ENDBRANCH   7  24
BRANCH  11  26
ATOM     26  O   UNL     1      84.135  49.418  44.988  0.00  0.00    -0.491 OA
ATOM     27  C   UNL     1      82.865  49.365  44.341  0.00  0.00    +0.079 C 
ENDBRANCH  11  26
BRANCH  12  28
ATOM     28  O   UNL     1      85.303  46.848  44.615  0.00  0.00    -0.491 OA
ATOM     29  C   UNL     1      85.678  45.504  44.329  0.00  0.00    +0.079 C 
ENDBRANCH  12  28
TORSDOF 5
ENDMDL
MODEL 3
REMARK VINA RESULT:    -7.865      5.109      7.800
REMARK INTER + INTRA:         -10.200
REMARK INTER:                  -9.826
REMARK INTRA:                  -0.374
REMARK UNBOUND:                -0.267
REMARK  Name = 
REMARK  9 active torsions:
REMARK  status: ('A' for Active; 'I' for Inactive)
REMARK    1  A    between atoms: C_1  and  O_2
REMARK    2  A    between atoms: O_2  and  C_3
REMARK    3  A    between atoms: C_8  and  O_9
REMARK    4  A    between atoms: O_9  and  C_10
REMARK    5  A    between atoms: C_11  and  O_12
REMARK    6  A    between atoms: C_16  and  O_17
REMARK    7  A    between atoms: O_17  and  C_18
REMARK    8  A    between atoms: C_19  and  O_20
REMARK    9  A    between atoms: O_20  and  C_21
REMARK                            x       y       z     vdW  Elec       q    Type
REMARK                         _______ _______ _______ _____ _____    ______ ____
ROOT
ATOM      1  C   UNL     1      88.601  51.098  42.180  0.00  0.00    +0.162 A 
ATOM      2  C   UNL     1      88.006  52.271  42.672  0.00  0.00    -0.008 A 
ATOM      3  C   UNL     1      87.391  52.314  43.946  0.00  0.00    +0.001 A 
ATOM      4  C   UNL     1      87.574  51.197  44.809  0.00  0.00    +0.030 A 
ATOM      5  C   UNL     1      88.124  50.007  44.283  0.00  0.00    -0.005 A 
ATOM      6  C   UNL     1      88.627  49.952  42.974  0.00  0.00    +0.162 A 
ATOM      7  C   UNL     1      87.220  51.294  46.177  0.00  0.00    +0.147 A 
ATOM      8  C   UNL     1      86.562  52.442  46.657  0.00  0.00    +0.091 A 
ATOM      9  C   UNL     1      86.382  53.551  45.802  0.00  0.00    +0.019 A 
ATOM     10  C   UNL     1      86.690  53.468  44.420  0.00  0.00    +0.038 A 
ATOM     11  C   UNL     1      86.217  54.511  43.565  0.00  0.00    +0.170 A 
ATOM     12  C   UNL     1      85.774  55.733  44.125  0.00  0.00    +0.163 A 
ATOM     13  C   UNL     1      85.643  55.847  45.515  0.00  0.00    -0.008 A 
ATOM     14  C   UNL     1      85.896  54.757  46.345  0.00  0.00    -0.011 A 
ATOM     15  C   UNL     1      85.699  54.893  47.799  0.00  0.00    -0.039 C 
ATOM     16  C   UNL     1      85.816  53.831  48.591  0.00  0.00    +0.005 C 
ATOM     17  N   UNL     1      86.095  52.534  48.032  0.00  0.00    -0.246 N 
ATOM     18  C   UNL     1      85.642  51.376  48.756  0.00  0.00    +0.211 C 
ATOM     19  O   UNL     1      85.462  51.423  50.003  0.00  0.00    -0.279 OA
ENDROOT
BRANCH   1  21
ATOM     20  C   UNL     1      88.885  51.920  39.828  0.00  0.00    +0.079 C 
ATOM     21  O   UNL     1      89.181  51.031  40.901  0.00  0.00    -0.491 OA
ENDBRANCH   1  21
BRANCH   6  22
ATOM     22  O   UNL     1      89.185  48.781  42.435  0.00  0.00    -0.491 OA
ATOM     23  C   UNL     1      90.470  48.267  42.765  0.00  0.00    +0.079 C 
ENDBRANCH   6  22
BRANCH   7  24
ATOM     24  O   UNL     1      87.586  50.307  47.101  0.00  0.00    -0.504 OA
ATOM     25  H   UNL     1      87.239  49.441  47.024  0.00  0.00    +0.000 HD
ENDBRANCH   7  24
BRANCH  11  26
ATOM     26  O   UNL     1      86.131  54.274  42.179  0.00  0.00    -0.491 OA
ATOM     27  C   UNL     1      84.955  53.905  41.461  0.00  0.00    +0.079 C 
ENDBRANCH  11  26
BRANCH  12  28
ATOM     28  O   UNL     1      85.486  56.819  43.282  0.00  0.00    -0.491 OA
ATOM     29  C   UNL     1      85.388  58.176  43.702  0.00  0.00    +0.079 C 
ENDBRANCH  12  28
TORSDOF 5
ENDMDL
MODEL 4
REMARK VINA RESULT:    -7.859      2.115      5.572
REMARK INTER + INTRA:         -10.193
REMARK INTER:                  -9.848
REMARK INTRA:                  -0.345
REMARK UNBOUND:                -0.267
REMARK  Name = 
REMARK  9 active torsions:
REMARK  status: ('A' for Active; 'I' for Inactive)
REMARK    1  A    between atoms: C_1  and  O_2
REMARK    2  A    between atoms: O_2  and  C_3
REMARK    3  A    between atoms: C_8  and  O_9
REMARK    4  A    between atoms: O_9  and  C_10
REMARK    5  A    between atoms: C_11  and  O_12
REMARK    6  A    between atoms: C_16  and  O_17
REMARK    7  A    between atoms: O_17  and  C_18
REMARK    8  A    between atoms: C_19  and  O_20
REMARK    9  A    between atoms: O_20  and  C_21
REMARK                            x       y       z     vdW  Elec       q    Type
REMARK                         _______ _______ _______ _____ _____    ______ ____
ROOT
ATOM      1  C   UNL     1      84.949  52.450  45.664  0.00  0.00    +0.162 A 
ATOM      2  C   UNL     1      84.447  51.191  45.297  0.00  0.00    -0.008 A 
ATOM      3  C   UNL     1      85.225  50.269  44.557  0.00  0.00    +0.001 A 
ATOM      4  C   UNL     1      86.606  50.562  44.374  0.00  0.00    +0.030 A 
ATOM      5  C   UNL     1      87.082  51.851  44.699  0.00  0.00    -0.005 A 
ATOM      6  C   UNL     1      86.258  52.795  45.332  0.00  0.00    +0.162 A 
ATOM      7  C   UNL     1      87.483  49.562  43.887  0.00  0.00    +0.147 A 
ATOM      8  C   UNL     1      86.973  48.324  43.454  0.00  0.00    +0.091 A 
ATOM      9  C   UNL     1      85.604  48.031  43.637  0.00  0.00    +0.019 A 
ATOM     10  C   UNL     1      84.696  49.026  44.085  0.00  0.00    +0.038 A 
ATOM     11  C   UNL     1      83.298  48.755  43.969  0.00  0.00    +0.170 A 
ATOM     12  C   UNL     1      82.853  47.429  43.751  0.00  0.00    +0.163 A 
ATOM     13  C   UNL     1      83.791  46.424  43.480  0.00  0.00    -0.008 A 
ATOM     14  C   UNL     1      85.147  46.725  43.376  0.00  0.00    -0.011 A 
ATOM     15  C   UNL     1      86.102  45.654  43.039  0.00  0.00    -0.039 C 
ATOM     16  C   UNL     1      87.380  45.947  42.814  0.00  0.00    +0.005 C 
ATOM     17  N   UNL     1      87.832  47.313  42.857  0.00  0.00    -0.246 N 
ATOM     18  C   UNL     1      88.982  47.667  42.067  0.00  0.00    +0.211 C 
ATOM     19  O   UNL     1      89.842  46.801  41.752  0.00  0.00    -0.279 OA
ENDROOT
BRANCH   1  21
ATOM     20  C   UNL     1      84.011  53.417  47.779  0.00  0.00    +0.079 C 
ATOM     21  O   UNL     1      84.173  53.390  46.364  0.00  0.00    -0.491 OA
ENDBRANCH   1  21
BRANCH   6  22
ATOM     22  O   UNL     1      86.714  54.080  45.670  0.00  0.00    -0.491 OA
ATOM     23  C   UNL     1      86.499  55.249  44.889  0.00  0.00    +0.079 C 
ENDBRANCH   6  22
BRANCH   7  24
ATOM     24  O   UNL     1      88.873  49.735  43.905  0.00  0.00    -0.504 OA
ATOM     25  H   UNL     1      89.276  50.221  44.597  0.00  0.00    +0.000 HD
ENDBRANCH   7  24
BRANCH  11  26
ATOM     26  O   UNL     1      82.388  49.830  44.000  0.00  0.00    -0.491 OA
ATOM     27  C   UNL     1      81.775  50.446  42.869  0.00  0.00    +0.079 C 
ENDBRANCH  11  26
BRANCH  12  28
ATOM     28  O   UNL     1      81.482  47.136  43.823  0.00  0.00    -0.491 OA
ATOM     29  C   UNL     1      80.825  46.565  44.950  0.00  0.00    +0.079 C 
ENDBRANCH  12  28
TORSDOF 5
ENDMDL
MODEL 5
REMARK VINA RESULT:    -7.857      1.657      5.023
REMARK INTER + INTRA:         -10.191
REMARK INTER:                 -10.165
REMARK INTRA:                  -0.026
REMARK UNBOUND:                -0.267
REMARK  Name = 
REMARK  9 active torsions:
REMARK  status: ('A' for Active; 'I' for Inactive)
REMARK    1  A    between atoms: C_1  and  O_2
REMARK    2  A    between atoms: O_2  and  C_3
REMARK    3  A    between atoms: C_8  and  O_9
REMARK    4  A    between atoms: O_9  and  C_10
REMARK    5  A    between atoms: C_11  and  O_12
REMARK    6  A    between atoms: C_16  and  O_17
REMARK    7  A    between atoms: O_17  and  C_18
REMARK    8  A    between atoms: C_19  and  O_20
REMARK    9  A    between atoms: O_20  and  C_21
REMARK                            x       y       z     vdW  Elec       q    Type
REMARK                         _______ _______ _______ _____ _____    ______ ____
ROOT
ATOM      1  C   UNL     1      83.340  48.234  44.138  0.00  0.00    +0.162 A 
ATOM      2  C   UNL     1      84.514  47.502  43.897  0.00  0.00    -0.008 A 
ATOM      3  C   UNL     1      85.673  48.114  43.361  0.00  0.00    +0.001 A 
ATOM      4  C   UNL     1      85.691  49.534  43.270  0.00  0.00    +0.030 A 
ATOM      5  C   UNL     1      84.489  50.249  43.463  0.00  0.00    -0.005 A 
ATOM      6  C   UNL     1      83.316  49.604  43.886  0.00  0.00    +0.162 A 
ATOM      7  C   UNL     1      86.907  50.210  43.004  0.00  0.00    +0.147 A 
ATOM      8  C   UNL     1      88.070  49.479  42.694  0.00  0.00    +0.091 A 
ATOM      9  C   UNL     1      88.053  48.071  42.787  0.00  0.00    +0.019 A 
ATOM     10  C   UNL     1      86.842  47.366  43.012  0.00  0.00    +0.038 A 
ATOM     11  C   UNL     1      86.842  45.952  42.805  0.00  0.00    +0.170 A 
ATOM     12  C   UNL     1      88.071  45.253  42.725  0.00  0.00    +0.163 A 
ATOM     13  C   UNL     1      89.272  45.973  42.678  0.00  0.00    -0.008 A 
ATOM     14  C   UNL     1      89.265  47.366  42.661  0.00  0.00    -0.011 A 
ATOM     15  C   UNL     1      90.544  48.094  42.559  0.00  0.00    -0.039 C 
ATOM     16  C   UNL     1      90.548  49.416  42.417  0.00  0.00    +0.005 C 
ATOM     17  N   UNL     1      89.309  50.142  42.319  0.00  0.00    -0.246 N 
ATOM     18  C   UNL     1      89.313  51.388  41.599  0.00  0.00    +0.211 C 
ATOM     19  O   UNL     1      90.370  52.064  41.483  0.00  0.00    -0.279 OA
ENDROOT
BRANCH   1  21
ATOM     20  C   UNL     1      81.673  46.362  44.217  0.00  0.00    +0.079 C 
ATOM     21  O   UNL     1      82.170  47.631  44.632  0.00  0.00    -0.491 OA
ENDBRANCH   1  21
BRANCH   6  22
ATOM     22  O   UNL     1      82.112  50.299  44.091  0.00  0.00    -0.491 OA
ATOM     23  C   UNL     1      81.204  50.670  43.060  0.00  0.00    +0.079 C 
ENDBRANCH   6  22
BRANCH   7  24
ATOM     24  O   UNL     1      87.014  51.601  43.127  0.00  0.00    -0.504 OA
ATOM     25  H   UNL     1      86.992  52.142  42.362  0.00  0.00    +0.000 HD
ENDBRANCH   7  24
BRANCH  11  26
ATOM     26  O   UNL     1      85.615  45.289  42.608  0.00  0.00    -0.491 OA
ATOM     27  C   UNL     1      85.022  44.339  43.492  0.00  0.00    +0.079 C 
ENDBRANCH  11  26
BRANCH  12  28
ATOM     28  O   UNL     1      88.070  43.849  42.707  0.00  0.00    -0.491 OA
ATOM     29  C   UNL     1      88.421  43.017  43.809  0.00  0.00    +0.079 C 
ENDBRANCH  12  28
TORSDOF 5
ENDMDL
MODEL 6
REMARK VINA RESULT:    -7.839      3.014      6.950
REMARK INTER + INTRA:         -10.167
REMARK INTER:                  -9.795
REMARK INTRA:                  -0.373
REMARK UNBOUND:                -0.267
REMARK  Name = 
REMARK  9 active torsions:
REMARK  status: ('A' for Active; 'I' for Inactive)
REMARK    1  A    between atoms: C_1  and  O_2
REMARK    2  A    between atoms: O_2  and  C_3
REMARK    3  A    between atoms: C_8  and  O_9
REMARK    4  A    between atoms: O_9  and  C_10
REMARK    5  A    between atoms: C_11  and  O_12
REMARK    6  A    between atoms: C_16  and  O_17
REMARK    7  A    between atoms: O_17  and  C_18
REMARK    8  A    between atoms: C_19  and  O_20
REMARK    9  A    between atoms: O_20  and  C_21
REMARK                            x       y       z     vdW  Elec       q    Type
REMARK                         _______ _______ _______ _____ _____    ______ ____
ROOT
ATOM      1  C   UNL     1      84.086  52.108  42.057  0.00  0.00    +0.162 A 
ATOM      2  C   UNL     1      84.044  50.762  42.456  0.00  0.00    -0.008 A 
ATOM      3  C   UNL     1      82.906  50.212  43.094  0.00  0.00    +0.001 A 
ATOM      4  C   UNL     1      81.722  51.000  43.132  0.00  0.00    +0.030 A 
ATOM      5  C   UNL     1      81.794  52.365  42.778  0.00  0.00    -0.005 A 
ATOM      6  C   UNL     1      82.971  52.921  42.252  0.00  0.00    +0.162 A 
ATOM      7  C   UNL     1      80.490  50.409  43.506  0.00  0.00    +0.147 A 
ATOM      8  C   UNL     1      80.456  49.081  43.971  0.00  0.00    +0.091 A 
ATOM      9  C   UNL     1      81.630  48.298  43.932  0.00  0.00    +0.019 A 
ATOM     10  C   UNL     1      82.883  48.874  43.600  0.00  0.00    +0.038 A 
ATOM     11  C   UNL     1      84.062  48.108  43.861  0.00  0.00    +0.170 A 
ATOM     12  C   UNL     1      83.957  46.718  44.105  0.00  0.00    +0.163 A 
ATOM     13  C   UNL     1      82.691  46.138  44.257  0.00  0.00    -0.008 A 
ATOM     14  C   UNL     1      81.540  46.922  44.219  0.00  0.00    -0.011 A 
ATOM     15  C   UNL     1      80.226  46.290  44.435  0.00  0.00    -0.039 C 
ATOM     16  C   UNL     1      79.131  47.040  44.526  0.00  0.00    +0.005 C 
ATOM     17  N   UNL     1      79.225  48.475  44.457  0.00  0.00    -0.246 N 
ATOM     18  C   UNL     1      78.213  49.249  45.123  0.00  0.00    +0.211 C 
ATOM     19  O   UNL     1      77.065  48.771  45.331  0.00  0.00    -0.279 OA
ENDROOT
BRANCH   1  21
ATOM     20  C   UNL     1      86.449  52.944  42.136  0.00  0.00    +0.079 C 
ATOM     21  O   UNL     1      85.225  52.676  41.459  0.00  0.00    -0.491 OA
ENDBRANCH   1  21
BRANCH   6  22
ATOM     22  O   UNL     1      83.062  54.275  41.887  0.00  0.00    -0.491 OA
ATOM     23  C   UNL     1      83.527  55.315  42.739  0.00  0.00    +0.079 C 
ENDBRANCH   6  22
BRANCH   7  24
ATOM     24  O   UNL     1      79.273  51.084  43.342  0.00  0.00    -0.504 OA
ATOM     25  H   UNL     1      78.954  51.271  42.481  0.00  0.00    +0.000 HD
ENDBRANCH   7  24
BRANCH  11  26
ATOM     26  O   UNL     1      85.303  48.769  43.945  0.00  0.00    -0.491 OA
ATOM     27  C   UNL     1      85.979  49.140  45.145  0.00  0.00    +0.079 C 
ENDBRANCH  11  26
BRANCH  12  28
ATOM     28  O   UNL     1      85.122  45.936  44.176  0.00  0.00    -0.491 OA
ATOM     29  C   UNL     1      85.149  44.514  44.250  0.00  0.00    +0.079 C 
ENDBRANCH  12  28
TORSDOF 5
ENDMDL
MODEL 7
REMARK VINA RESULT:    -7.810      4.595      7.102
REMARK INTER + INTRA:         -10.131
REMARK INTER:                  -9.864
REMARK INTRA:                  -0.267
REMARK UNBOUND:                -0.267
REMARK  Name = 
REMARK  9 active torsions:
REMARK  status: ('A' for Active; 'I' for Inactive)
REMARK    1  A    between atoms: C_1  and  O_2
REMARK    2  A    between atoms: O_2  and  C_3
REMARK    3  A    between atoms: C_8  and  O_9
REMARK    4  A    between atoms: O_9  and  C_10
REMARK    5  A    between atoms: C_11  and  O_12
REMARK    6  A    between atoms: C_16  and  O_17
REMARK    7  A    between atoms: O_17  and  C_18
REMARK    8  A    between atoms: C_19  and  O_20
REMARK    9  A    between atoms: O_20  and  C_21
REMARK                            x       y       z     vdW  Elec       q    Type
REMARK                         _______ _______ _______ _____ _____    ______ ____
ROOT
ATOM      1  C   UNL     1      85.796  53.022  47.273  0.00  0.00    +0.162 A 
ATOM      2  C   UNL     1      86.576  52.334  46.329  0.00  0.00    -0.008 A 
ATOM      3  C   UNL     1      86.359  52.483  44.938  0.00  0.00    +0.001 A 
ATOM      4  C   UNL     1      85.471  53.509  44.511  0.00  0.00    +0.030 A 
ATOM      5  C   UNL     1      84.655  54.153  45.467  0.00  0.00    -0.005 A 
ATOM      6  C   UNL     1      84.808  53.906  46.840  0.00  0.00    +0.162 A 
ATOM      7  C   UNL     1      85.425  53.883  43.145  0.00  0.00    +0.147 A 
ATOM      8  C   UNL     1      86.153  53.151  42.187  0.00  0.00    +0.091 A 
ATOM      9  C   UNL     1      87.036  52.135  42.610  0.00  0.00    +0.019 A 
ATOM     10  C   UNL     1      87.073  51.714  43.965  0.00  0.00    +0.038 A 
ATOM     11  C   UNL     1      87.763  50.500  44.270  0.00  0.00    +0.170 A 
ATOM     12  C   UNL     1      88.657  49.943  43.325  0.00  0.00    +0.163 A 
ATOM     13  C   UNL     1      88.729  50.491  42.037  0.00  0.00    -0.008 A 
ATOM     14  C   UNL     1      87.896  51.543  41.665  0.00  0.00    -0.011 A 
ATOM     15  C   UNL     1      87.959  52.063  40.287  0.00  0.00    -0.039 C 
ATOM     16  C   UNL     1      87.087  52.982  39.880  0.00  0.00    +0.005 C 
ATOM     17  N   UNL     1      86.051  53.445  40.766  0.00  0.00    -0.246 N 
ATOM     18  C   UNL     1      84.831  53.932  40.179  0.00  0.00    +0.211 C 
ATOM     19  O   UNL     1      84.818  54.399  39.008  0.00  0.00    -0.279 OA
ENDROOT
BRANCH   1  21
ATOM     20  C   UNL     1      86.144  51.597  49.306  0.00  0.00    +0.079 C 
ATOM     21  O   UNL     1      85.974  52.853  48.657  0.00  0.00    -0.491 OA
ENDBRANCH   1  21
BRANCH   6  22
ATOM     22  O   UNL     1      84.012  54.540  47.809  0.00  0.00    -0.491 OA
ATOM     23  C   UNL     1      83.784  55.943  47.879  0.00  0.00    +0.079 C 
ENDBRANCH   6  22
BRANCH   7  24
ATOM     24  O   UNL     1      84.738  55.027  42.720  0.00  0.00    -0.504 OA
ATOM     25  H   UNL     1      84.228  55.003  41.935  0.00  0.00    +0.000 HD
ENDBRANCH   7  24
BRANCH  11  26
ATOM     26  O   UNL     1      87.482  49.838  45.481  0.00  0.00    -0.491 OA
ATOM     27  C   UNL     1      86.393  48.948  45.720  0.00  0.00    +0.079 C 
ENDBRANCH  11  26
BRANCH  12  28
ATOM     28  O   UNL     1      89.471  48.859  43.694  0.00  0.00    -0.491 OA
ATOM     29  C   UNL     1      90.834  48.694  43.317  0.00  0.00    +0.079 C 
ENDBRANCH  12  28
TORSDOF 5
ENDMDL
MODEL 8
REMARK VINA RESULT:    -7.751      3.031      5.851
REMARK INTER + INTRA:         -10.057
REMARK INTER:                  -9.773
REMARK INTRA:                  -0.283
REMARK UNBOUND:                -0.267
REMARK  Name = 
REMARK  9 active torsions:
REMARK  status: ('A' for Active; 'I' for Inactive)
REMARK    1  A    between atoms: C_1  and  O_2
REMARK    2  A    between atoms: O_2  and  C_3
REMARK    3  A    between atoms: C_8  and  O_9
REMARK    4  A    between atoms: O_9  and  C_10
REMARK    5  A    between atoms: C_11  and  O_12
REMARK    6  A    between atoms: C_16  and  O_17
REMARK    7  A    between atoms: O_17  and  C_18
REMARK    8  A    between atoms: C_19  and  O_20
REMARK    9  A    between atoms: O_20  and  C_21
REMARK                            x       y       z     vdW  Elec       q    Type
REMARK                         _______ _______ _______ _____ _____    ______ ____
ROOT
ATOM      1  C   UNL     1      81.989  48.582  44.279  0.00  0.00    +0.162 A 
ATOM      2  C   UNL     1      83.350  48.929  44.299  0.00  0.00    -0.008 A 
ATOM      3  C   UNL     1      83.827  50.100  43.661  0.00  0.00    +0.001 A 
ATOM      4  C   UNL     1      82.865  51.031  43.178  0.00  0.00    +0.030 A 
ATOM      5  C   UNL     1      81.508  50.645  43.116  0.00  0.00    -0.005 A 
ATOM      6  C   UNL     1      81.071  49.424  43.654  0.00  0.00    +0.162 A 
ATOM      7  C   UNL     1      83.272  52.329  42.783  0.00  0.00    +0.147 A 
ATOM      8  C   UNL     1      84.641  52.657  42.737  0.00  0.00    +0.091 A 
ATOM      9  C   UNL     1      85.595  51.735  43.218  0.00  0.00    +0.019 A 
ATOM     10  C   UNL     1      85.220  50.415  43.582  0.00  0.00    +0.038 A 
ATOM     11  C   UNL     1      86.260  49.454  43.777  0.00  0.00    +0.170 A 
ATOM     12  C   UNL     1      87.597  49.889  43.945  0.00  0.00    +0.163 A 
ATOM     13  C   UNL     1      87.913  51.240  43.748  0.00  0.00    -0.008 A 
ATOM     14  C   UNL     1      86.936  52.146  43.343  0.00  0.00    -0.011 A 
ATOM     15  C   UNL     1      87.311  53.550  43.094  0.00  0.00    -0.039 C 
ATOM     16  C   UNL     1      86.420  54.399  42.588  0.00  0.00    +0.005 C 
ATOM     17  N   UNL     1      85.098  53.946  42.242  0.00  0.00    -0.246 N 
ATOM     18  C   UNL     1      84.395  54.651  41.204  0.00  0.00    +0.211 C 
ATOM     19  O   UNL     1      84.660  55.856  40.947  0.00  0.00    -0.279 OA
ENDROOT
BRANCH   1  21
ATOM     20  C   UNL     1      81.571  46.110  44.280  0.00  0.00    +0.079 C 
ATOM     21  O   UNL     1      81.509  47.403  44.874  0.00  0.00    -0.491 OA
ENDBRANCH   1  21
BRANCH   6  22
ATOM     22  O   UNL     1      79.725  49.024  43.608  0.00  0.00    -0.491 OA
ATOM     23  C   UNL     1      78.724  49.436  44.532  0.00  0.00    +0.079 C 
ENDBRANCH   6  22
BRANCH   7  24
ATOM     24  O   UNL     1      82.340  53.340  42.517  0.00  0.00    -0.504 OA
ATOM     25  H   UNL     1      82.324  54.113  43.046  0.00  0.00    +0.000 HD
ENDBRANCH   7  24
BRANCH  11  26
ATOM     26  O   UNL     1      85.943  48.083  43.725  0.00  0.00    -0.491 OA
ATOM     27  C   UNL     1      86.448  47.139  42.781  0.00  0.00    +0.079 C 
ENDBRANCH  11  26
BRANCH  12  28
ATOM     28  O   UNL     1      88.585  48.964  44.320  0.00  0.00    -0.491 OA
ATOM     29  C   UNL     1      89.811  48.751  43.628  0.00  0.00    +0.079 C 
ENDBRANCH  12  28
TORSDOF 5
ENDMDL
MODEL 9
REMARK VINA RESULT:    -7.731      4.431      8.724
REMARK INTER + INTRA:         -10.031
REMARK INTER:                  -9.650
REMARK INTRA:                  -0.381
REMARK UNBOUND:                -0.267
REMARK  Name = 
REMARK  9 active torsions:
REMARK  status: ('A' for Active; 'I' for Inactive)
REMARK    1  A    between atoms: C_1  and  O_2
REMARK    2  A    between atoms: O_2  and  C_3
REMARK    3  A    between atoms: C_8  and  O_9
REMARK    4  A    between atoms: O_9  and  C_10
REMARK    5  A    between atoms: C_11  and  O_12
REMARK    6  A    between atoms: C_16  and  O_17
REMARK    7  A    between atoms: O_17  and  C_18
REMARK    8  A    between atoms: C_19  and  O_20
REMARK    9  A    between atoms: O_20  and  C_21
REMARK                            x       y       z     vdW  Elec       q    Type
REMARK                         _______ _______ _______ _____ _____    ______ ____
ROOT
ATOM      1  C   UNL     1      86.453  50.289  43.551  0.00  0.00    +0.162 A 
ATOM      2  C   UNL     1      85.981  50.879  44.734  0.00  0.00    -0.008 A 
ATOM      3  C   UNL     1      85.962  52.284  44.907  0.00  0.00    +0.001 A 
ATOM      4  C   UNL     1      86.237  53.096  43.771  0.00  0.00    +0.030 A 
ATOM      5  C   UNL     1      86.762  52.492  42.608  0.00  0.00    -0.005 A 
ATOM      6  C   UNL     1      86.880  51.098  42.499  0.00  0.00    +0.162 A 
ATOM      7  C   UNL     1      85.968  54.486  43.813  0.00  0.00    +0.147 A 
ATOM      8  C   UNL     1      85.559  55.091  45.017  0.00  0.00    +0.091 A 
ATOM      9  C   UNL     1      85.285  54.286  46.144  0.00  0.00    +0.019 A 
ATOM     10  C   UNL     1      85.582  52.898  46.142  0.00  0.00    +0.038 A 
ATOM     11  C   UNL     1      85.557  52.207  47.393  0.00  0.00    +0.170 A 
ATOM     12  C   UNL     1      84.923  52.801  48.511  0.00  0.00    +0.163 A 
ATOM     13  C   UNL     1      84.479  54.127  48.429  0.00  0.00    -0.008 A 
ATOM     14  C   UNL     1      84.698  54.880  47.277  0.00  0.00    -0.011 A 
ATOM     15  C   UNL     1      84.264  56.288  47.241  0.00  0.00    -0.039 C 
ATOM     16  C   UNL     1      84.575  57.055  46.199  0.00  0.00    +0.005 C 
ATOM     17  N   UNL     1      85.371  56.530  45.121  0.00  0.00    -0.246 N 
ATOM     18  C   UNL     1      86.168  57.454  44.359  0.00  0.00    +0.211 C 
ATOM     19  O   UNL     1      85.848  58.671  44.279  0.00  0.00    -0.279 OA
ENDROOT
BRANCH   1  21
ATOM     20  C   UNL     1      85.896  47.944  44.243  0.00  0.00    +0.079 C 
ATOM     21  O   UNL     1      86.514  48.895  43.381  0.00  0.00    -0.491 OA
ENDBRANCH   1  21
BRANCH   6  22
ATOM     22  O   UNL     1      87.393  50.477  41.347  0.00  0.00    -0.491 OA
ATOM     23  C   UNL     1      88.748  50.554  40.920  0.00  0.00    +0.079 C 
ENDBRANCH   6  22
BRANCH   7  24
ATOM     24  O   UNL     1      86.011  55.276  42.657  0.00  0.00    -0.504 OA
ATOM     25  H   UNL     1      85.835  56.195  42.711  0.00  0.00    +0.000 HD
ENDBRANCH   7  24
BRANCH  11  26
ATOM     26  O   UNL     1      86.231  50.976  47.509  0.00  0.00    -0.491 OA
ATOM     27  C   UNL     1      87.510  50.771  48.104  0.00  0.00    +0.079 C 
ENDBRANCH  11  26
BRANCH  12  28
ATOM     28  O   UNL     1      84.735  52.048  49.683  0.00  0.00    -0.491 OA
ATOM     29  C   UNL     1      83.480  51.817  50.313  0.00  0.00    +0.079 C 
ENDBRANCH  12  28
TORSDOF 5
ENDMDL
