MODEL 1
REMARK VINA RESULT:    -9.118      0.000      0.000
REMARK INTER + INTRA:          -9.776
REMARK INTER:                  -9.653
REMARK INTRA:                  -0.123
REMARK UNBOUND:                -0.124
REMARK  Name = 
REMARK  2 active torsions:
REMARK  status: ('A' for Active; 'I' for Inactive)
REMARK    1  A    between atoms: C_1  and  O_2
REMARK    2  A    between atoms: O_2  and  C_3
REMARK                            x       y       z     vdW  Elec       q    Type
REMARK                         _______ _______ _______ _____ _____    ______ ____
ROOT
ATOM      1  C   UNL     1      85.082  54.600  43.130  0.00  0.00    +0.123 C 
ATOM      2  C   UNL     1      85.081  55.335  44.437  0.00  0.00    +0.167 C 
ATOM      3  O   UNL     1      85.314  56.534  44.496  0.00  0.00    -0.294 OA
ATOM      4  C   UNL     1      84.737  54.562  45.671  0.00  0.00    +0.034 C 
ATOM      5  C   UNL     1      85.589  53.326  45.755  0.00  0.00    -0.032 A 
ATOM      6  C   UNL     1      86.237  52.784  44.601  0.00  0.00    -0.026 A 
ATOM      7  C   UNL     1      86.022  53.353  43.198  0.00  0.00    +0.022 C 
ATOM      8  C   UNL     1      87.404  53.561  42.541  0.00  0.00    -0.017 C 
ATOM      9  C   UNL     1      88.158  52.248  42.515  0.00  0.00    -0.039 A 
ATOM     10  C   UNL     1      89.004  51.945  41.438  0.00  0.00    -0.058 A 
ATOM     11  C   UNL     1      89.667  50.719  41.387  0.00  0.00    -0.061 A 
ATOM     12  C   UNL     1      89.487  49.783  42.406  0.00  0.00    -0.061 A 
ATOM     13  C   UNL     1      88.662  50.079  43.495  0.00  0.00    -0.054 A 
ATOM     14  C   UNL     1      88.012  51.326  43.581  0.00  0.00    -0.011 A 
ATOM     15  C   UNL     1      87.162  51.712  44.746  0.00  0.00    +0.032 A 
ATOM     16  C   UNL     1      87.330  51.174  46.031  0.00  0.00    +0.174 A 
ATOM     17  C   UNL     1      86.648  51.649  47.106  0.00  0.00    +0.167 A 
ATOM     18  C   UNL     1      85.771  52.719  47.013  0.00  0.00    -0.012 A 
ATOM     19  O   UNL     1      87.018  50.952  48.241  0.00  0.00    -0.453 OA
ATOM     20  C   UNL     1      88.004  49.986  47.865  0.00  0.00    +0.233 C 
ATOM     21  O   UNL     1      88.182  50.169  46.457  0.00  0.00    -0.452 OA
ENDROOT
BRANCH   1  23
ATOM     22  C   UNL     1      84.482  55.456  41.051  0.00  0.00    +0.037 C 
ATOM     23  O   UNL     1      85.445  55.486  42.082  0.00  0.00    -0.372 OA
ENDBRANCH   1  23
TORSDOF 1
ENDMDL
MODEL 2
REMARK VINA RESULT:    -8.974      2.865      6.059
REMARK INTER + INTRA:          -9.623
REMARK INTER:                  -9.555
REMARK INTRA:                  -0.068
REMARK UNBOUND:                -0.124
REMARK  Name = 
REMARK  2 active torsions:
REMARK  status: ('A' for Active; 'I' for Inactive)
REMARK    1  A    between atoms: C_1  and  O_2
REMARK    2  A    between atoms: O_2  and  C_3
REMARK                            x       y       z     vdW  Elec       q    Type
REMARK                         _______ _______ _______ _____ _____    ______ ____
ROOT
ATOM      1  C   UNL     1      84.556  51.583  42.958  0.00  0.00    +0.123 C 
ATOM      2  C   UNL     1      85.269  52.228  41.808  0.00  0.00    +0.167 C 
ATOM      3  O   UNL     1      86.144  51.639  41.188  0.00  0.00    -0.294 OA
ATOM      4  C   UNL     1      84.844  53.605  41.408  0.00  0.00    +0.034 C 
ATOM      5  C   UNL     1      84.842  54.510  42.609  0.00  0.00    -0.032 A 
ATOM      6  C   UNL     1      84.785  53.987  43.939  0.00  0.00    -0.026 A 
ATOM      7  C   UNL     1      84.614  52.495  44.226  0.00  0.00    +0.022 C 
ATOM      8  C   UNL     1      85.676  52.075  45.265  0.00  0.00    -0.017 C 
ATOM      9  C   UNL     1      85.528  52.918  46.514  0.00  0.00    -0.039 A 
ATOM     10  C   UNL     1      85.780  52.355  47.775  0.00  0.00    -0.058 A 
ATOM     11  C   UNL     1      85.604  53.115  48.932  0.00  0.00    -0.061 A 
ATOM     12  C   UNL     1      85.167  54.436  48.842  0.00  0.00    -0.061 A 
ATOM     13  C   UNL     1      84.930  55.015  47.592  0.00  0.00    -0.054 A 
ATOM     14  C   UNL     1      85.137  54.275  46.411  0.00  0.00    -0.011 A 
ATOM     15  C   UNL     1      84.948  54.861  45.051  0.00  0.00    +0.032 A 
ATOM     16  C   UNL     1      85.073  56.233  44.781  0.00  0.00    +0.174 A 
ATOM     17  C   UNL     1      85.046  56.723  43.514  0.00  0.00    +0.167 A 
ATOM     18  C   UNL     1      84.933  55.901  42.404  0.00  0.00    -0.012 A 
ATOM     19  O   UNL     1      85.207  58.096  43.539  0.00  0.00    -0.453 OA
ATOM     20  C   UNL     1      85.358  58.498  44.904  0.00  0.00    +0.233 C 
ATOM     21  O   UNL     1      85.279  57.284  45.658  0.00  0.00    -0.452 OA
ENDROOT
BRANCH   1  23
ATOM     22  C   UNL     1      84.084  49.378  43.535  0.00  0.00    +0.037 C 
ATOM     23  O   UNL     1      85.103  50.295  43.202  0.00  0.00    -0.372 OA
ENDBRANCH   1  23
TORSDOF 1
ENDMDL
MODEL 3
REMARK VINA RESULT:    -8.812      1.961      4.727
REMARK INTER + INTRA:          -9.452
REMARK INTER:                  -9.364
REMARK INTRA:                  -0.088
REMARK UNBOUND:                -0.124
REMARK  Name = 
REMARK  2 active torsions:
REMARK  status: ('A' for Active; 'I' for Inactive)
REMARK    1  A    between atoms: C_1  and  O_2
REMARK    2  A    between atoms: O_2  and  C_3
REMARK                            x       y       z     vdW  Elec       q    Type
REMARK                         _______ _______ _______ _____ _____    ______ ____
ROOT
ATOM      1  C   UNL     1      88.360  51.652  41.239  0.00  0.00    +0.123 C 
ATOM      2  C   UNL     1      88.257  50.228  41.699  0.00  0.00    +0.167 C 
ATOM      3  O   UNL     1      87.878  49.341  40.949  0.00  0.00    -0.294 OA
ATOM      4  C   UNL     1      88.678  49.917  43.100  0.00  0.00    +0.034 C 
ATOM      5  C   UNL     1      87.982  50.839  44.062  0.00  0.00    -0.032 A 
ATOM      6  C   UNL     1      87.419  52.082  43.632  0.00  0.00    -0.026 A 
ATOM      7  C   UNL     1      87.579  52.602  42.203  0.00  0.00    +0.022 C 
ATOM      8  C   UNL     1      86.190  53.034  41.684  0.00  0.00    -0.017 C 
ATOM      9  C   UNL     1      85.602  54.078  42.609  0.00  0.00    -0.039 A 
ATOM     10  C   UNL     1      84.813  55.114  42.088  0.00  0.00    -0.058 A 
ATOM     11  C   UNL     1      84.304  56.103  42.930  0.00  0.00    -0.061 A 
ATOM     12  C   UNL     1      84.586  56.071  44.296  0.00  0.00    -0.061 A 
ATOM     13  C   UNL     1      85.355  55.035  44.832  0.00  0.00    -0.054 A 
ATOM     14  C   UNL     1      85.847  54.008  44.003  0.00  0.00    -0.011 A 
ATOM     15  C   UNL     1      86.629  52.852  44.532  0.00  0.00    +0.032 A 
ATOM     16  C   UNL     1      86.513  52.384  45.850  0.00  0.00    +0.174 A 
ATOM     17  C   UNL     1      87.119  51.241  46.266  0.00  0.00    +0.167 A 
ATOM     18  C   UNL     1      87.860  50.442  45.408  0.00  0.00    -0.012 A 
ATOM     19  O   UNL     1      86.824  51.011  47.596  0.00  0.00    -0.453 OA
ATOM     20  C   UNL     1      85.968  52.064  48.048  0.00  0.00    +0.233 C 
ATOM     21  O   UNL     1      85.786  52.907  46.905  0.00  0.00    -0.452 OA
ENDROOT
BRANCH   1  23
ATOM     22  C   UNL     1      88.748  52.607  39.153  0.00  0.00    +0.037 C 
ATOM     23  O   UNL     1      87.904  51.757  39.899  0.00  0.00    -0.372 OA
ENDBRANCH   1  23
TORSDOF 1
ENDMDL
MODEL 4
REMARK VINA RESULT:    -8.580      5.254      6.677
REMARK INTER + INTRA:          -9.206
REMARK INTER:                  -9.082
REMARK INTRA:                  -0.124
REMARK UNBOUND:                -0.124
REMARK  Name = 
REMARK  2 active torsions:
REMARK  status: ('A' for Active; 'I' for Inactive)
REMARK    1  A    between atoms: C_1  and  O_2
REMARK    2  A    between atoms: O_2  and  C_3
REMARK                            x       y       z     vdW  Elec       q    Type
REMARK                         _______ _______ _______ _____ _____    ______ ____
ROOT
ATOM      1  C   UNL     1      85.269  51.114  44.264  0.00  0.00    +0.123 C 
ATOM      2  C   UNL     1      86.368  51.053  43.246  0.00  0.00    +0.167 C 
ATOM      3  O   UNL     1      86.552  51.963  42.450  0.00  0.00    -0.294 OA
ATOM      4  C   UNL     1      87.268  49.859  43.263  0.00  0.00    +0.034 C 
ATOM      5  C   UNL     1      86.449  48.599  43.238  0.00  0.00    -0.032 A 
ATOM      6  C   UNL     1      85.072  48.594  43.626  0.00  0.00    -0.026 A 
ATOM      7  C   UNL     1      84.377  49.833  44.191  0.00  0.00    +0.022 C 
ATOM      8  C   UNL     1      83.043  50.028  43.436  0.00  0.00    -0.017 C 
ATOM      9  C   UNL     1      82.193  48.783  43.574  0.00  0.00    -0.039 A 
ATOM     10  C   UNL     1      80.797  48.892  43.665  0.00  0.00    -0.058 A 
ATOM     11  C   UNL     1      80.012  47.752  43.835  0.00  0.00    -0.061 A 
ATOM     12  C   UNL     1      80.612  46.496  43.925  0.00  0.00    -0.061 A 
ATOM     13  C   UNL     1      82.000  46.370  43.818  0.00  0.00    -0.054 A 
ATOM     14  C   UNL     1      82.806  47.507  43.609  0.00  0.00    -0.011 A 
ATOM     15  C   UNL     1      84.286  47.422  43.437  0.00  0.00    +0.032 A 
ATOM     16  C   UNL     1      84.939  46.280  42.948  0.00  0.00    +0.174 A 
ATOM     17  C   UNL     1      86.266  46.277  42.657  0.00  0.00    +0.167 A 
ATOM     18  C   UNL     1      87.055  47.410  42.788  0.00  0.00    -0.012 A 
ATOM     19  O   UNL     1      86.640  45.035  42.181  0.00  0.00    -0.453 OA
ATOM     20  C   UNL     1      85.475  44.203  42.155  0.00  0.00    +0.233 C 
ATOM     21  O   UNL     1      84.416  45.036  42.638  0.00  0.00    -0.452 OA
ENDROOT
BRANCH   1  23
ATOM     22  C   UNL     1      84.579  53.111  45.240  0.00  0.00    +0.037 C 
ATOM     23  O   UNL     1      84.513  52.303  44.085  0.00  0.00    -0.372 OA
ENDBRANCH   1  23
TORSDOF 1
ENDMDL
MODEL 5
REMARK VINA RESULT:    -8.567      4.190      5.542
REMARK INTER + INTRA:          -9.192
REMARK INTER:                  -9.076
REMARK INTRA:                  -0.116
REMARK UNBOUND:                -0.124
REMARK  Name = 
REMARK  2 active torsions:
REMARK  status: ('A' for Active; 'I' for Inactive)
REMARK    1  A    between atoms: C_1  and  O_2
REMARK    2  A    between atoms: O_2  and  C_3
REMARK                            x       y       z     vdW  Elec       q    Type
REMARK                         _______ _______ _______ _____ _____    ______ ____
ROOT
ATOM      1  C   UNL     1      84.835  53.266  42.491  0.00  0.00    +0.123 C 
ATOM      2  C   UNL     1      86.050  52.807  41.742  0.00  0.00    +0.167 C 
ATOM      3  O   UNL     1      86.314  53.236  40.628  0.00  0.00    -0.294 OA
ATOM      4  C   UNL     1      86.963  51.837  42.423  0.00  0.00    +0.034 C 
ATOM      5  C   UNL     1      86.174  50.661  42.931  0.00  0.00    -0.032 A 
ATOM      6  C   UNL     1      84.760  50.742  43.136  0.00  0.00    -0.026 A 
ATOM      7  C   UNL     1      83.980  52.045  42.959  0.00  0.00    +0.022 C 
ATOM      8  C   UNL     1      82.745  51.756  42.078  0.00  0.00    -0.017 C 
ATOM      9  C   UNL     1      81.906  50.670  42.716  0.00  0.00    -0.039 A 
ATOM     10  C   UNL     1      80.508  50.706  42.605  0.00  0.00    -0.058 A 
ATOM     11  C   UNL     1      79.727  49.731  43.228  0.00  0.00    -0.061 A 
ATOM     12  C   UNL     1      80.334  48.720  43.973  0.00  0.00    -0.061 A 
ATOM     13  C   UNL     1      81.726  48.661  44.077  0.00  0.00    -0.054 A 
ATOM     14  C   UNL     1      82.532  49.615  43.425  0.00  0.00    -0.011 A 
ATOM     15  C   UNL     1      84.024  49.567  43.461  0.00  0.00    +0.032 A 
ATOM     16  C   UNL     1      84.751  48.382  43.652  0.00  0.00    +0.174 A 
ATOM     17  C   UNL     1      86.103  48.338  43.532  0.00  0.00    +0.167 A 
ATOM     18  C   UNL     1      86.851  49.450  43.174  0.00  0.00    -0.012 A 
ATOM     19  O   UNL     1      86.553  47.051  43.754  0.00  0.00    -0.453 OA
ATOM     20  C   UNL     1      85.414  46.225  44.020  0.00  0.00    +0.233 C 
ATOM     21  O   UNL     1      84.291  47.107  43.933  0.00  0.00    -0.452 OA
ENDROOT
BRANCH   1  23
ATOM     22  C   UNL     1      84.116  55.464  42.234  0.00  0.00    +0.037 C 
ATOM     23  O   UNL     1      84.087  54.165  41.685  0.00  0.00    -0.372 OA
ENDBRANCH   1  23
TORSDOF 1
ENDMDL
MODEL 6
REMARK VINA RESULT:    -8.546      3.891      5.978
REMARK INTER + INTRA:          -9.171
REMARK INTER:                  -9.091
REMARK INTRA:                  -0.079
REMARK UNBOUND:                -0.124
REMARK  Name = 
REMARK  2 active torsions:
REMARK  status: ('A' for Active; 'I' for Inactive)
REMARK    1  A    between atoms: C_1  and  O_2
REMARK    2  A    between atoms: O_2  and  C_3
REMARK                            x       y       z     vdW  Elec       q    Type
REMARK                         _______ _______ _______ _____ _____    ______ ____
ROOT
ATOM      1  C   UNL     1      84.682  46.625  43.693  0.00  0.00    +0.123 C 
ATOM      2  C   UNL     1      83.468  47.359  43.207  0.00  0.00    +0.167 C 
ATOM      3  O   UNL     1      82.683  46.846  42.423  0.00  0.00    -0.294 OA
ATOM      4  C   UNL     1      83.220  48.731  43.750  0.00  0.00    +0.034 C 
ATOM      5  C   UNL     1      84.453  49.576  43.591  0.00  0.00    -0.032 A 
ATOM      6  C   UNL     1      85.744  48.988  43.406  0.00  0.00    -0.026 A 
ATOM      7  C   UNL     1      85.972  47.477  43.465  0.00  0.00    +0.022 C 
ATOM      8  C   UNL     1      86.799  47.062  42.228  0.00  0.00    -0.017 C 
ATOM      9  C   UNL     1      88.101  47.835  42.203  0.00  0.00    -0.039 A 
ATOM     10  C   UNL     1      89.270  47.226  41.723  0.00  0.00    -0.058 A 
ATOM     11  C   UNL     1      90.481  47.919  41.738  0.00  0.00    -0.061 A 
ATOM     12  C   UNL     1      90.536  49.220  42.238  0.00  0.00    -0.061 A 
ATOM     13  C   UNL     1      89.376  49.845  42.703  0.00  0.00    -0.054 A 
ATOM     14  C   UNL     1      88.138  49.174  42.662  0.00  0.00    -0.011 A 
ATOM     15  C   UNL     1      86.862  49.815  43.098  0.00  0.00    +0.032 A 
ATOM     16  C   UNL     1      86.651  51.202  43.076  0.00  0.00    +0.174 A 
ATOM     17  C   UNL     1      85.435  51.751  43.332  0.00  0.00    +0.167 A 
ATOM     18  C   UNL     1      84.314  50.978  43.594  0.00  0.00    -0.012 A 
ATOM     19  O   UNL     1      85.510  53.127  43.228  0.00  0.00    -0.453 OA
ATOM     20  C   UNL     1      86.852  53.470  42.870  0.00  0.00    +0.233 C 
ATOM     21  O   UNL     1      87.540  52.219  42.772  0.00  0.00    -0.452 OA
ENDROOT
BRANCH   1  23
ATOM     22  C   UNL     1      85.172  44.368  43.979  0.00  0.00    +0.037 C 
ATOM     23  O   UNL     1      84.761  45.356  43.060  0.00  0.00    -0.372 OA
ENDBRANCH   1  23
TORSDOF 1
ENDMDL
MODEL 7
REMARK VINA RESULT:    -8.471      2.188      6.518
REMARK INTER + INTRA:          -9.091
REMARK INTER:                  -8.987
REMARK INTRA:                  -0.103
REMARK UNBOUND:                -0.124
REMARK  Name = 
REMARK  2 active torsions:
REMARK  status: ('A' for Active; 'I' for Inactive)
REMARK    1  A    between atoms: C_1  and  O_2
REMARK    2  A    between atoms: O_2  and  C_3
REMARK                            x       y       z     vdW  Elec       q    Type
REMARK                         _______ _______ _______ _____ _____    ______ ____
ROOT
ATOM      1  C   UNL     1      85.922  51.783  46.030  0.00  0.00    +0.123 C 
ATOM      2  C   UNL     1      86.649  50.987  44.988  0.00  0.00    +0.167 C 
ATOM      3  O   UNL     1      87.743  50.489  45.213  0.00  0.00    -0.294 OA
ATOM      4  C   UNL     1      85.971  50.780  43.671  0.00  0.00    +0.034 C 
ATOM      5  C   UNL     1      85.519  52.101  43.113  0.00  0.00    -0.032 A 
ATOM      6  C   UNL     1      85.351  53.248  43.951  0.00  0.00    -0.026 A 
ATOM      7  C   UNL     1      85.512  53.184  45.470  0.00  0.00    +0.022 C 
ATOM      8  C   UNL     1      86.436  54.341  45.909  0.00  0.00    -0.017 C 
ATOM      9  C   UNL     1      85.852  55.661  45.453  0.00  0.00    -0.039 A 
ATOM     10  C   UNL     1      86.001  56.807  46.247  0.00  0.00    -0.058 A 
ATOM     11  C   UNL     1      85.428  58.017  45.852  0.00  0.00    -0.061 A 
ATOM     12  C   UNL     1      84.696  58.089  44.668  0.00  0.00    -0.061 A 
ATOM     13  C   UNL     1      84.555  56.960  43.857  0.00  0.00    -0.054 A 
ATOM     14  C   UNL     1      85.157  55.739  44.221  0.00  0.00    -0.011 A 
ATOM     15  C   UNL     1      85.080  54.518  43.366  0.00  0.00    +0.032 A 
ATOM     16  C   UNL     1      84.902  54.563  41.975  0.00  0.00    +0.174 A 
ATOM     17  C   UNL     1      84.987  53.450  41.201  0.00  0.00    +0.167 A 
ATOM     18  C   UNL     1      85.291  52.204  41.727  0.00  0.00    -0.012 A 
ATOM     19  O   UNL     1      84.788  53.785  39.875  0.00  0.00    -0.453 OA
ATOM     20  C   UNL     1      84.578  55.199  39.803  0.00  0.00    +0.233 C 
ATOM     21  O   UNL     1      84.671  55.655  41.156  0.00  0.00    -0.452 OA
ENDROOT
BRANCH   1  23
ATOM     22  C   UNL     1      85.949  51.643  48.353  0.00  0.00    +0.037 C 
ATOM     23  O   UNL     1      86.722  51.889  47.198  0.00  0.00    -0.372 OA
ENDBRANCH   1  23
TORSDOF 1
ENDMDL
MODEL 8
REMARK VINA RESULT:    -8.428      1.869      4.947
REMARK INTER + INTRA:          -9.045
REMARK INTER:                  -8.922
REMARK INTRA:                  -0.123
REMARK UNBOUND:                -0.124
REMARK  Name = 
REMARK  2 active torsions:
REMARK  status: ('A' for Active; 'I' for Inactive)
REMARK    1  A    between atoms: C_1  and  O_2
REMARK    2  A    between atoms: O_2  and  C_3
REMARK                            x       y       z     vdW  Elec       q    Type
REMARK                         _______ _______ _______ _____ _____    ______ ____
ROOT
ATOM      1  C   UNL     1      88.054  51.047  43.500  0.00  0.00    +0.123 C 
ATOM      2  C   UNL     1      87.655  49.966  44.459  0.00  0.00    +0.167 C 
ATOM      3  O   UNL     1      87.331  48.853  44.069  0.00  0.00    -0.294 OA
ATOM      4  C   UNL     1      87.709  50.277  45.921  0.00  0.00    +0.034 C 
ATOM      5  C   UNL     1      86.953  51.546  46.204  0.00  0.00    -0.032 A 
ATOM      6  C   UNL     1      86.677  52.497  45.172  0.00  0.00    -0.026 A 
ATOM      7  C   UNL     1      87.219  52.344  43.751  0.00  0.00    +0.022 C 
ATOM      8  C   UNL     1      86.052  52.552  42.761  0.00  0.00    -0.017 C 
ATOM      9  C   UNL     1      85.425  53.911  42.989  0.00  0.00    -0.039 A 
ATOM     10  C   UNL     1      84.922  54.644  41.904  0.00  0.00    -0.058 A 
ATOM     11  C   UNL     1      84.383  55.916  42.104  0.00  0.00    -0.061 A 
ATOM     12  C   UNL     1      84.349  56.468  43.384  0.00  0.00    -0.061 A 
ATOM     13  C   UNL     1      84.829  55.742  44.477  0.00  0.00    -0.054 A 
ATOM     14  C   UNL     1      85.345  54.442  44.300  0.00  0.00    -0.011 A 
ATOM     15  C   UNL     1      85.823  53.605  45.440  0.00  0.00    +0.032 A 
ATOM     16  C   UNL     1      85.355  53.756  46.754  0.00  0.00    +0.174 A 
ATOM     17  C   UNL     1      85.690  52.886  47.743  0.00  0.00    +0.167 A 
ATOM     18  C   UNL     1      86.483  51.773  47.512  0.00  0.00    -0.012 A 
ATOM     19  O   UNL     1      85.080  53.262  48.925  0.00  0.00    -0.453 OA
ATOM     20  C   UNL     1      84.299  54.433  48.666  0.00  0.00    +0.233 C 
ATOM     21  O   UNL     1      84.492  54.705  47.274  0.00  0.00    -0.452 OA
ENDROOT
BRANCH   1  23
ATOM     22  C   UNL     1      89.181  50.546  41.527  0.00  0.00    +0.037 C 
ATOM     23  O   UNL     1      87.923  50.577  42.166  0.00  0.00    -0.372 OA
ENDBRANCH   1  23
TORSDOF 1
ENDMDL
MODEL 9
REMARK VINA RESULT:    -8.287      1.843      4.322
REMARK INTER + INTRA:          -8.895
REMARK INTER:                  -8.771
REMARK INTRA:                  -0.124
REMARK UNBOUND:                -0.124
REMARK  Name = 
REMARK  2 active torsions:
REMARK  status: ('A' for Active; 'I' for Inactive)
REMARK    1  A    between atoms: C_1  and  O_2
REMARK    2  A    between atoms: O_2  and  C_3
REMARK                            x       y       z     vdW  Elec       q    Type
REMARK                         _______ _______ _______ _____ _____    ______ ____
ROOT
ATOM      1  C   UNL     1      85.420  55.040  43.607  0.00  0.00    +0.123 C 
ATOM      2  C   UNL     1      84.757  54.642  42.322  0.00  0.00    +0.167 C 
ATOM      3  O   UNL     1      83.578  54.885  42.110  0.00  0.00    -0.294 OA
ATOM      4  C   UNL     1      85.600  53.976  41.281  0.00  0.00    +0.034 C 
ATOM      5  C   UNL     1      86.335  52.812  41.885  0.00  0.00    -0.032 A 
ATOM      6  C   UNL     1      86.540  52.707  43.297  0.00  0.00    -0.026 A 
ATOM      7  C   UNL     1      86.126  53.813  44.268  0.00  0.00    +0.022 C 
ATOM      8  C   UNL     1      85.334  53.170  45.427  0.00  0.00    -0.017 C 
ATOM      9  C   UNL     1      86.181  52.110  46.097  0.00  0.00    -0.039 A 
ATOM     10  C   UNL     1      86.084  51.904  47.482  0.00  0.00    -0.058 A 
ATOM     11  C   UNL     1      86.894  50.958  48.111  0.00  0.00    -0.061 A 
ATOM     12  C   UNL     1      87.811  50.217  47.366  0.00  0.00    -0.061 A 
ATOM     13  C   UNL     1      87.906  50.397  45.984  0.00  0.00    -0.054 A 
ATOM     14  C   UNL     1      87.071  51.323  45.326  0.00  0.00    -0.011 A 
ATOM     15  C   UNL     1      87.096  51.517  43.846  0.00  0.00    +0.032 A 
ATOM     16  C   UNL     1      87.502  50.520  42.946  0.00  0.00    +0.174 A 
ATOM     17  C   UNL     1      87.373  50.666  41.602  0.00  0.00    +0.167 A 
ATOM     18  C   UNL     1      86.798  51.791  41.031  0.00  0.00    -0.012 A 
ATOM     19  O   UNL     1      87.834  49.532  40.960  0.00  0.00    -0.453 OA
ATOM     20  C   UNL     1      88.269  48.605  41.960  0.00  0.00    +0.233 C 
ATOM     21  O   UNL     1      88.029  49.267  43.206  0.00  0.00    -0.452 OA
ENDROOT
BRANCH   1  23
ATOM     22  C   UNL     1      84.850  56.957  44.798  0.00  0.00    +0.037 C 
ATOM     23  O   UNL     1      84.466  55.639  44.473  0.00  0.00    -0.372 OA
ENDBRANCH   1  23
TORSDOF 1
ENDMDL
