MODEL 1
REMARK VINA RESULT:    -9.081      0.000      0.000
REMARK INTER + INTRA:          -9.736
REMARK INTER:                  -9.612
REMARK INTRA:                  -0.124
REMARK UNBOUND:                -0.123
REMARK  Name = 
REMARK  2 active torsions:
REMARK  status: ('A' for Active; 'I' for Inactive)
REMARK    1  A    between atoms: C_1  and  O_2
REMARK    2  A    between atoms: O_2  and  C_3
REMARK                            x       y       z     vdW  Elec       q    Type
REMARK                         _______ _______ _______ _____ _____    ______ ____
ROOT
ATOM      1  C   UNL     1      84.958  54.538  43.164  0.00  0.00    +0.123 C 
ATOM      2  C   UNL     1      84.946  55.328  44.438  0.00  0.00    +0.167 C 
ATOM      3  O   UNL     1      85.191  56.526  44.448  0.00  0.00    -0.294 OA
ATOM      4  C   UNL     1      84.579  54.613  45.699  0.00  0.00    +0.034 C 
ATOM      5  C   UNL     1      85.417  53.374  45.848  0.00  0.00    -0.032 A 
ATOM      6  C   UNL     1      86.074  52.776  44.727  0.00  0.00    -0.026 A 
ATOM      7  C   UNL     1      85.884  53.286  43.299  0.00  0.00    +0.022 C 
ATOM      8  C   UNL     1      87.277  53.452  42.652  0.00  0.00    -0.017 C 
ATOM      9  C   UNL     1      88.018  52.132  42.693  0.00  0.00    -0.039 A 
ATOM     10  C   UNL     1      88.874  51.775  41.641  0.00  0.00    -0.058 A 
ATOM     11  C   UNL     1      89.526  50.541  41.652  0.00  0.00    -0.061 A 
ATOM     12  C   UNL     1      89.323  49.653  42.708  0.00  0.00    -0.061 A 
ATOM     13  C   UNL     1      88.487  50.003  43.772  0.00  0.00    -0.054 A 
ATOM     14  C   UNL     1      87.849  51.259  43.795  0.00  0.00    -0.011 A 
ATOM     15  C   UNL     1      86.987  51.702  44.931  0.00  0.00    +0.032 A 
ATOM     16  C   UNL     1      87.133  51.219  46.240  0.00  0.00    +0.174 A 
ATOM     17  C   UNL     1      86.442  51.746  47.284  0.00  0.00    +0.167 A 
ATOM     18  C   UNL     1      85.577  52.819  47.133  0.00  0.00    -0.012 A 
ATOM     19  O   UNL     1      86.789  51.096  48.453  0.00  0.00    -0.453 OA
ATOM     20  C   UNL     1      87.770  50.104  48.132  0.00  0.00    +0.233 C 
ATOM     21  O   UNL     1      87.969  50.225  46.720  0.00  0.00    -0.452 OA
ENDROOT
BRANCH   1  23
ATOM     22  C   UNL     1      84.385  55.323  41.050  0.00  0.00    +0.037 C 
ATOM     23  O   UNL     1      85.344  55.374  42.083  0.00  0.00    -0.372 OA
ENDBRANCH   1  23
TORSDOF 1
ENDMDL
MODEL 2
REMARK VINA RESULT:    -8.757      4.658      7.317
REMARK INTER + INTRA:          -9.393
REMARK INTER:                  -9.279
REMARK INTRA:                  -0.114
REMARK UNBOUND:                -0.123
REMARK  Name = 
REMARK  2 active torsions:
REMARK  status: ('A' for Active; 'I' for Inactive)
REMARK    1  A    between atoms: C_1  and  O_2
REMARK    2  A    between atoms: O_2  and  C_3
REMARK                            x       y       z     vdW  Elec       q    Type
REMARK                         _______ _______ _______ _____ _____    ______ ____
ROOT
ATOM      1  C   UNL     1      86.497  44.366  43.551  0.00  0.00    +0.123 C 
ATOM      2  C   UNL     1      85.049  44.423  43.170  0.00  0.00    +0.167 C 
ATOM      3  O   UNL     1      84.581  43.673  42.325  0.00  0.00    -0.294 OA
ATOM      4  C   UNL     1      84.177  45.402  43.890  0.00  0.00    +0.034 C 
ATOM      5  C   UNL     1      84.796  46.772  43.843  0.00  0.00    -0.032 A 
ATOM      6  C   UNL     1      86.190  46.954  43.579  0.00  0.00    -0.026 A 
ATOM      7  C   UNL     1      87.156  45.778  43.437  0.00  0.00    +0.022 C 
ATOM      8  C   UNL     1      87.992  45.989  42.155  0.00  0.00    -0.017 C 
ATOM      9  C   UNL     1      88.715  47.317  42.230  0.00  0.00    -0.039 A 
ATOM     10  C   UNL     1      89.994  47.453  41.671  0.00  0.00    -0.058 A 
ATOM     11  C   UNL     1      90.683  48.662  41.776  0.00  0.00    -0.061 A 
ATOM     12  C   UNL     1      90.105  49.740  42.446  0.00  0.00    -0.061 A 
ATOM     13  C   UNL     1      88.824  49.625  42.991  0.00  0.00    -0.054 A 
ATOM     14  C   UNL     1      88.098  48.424  42.864  0.00  0.00    -0.011 A 
ATOM     15  C   UNL     1      86.708  48.265  43.383  0.00  0.00    +0.032 A 
ATOM     16  C   UNL     1      85.821  49.341  43.546  0.00  0.00    +0.174 A 
ATOM     17  C   UNL     1      84.516  49.155  43.875  0.00  0.00    +0.167 A 
ATOM     18  C   UNL     1      83.964  47.893  44.033  0.00  0.00    -0.012 A 
ATOM     19  O   UNL     1      83.874  50.376  43.954  0.00  0.00    -0.453 OA
ATOM     20  C   UNL     1      84.827  51.398  43.643  0.00  0.00    +0.233 C 
ATOM     21  O   UNL     1      86.046  50.696  43.379  0.00  0.00    -0.452 OA
ENDROOT
BRANCH   1  23
ATOM     22  C   UNL     1      87.955  42.551  43.562  0.00  0.00    +0.037 C 
ATOM     23  O   UNL     1      87.166  43.398  42.755  0.00  0.00    -0.372 OA
ENDBRANCH   1  23
TORSDOF 1
ENDMDL
MODEL 3
REMARK VINA RESULT:    -8.603      1.809      4.463
REMARK INTER + INTRA:          -9.229
REMARK INTER:                  -9.124
REMARK INTRA:                  -0.105
REMARK UNBOUND:                -0.123
REMARK  Name = 
REMARK  2 active torsions:
REMARK  status: ('A' for Active; 'I' for Inactive)
REMARK    1  A    between atoms: C_1  and  O_2
REMARK    2  A    between atoms: O_2  and  C_3
REMARK                            x       y       z     vdW  Elec       q    Type
REMARK                         _______ _______ _______ _____ _____    ______ ____
ROOT
ATOM      1  C   UNL     1      85.335  56.168  44.994  0.00  0.00    +0.123 C 
ATOM      2  C   UNL     1      84.600  55.984  43.701  0.00  0.00    +0.167 C 
ATOM      3  O   UNL     1      83.458  56.394  43.551  0.00  0.00    -0.294 OA
ATOM      4  C   UNL     1      85.328  55.320  42.575  0.00  0.00    +0.034 C 
ATOM      5  C   UNL     1      85.917  54.018  43.042  0.00  0.00    -0.032 A 
ATOM      6  C   UNL     1      86.136  53.752  44.430  0.00  0.00    -0.026 A 
ATOM      7  C   UNL     1      85.890  54.802  45.514  0.00  0.00    +0.022 C 
ATOM      8  C   UNL     1      85.044  54.156  46.633  0.00  0.00    -0.017 C 
ATOM      9  C   UNL     1      85.759  52.936  47.173  0.00  0.00    -0.039 A 
ATOM     10  C   UNL     1      85.665  52.610  48.534  0.00  0.00    -0.058 A 
ATOM     11  C   UNL     1      86.357  51.512  49.045  0.00  0.00    -0.061 A 
ATOM     12  C   UNL     1      87.155  50.736  48.204  0.00  0.00    -0.061 A 
ATOM     13  C   UNL     1      87.244  51.036  46.843  0.00  0.00    -0.054 A 
ATOM     14  C   UNL     1      86.523  52.120  46.302  0.00  0.00    -0.011 A 
ATOM     15  C   UNL     1      86.543  52.453  44.847  0.00  0.00    +0.032 A 
ATOM     16  C   UNL     1      86.798  51.504  43.845  0.00  0.00    +0.174 A 
ATOM     17  C   UNL     1      86.662  51.796  42.525  0.00  0.00    +0.167 A 
ATOM     18  C   UNL     1      86.226  53.035  42.081  0.00  0.00    -0.012 A 
ATOM     19  O   UNL     1      86.958  50.680  41.765  0.00  0.00    -0.453 OA
ATOM     20  C   UNL     1      87.289  49.612  42.658  0.00  0.00    +0.233 C 
ATOM     21  O   UNL     1      87.163  50.175  43.968  0.00  0.00    -0.452 OA
ENDROOT
BRANCH   1  23
ATOM     22  C   UNL     1      84.911  58.118  46.192  0.00  0.00    +0.037 C 
ATOM     23  O   UNL     1      84.485  56.795  45.944  0.00  0.00    -0.372 OA
ENDBRANCH   1  23
TORSDOF 1
ENDMDL
MODEL 4
REMARK VINA RESULT:    -8.572      1.869      4.671
REMARK INTER + INTRA:          -9.196
REMARK INTER:                  -9.096
REMARK INTRA:                  -0.100
REMARK UNBOUND:                -0.123
REMARK  Name = 
REMARK  2 active torsions:
REMARK  status: ('A' for Active; 'I' for Inactive)
REMARK    1  A    between atoms: C_1  and  O_2
REMARK    2  A    between atoms: O_2  and  C_3
REMARK                            x       y       z     vdW  Elec       q    Type
REMARK                         _______ _______ _______ _____ _____    ______ ____
ROOT
ATOM      1  C   UNL     1      88.391  51.057  41.937  0.00  0.00    +0.123 C 
ATOM      2  C   UNL     1      88.115  49.657  42.398  0.00  0.00    +0.167 C 
ATOM      3  O   UNL     1      87.609  48.828  41.655  0.00  0.00    -0.294 OA
ATOM      4  C   UNL     1      88.523  49.289  43.789  0.00  0.00    +0.034 C 
ATOM      5  C   UNL     1      87.974  50.290  44.766  0.00  0.00    -0.032 A 
ATOM      6  C   UNL     1      87.566  51.596  44.350  0.00  0.00    -0.026 A 
ATOM      7  C   UNL     1      87.760  52.097  42.918  0.00  0.00    +0.022 C 
ATOM      8  C   UNL     1      86.427  52.705  42.431  0.00  0.00    -0.017 C 
ATOM      9  C   UNL     1      85.999  53.813  43.370  0.00  0.00    -0.039 A 
ATOM     10  C   UNL     1      85.338  54.944  42.867  0.00  0.00    -0.058 A 
ATOM     11  C   UNL     1      84.980  55.988  43.721  0.00  0.00    -0.061 A 
ATOM     12  C   UNL     1      85.286  55.915  45.080  0.00  0.00    -0.061 A 
ATOM     13  C   UNL     1      85.927  54.786  45.598  0.00  0.00    -0.054 A 
ATOM     14  C   UNL     1      86.264  53.707  44.757  0.00  0.00    -0.011 A 
ATOM     15  C   UNL     1      86.903  52.459  45.268  0.00  0.00    +0.032 A 
ATOM     16  C   UNL     1      86.756  52.005  46.588  0.00  0.00    +0.174 A 
ATOM     17  C   UNL     1      87.219  50.792  46.989  0.00  0.00    +0.167 A 
ATOM     18  C   UNL     1      87.832  49.907  46.115  0.00  0.00    -0.012 A 
ATOM     19  O   UNL     1      86.927  50.597  48.326  0.00  0.00    -0.453 OA
ATOM     20  C   UNL     1      86.223  51.750  48.797  0.00  0.00    +0.233 C 
ATOM     21  O   UNL     1      86.126  52.613  47.660  0.00  0.00    -0.452 OA
ENDROOT
BRANCH   1  23
ATOM     22  C   UNL     1      88.876  51.914  39.828  0.00  0.00    +0.037 C 
ATOM     23  O   UNL     1      87.922  51.225  40.607  0.00  0.00    -0.372 OA
ENDBRANCH   1  23
TORSDOF 1
ENDMDL
MODEL 5
REMARK VINA RESULT:    -8.517      4.049      5.373
REMARK INTER + INTRA:          -9.138
REMARK INTER:                  -9.028
REMARK INTRA:                  -0.110
REMARK UNBOUND:                -0.123
REMARK  Name = 
REMARK  2 active torsions:
REMARK  status: ('A' for Active; 'I' for Inactive)
REMARK    1  A    between atoms: C_1  and  O_2
REMARK    2  A    between atoms: O_2  and  C_3
REMARK                            x       y       z     vdW  Elec       q    Type
REMARK                         _______ _______ _______ _____ _____    ______ ____
ROOT
ATOM      1  C   UNL     1      84.564  53.521  43.092  0.00  0.00    +0.123 C 
ATOM      2  C   UNL     1      85.827  53.147  42.377  0.00  0.00    +0.167 C 
ATOM      3  O   UNL     1      86.120  53.640  41.297  0.00  0.00    -0.294 OA
ATOM      4  C   UNL     1      86.748  52.180  43.051  0.00  0.00    +0.034 C 
ATOM      5  C   UNL     1      85.987  50.952  43.467  0.00  0.00    -0.032 A 
ATOM      6  C   UNL     1      84.564  50.967  43.613  0.00  0.00    -0.026 A 
ATOM      7  C   UNL     1      83.740  52.246  43.464  0.00  0.00    +0.022 C 
ATOM      8  C   UNL     1      82.556  51.953  42.515  0.00  0.00    -0.017 C 
ATOM      9  C   UNL     1      81.736  50.806  43.064  0.00  0.00    -0.039 A 
ATOM     10  C   UNL     1      80.343  50.793  42.893  0.00  0.00    -0.058 A 
ATOM     11  C   UNL     1      79.577  49.760  43.434  0.00  0.00    -0.061 A 
ATOM     12  C   UNL     1      80.192  48.737  44.156  0.00  0.00    -0.061 A 
ATOM     13  C   UNL     1      81.580  48.727  44.319  0.00  0.00    -0.054 A 
ATOM     14  C   UNL     1      82.374  49.742  43.749  0.00  0.00    -0.011 A 
ATOM     15  C   UNL     1      83.863  49.751  43.849  0.00  0.00    +0.032 A 
ATOM     16  C   UNL     1      84.629  48.587  44.016  0.00  0.00    +0.174 A 
ATOM     17  C   UNL     1      85.986  48.601  43.953  0.00  0.00    +0.167 A 
ATOM     18  C   UNL     1      86.702  49.757  43.682  0.00  0.00    -0.012 A 
ATOM     19  O   UNL     1      86.478  47.323  44.135  0.00  0.00    -0.453 OA
ATOM     20  C   UNL     1      85.364  46.441  44.310  0.00  0.00    +0.233 C 
ATOM     21  O   UNL     1      84.210  47.282  44.215  0.00  0.00    -0.452 OA
ENDROOT
BRANCH   1  23
ATOM     22  C   UNL     1      83.802  55.711  42.886  0.00  0.00    +0.037 C 
ATOM     23  O   UNL     1      83.814  54.429  42.297  0.00  0.00    -0.372 OA
ENDBRANCH   1  23
TORSDOF 1
ENDMDL
MODEL 6
REMARK VINA RESULT:    -8.409      5.281      6.689
REMARK INTER + INTRA:          -9.024
REMARK INTER:                  -8.926
REMARK INTRA:                  -0.099
REMARK UNBOUND:                -0.123
REMARK  Name = 
REMARK  2 active torsions:
REMARK  status: ('A' for Active; 'I' for Inactive)
REMARK    1  A    between atoms: C_1  and  O_2
REMARK    2  A    between atoms: O_2  and  C_3
REMARK                            x       y       z     vdW  Elec       q    Type
REMARK                         _______ _______ _______ _____ _____    ______ ____
ROOT
ATOM      1  C   UNL     1      85.055  51.071  44.407  0.00  0.00    +0.123 C 
ATOM      2  C   UNL     1      86.171  50.959  43.413  0.00  0.00    +0.167 C 
ATOM      3  O   UNL     1      86.365  51.823  42.571  0.00  0.00    -0.294 OA
ATOM      4  C   UNL     1      87.075  49.771  43.512  0.00  0.00    +0.034 C 
ATOM      5  C   UNL     1      86.261  48.508  43.544  0.00  0.00    -0.032 A 
ATOM      6  C   UNL     1      84.878  48.518  43.909  0.00  0.00    -0.026 A 
ATOM      7  C   UNL     1      84.168  49.784  44.391  0.00  0.00    +0.022 C 
ATOM      8  C   UNL     1      82.847  49.930  43.604  0.00  0.00    -0.017 C 
ATOM      9  C   UNL     1      81.999  48.691  43.798  0.00  0.00    -0.039 A 
ATOM     10  C   UNL     1      80.602  48.798  43.859  0.00  0.00    -0.058 A 
ATOM     11  C   UNL     1      79.818  47.665  44.080  0.00  0.00    -0.061 A 
ATOM     12  C   UNL     1      80.422  46.419  44.250  0.00  0.00    -0.061 A 
ATOM     13  C   UNL     1      81.811  46.294  44.173  0.00  0.00    -0.054 A 
ATOM     14  C   UNL     1      82.617  47.421  43.915  0.00  0.00    -0.011 A 
ATOM     15  C   UNL     1      84.100  47.334  43.773  0.00  0.00    +0.032 A 
ATOM     16  C   UNL     1      84.765  46.169  43.359  0.00  0.00    +0.174 A 
ATOM     17  C   UNL     1      86.097  46.156  43.092  0.00  0.00    +0.167 A 
ATOM     18  C   UNL     1      86.880  47.298  43.171  0.00  0.00    -0.012 A 
ATOM     19  O   UNL     1      86.483  44.891  42.692  0.00  0.00    -0.453 OA
ATOM     20  C   UNL     1      85.322  44.054  42.693  0.00  0.00    +0.233 C 
ATOM     21  O   UNL     1      84.253  44.907  43.111  0.00  0.00    -0.452 OA
ENDROOT
BRANCH   1  23
ATOM     22  C   UNL     1      84.537  53.217  45.142  0.00  0.00    +0.037 C 
ATOM     23  O   UNL     1      84.297  52.244  44.149  0.00  0.00    -0.372 OA
ENDBRANCH   1  23
TORSDOF 1
ENDMDL
MODEL 7
REMARK VINA RESULT:    -8.350      3.853      5.983
REMARK INTER + INTRA:          -8.961
REMARK INTER:                  -8.842
REMARK INTRA:                  -0.120
REMARK UNBOUND:                -0.123
REMARK  Name = 
REMARK  2 active torsions:
REMARK  status: ('A' for Active; 'I' for Inactive)
REMARK    1  A    between atoms: C_1  and  O_2
REMARK    2  A    between atoms: O_2  and  C_3
REMARK                            x       y       z     vdW  Elec       q    Type
REMARK                         _______ _______ _______ _____ _____    ______ ____
ROOT
ATOM      1  C   UNL     1      84.747  46.456  44.020  0.00  0.00    +0.123 C 
ATOM      2  C   UNL     1      83.520  47.188  43.567  0.00  0.00    +0.167 C 
ATOM      3  O   UNL     1      82.720  46.679  42.794  0.00  0.00    -0.294 OA
ATOM      4  C   UNL     1      83.276  48.553  44.128  0.00  0.00    +0.034 C 
ATOM      5  C   UNL     1      84.502  49.406  43.951  0.00  0.00    -0.032 A 
ATOM      6  C   UNL     1      85.791  48.827  43.733  0.00  0.00    -0.026 A 
ATOM      7  C   UNL     1      86.027  47.317  43.773  0.00  0.00    +0.022 C 
ATOM      8  C   UNL     1      86.831  46.918  42.515  0.00  0.00    -0.017 C 
ATOM      9  C   UNL     1      88.127  47.697  42.470  0.00  0.00    -0.039 A 
ATOM     10  C   UNL     1      89.289  47.100  41.959  0.00  0.00    -0.058 A 
ATOM     11  C   UNL     1      90.497  47.798  41.955  0.00  0.00    -0.061 A 
ATOM     12  C   UNL     1      90.556  49.095  42.467  0.00  0.00    -0.061 A 
ATOM     13  C   UNL     1      89.403  49.710  42.962  0.00  0.00    -0.054 A 
ATOM     14  C   UNL     1      88.168  49.033  42.941  0.00  0.00    -0.011 A 
ATOM     15  C   UNL     1      86.898  49.662  43.410  0.00  0.00    +0.032 A 
ATOM     16  C   UNL     1      86.680  51.049  43.406  0.00  0.00    +0.174 A 
ATOM     17  C   UNL     1      85.467  51.589  43.693  0.00  0.00    +0.167 A 
ATOM     18  C   UNL     1      84.356  50.808  43.970  0.00  0.00    -0.012 A 
ATOM     19  O   UNL     1      85.532  52.966  43.599  0.00  0.00    -0.453 OA
ATOM     20  C   UNL     1      86.865  53.320  43.217  0.00  0.00    +0.233 C 
ATOM     21  O   UNL     1      87.557  52.073  43.093  0.00  0.00    -0.452 OA
ENDROOT
BRANCH   1  23
ATOM     22  C   UNL     1      85.028  44.165  44.315  0.00  0.00    +0.037 C 
ATOM     23  O   UNL     1      84.819  45.194  43.373  0.00  0.00    -0.372 OA
ENDBRANCH   1  23
TORSDOF 1
ENDMDL
MODEL 8
REMARK VINA RESULT:    -8.343      2.010      6.524
REMARK INTER + INTRA:          -8.954
REMARK INTER:                  -8.863
REMARK INTRA:                  -0.091
REMARK UNBOUND:                -0.123
REMARK  Name = 
REMARK  2 active torsions:
REMARK  status: ('A' for Active; 'I' for Inactive)
REMARK    1  A    between atoms: C_1  and  O_2
REMARK    2  A    between atoms: O_2  and  C_3
REMARK                            x       y       z     vdW  Elec       q    Type
REMARK                         _______ _______ _______ _____ _____    ______ ____
ROOT
ATOM      1  C   UNL     1      86.049  51.784  46.221  0.00  0.00    +0.123 C 
ATOM      2  C   UNL     1      86.812  51.030  45.175  0.00  0.00    +0.167 C 
ATOM      3  O   UNL     1      87.923  50.571  45.400  0.00  0.00    -0.294 OA
ATOM      4  C   UNL     1      86.150  50.812  43.851  0.00  0.00    +0.034 C 
ATOM      5  C   UNL     1      85.651  52.122  43.307  0.00  0.00    -0.032 A 
ATOM      6  C   UNL     1      85.434  53.252  44.157  0.00  0.00    -0.026 A 
ATOM      7  C   UNL     1      85.589  53.175  45.676  0.00  0.00    +0.022 C 
ATOM      8  C   UNL     1      86.466  54.361  46.135  0.00  0.00    -0.017 C 
ATOM      9  C   UNL     1      85.834  55.663  45.691  0.00  0.00    -0.039 A 
ATOM     10  C   UNL     1      85.934  56.805  46.500  0.00  0.00    -0.058 A 
ATOM     11  C   UNL     1      85.317  57.996  46.116  0.00  0.00    -0.061 A 
ATOM     12  C   UNL     1      84.589  58.055  44.928  0.00  0.00    -0.061 A 
ATOM     13  C   UNL     1      84.496  56.931  44.103  0.00  0.00    -0.054 A 
ATOM     14  C   UNL     1      85.143  55.730  44.456  0.00  0.00    -0.011 A 
ATOM     15  C   UNL     1      85.117  54.517  43.586  0.00  0.00    +0.032 A 
ATOM     16  C   UNL     1      84.946  54.573  42.195  0.00  0.00    +0.174 A 
ATOM     17  C   UNL     1      85.077  53.473  41.407  0.00  0.00    +0.167 A 
ATOM     18  C   UNL     1      85.427  52.233  41.920  0.00  0.00    -0.012 A 
ATOM     19  O   UNL     1      84.873  53.816  40.084  0.00  0.00    -0.453 OA
ATOM     20  C   UNL     1      84.609  55.222  40.028  0.00  0.00    +0.233 C 
ATOM     21  O   UNL     1      84.677  55.665  41.387  0.00  0.00    -0.452 OA
ENDROOT
BRANCH   1  23
ATOM     22  C   UNL     1      86.055  51.672  48.546  0.00  0.00    +0.037 C 
ATOM     23  O   UNL     1      86.839  51.906  47.396  0.00  0.00    -0.372 OA
ENDBRANCH   1  23
TORSDOF 1
ENDMDL
MODEL 9
REMARK VINA RESULT:    -8.256      1.948      6.179
REMARK INTER + INTRA:          -8.862
REMARK INTER:                  -8.739
REMARK INTRA:                  -0.123
REMARK UNBOUND:                -0.123
REMARK  Name = 
REMARK  2 active torsions:
REMARK  status: ('A' for Active; 'I' for Inactive)
REMARK    1  A    between atoms: C_1  and  O_2
REMARK    2  A    between atoms: O_2  and  C_3
REMARK                            x       y       z     vdW  Elec       q    Type
REMARK                         _______ _______ _______ _____ _____    ______ ____
ROOT
ATOM      1  C   UNL     1      85.946  50.235  43.771  0.00  0.00    +0.123 C 
ATOM      2  C   UNL     1      86.741  50.784  42.624  0.00  0.00    +0.167 C 
ATOM      3  O   UNL     1      87.855  50.357  42.357  0.00  0.00    -0.294 OA
ATOM      4  C   UNL     1      86.106  51.843  41.780  0.00  0.00    +0.034 C 
ATOM      5  C   UNL     1      85.594  52.955  42.654  0.00  0.00    -0.032 A 
ATOM      6  C   UNL     1      85.343  52.756  44.047  0.00  0.00    -0.026 A 
ATOM      7  C   UNL     1      85.472  51.386  44.715  0.00  0.00    +0.022 C 
ATOM      8  C   UNL     1      86.318  51.549  45.997  0.00  0.00    -0.017 C 
ATOM      9  C   UNL     1      85.672  52.570  46.908  0.00  0.00    -0.039 A 
ATOM     10  C   UNL     1      85.738  52.410  48.301  0.00  0.00    -0.058 A 
ATOM     11  C   UNL     1      85.107  53.324  49.145  0.00  0.00    -0.061 A 
ATOM     12  C   UNL     1      84.399  54.399  48.607  0.00  0.00    -0.061 A 
ATOM     13  C   UNL     1      84.341  54.582  47.223  0.00  0.00    -0.054 A 
ATOM     14  C   UNL     1      85.002  53.689  46.356  0.00  0.00    -0.011 A 
ATOM     15  C   UNL     1      85.014  53.867  44.874  0.00  0.00    +0.032 A 
ATOM     16  C   UNL     1      84.866  55.115  44.249  0.00  0.00    +0.174 A 
ATOM     17  C   UNL     1      85.031  55.274  42.910  0.00  0.00    +0.167 A 
ATOM     18  C   UNL     1      85.393  54.225  42.078  0.00  0.00    -0.012 A 
ATOM     19  O   UNL     1      84.845  56.600  42.568  0.00  0.00    -0.453 OA
ATOM     20  C   UNL     1      84.557  57.329  43.766  0.00  0.00    +0.233 C 
ATOM     21  O   UNL     1      84.593  56.351  44.810  0.00  0.00    -0.452 OA
ENDROOT
BRANCH   1  23
ATOM     22  C   UNL     1      85.990  48.052  44.575  0.00  0.00    +0.037 C 
ATOM     23  O   UNL     1      86.712  49.259  44.462  0.00  0.00    -0.372 OA
ENDBRANCH   1  23
TORSDOF 1
ENDMDL
