MODEL 1
REMARK VINA RESULT:    -9.035      0.000      0.000
REMARK INTER + INTRA:         -13.020
REMARK INTER:                 -11.816
REMARK INTRA:                  -1.204
REMARK UNBOUND:                -1.345
REMARK  Name = 
REMARK  13 active torsions:
REMARK  status: ('A' for Active; 'I' for Inactive)
REMARK    1  A    between atoms: C_1  and  O_2
REMARK    2  A    between atoms: O_2  and  C_3
REMARK    3  A    between atoms: C_5  and  O_6
REMARK    4  A    between atoms: O_6  and  C_7
REMARK    5  A    between atoms: C_10  and  C_11
REMARK    6  A    between atoms: C_12  and  C_13
REMARK    7  A    between atoms: C_15  and  O_24
REMARK    8  A    between atoms: C_21  and  O_22
REMARK    9  A    between atoms: O_22  and  C_23
REMARK   10  A    between atoms: O_24  and  C_25
REMARK   11  A    between atoms: C_27  and  C_32
REMARK   12  A    between atoms: N_28  and  C_31
REMARK   13  A    between atoms: C_29  and  C_30
REMARK                            x       y       z     vdW  Elec       q    Type
REMARK                         _______ _______ _______ _____ _____    ______ ____
ROOT
ATOM      1  C   UNL     1      85.461  53.602  42.958  0.00  0.00    +0.132 A 
ATOM      2  C   UNL     1      85.387  55.001  42.891  0.00  0.00    +0.023 A 
ATOM      3  C   UNL     1      84.963  55.765  43.995  0.00  0.00    +0.129 A 
ATOM      4  C   UNL     1      84.632  55.105  45.206  0.00  0.00    +0.015 A 
ATOM      5  C   UNL     1      84.669  53.696  45.263  0.00  0.00    -0.027 A 
ATOM      6  C   UNL     1      85.085  52.947  44.140  0.00  0.00    +0.028 A 
ATOM      7  C   UNL     1      84.148  53.029  46.521  0.00  0.00    -0.011 C 
ATOM      8  C   UNL     1      84.666  53.723  47.812  0.00  0.00    +0.012 C 
ATOM      9  N   UNL     1      84.952  55.178  47.655  0.00  0.00    -0.296 N 
ATOM     10  C   UNL     1      84.225  55.794  46.512  0.00  0.00    +0.037 C 
ATOM     11  C   UNL     1      84.313  57.329  46.570  0.00  0.00    -0.045 C 
ATOM     12  C   UNL     1      86.409  55.431  47.616  0.00  0.00    -0.012 C 
ATOM     13  C   UNL     1      83.668  53.534  48.956  0.00  0.00    -0.049 C 
ATOM     14  H   UNL     1      84.587  55.649  48.482  0.00  0.00    +0.000 HD
ENDROOT
BRANCH   6  15
ATOM     15  C   UNL     1      85.153  51.463  44.189  0.00  0.00    -0.003 A 
ATOM     16  C   UNL     1      86.327  50.840  44.659  0.00  0.00    -0.039 A 
ATOM     17  C   UNL     1      87.512  51.655  45.113  0.00  0.00    -0.039 C 
ATOM     18  C   UNL     1      86.397  49.446  44.709  0.00  0.00    -0.016 A 
ATOM     19  C   UNL     1      85.324  48.640  44.291  0.00  0.00    +0.132 A 
ATOM     20  C   UNL     1      84.139  49.249  43.806  0.00  0.00    +0.066 A 
ATOM     21  C   UNL     1      84.056  50.672  43.759  0.00  0.00    -0.003 A 
ATOM     22  C   UNL     1      82.877  51.279  43.278  0.00  0.00    -0.053 A 
ATOM     23  C   UNL     1      81.803  50.509  42.851  0.00  0.00    -0.058 A 
ATOM     24  C   UNL     1      81.873  49.122  42.893  0.00  0.00    -0.019 A 
ATOM     25  C   UNL     1      83.028  48.473  43.366  0.00  0.00    +0.131 A 
BRANCH  25  26
ATOM     26  O   UNL     1      83.092  47.069  43.406  0.00  0.00    -0.494 OA
ATOM     27  C   UNL     1      82.118  46.222  44.009  0.00  0.00    +0.079 C 
ENDBRANCH  25  26
BRANCH  19  28
ATOM     28  O   UNL     1      85.420  47.238  44.346  0.00  0.00    -0.494 OA
ATOM     29  C   UNL     1      86.289  46.440  43.548  0.00  0.00    +0.079 C 
ENDBRANCH  19  28
ENDBRANCH   6  15
BRANCH   1  31
ATOM     30  C   UNL     1      87.253  52.698  41.455  0.00  0.00    +0.079 C 
ATOM     31  O   UNL     1      85.897  52.829  41.869  0.00  0.00    -0.494 OA
ENDBRANCH   1  31
BRANCH   3  32
ATOM     32  O   UNL     1      84.861  57.162  43.899  0.00  0.00    -0.495 OA
ATOM     33  C   UNL     1      85.959  58.069  43.903  0.00  0.00    +0.079 C 
ENDBRANCH   3  32
TORSDOF 5
ENDMDL
MODEL 2
REMARK VINA RESULT:    -8.572      2.407      4.780
REMARK INTER + INTRA:         -12.422
REMARK INTER:                 -10.959
REMARK INTRA:                  -1.463
REMARK UNBOUND:                -1.345
REMARK  Name = 
REMARK  13 active torsions:
REMARK  status: ('A' for Active; 'I' for Inactive)
REMARK    1  A    between atoms: C_1  and  O_2
REMARK    2  A    between atoms: O_2  and  C_3
REMARK    3  A    between atoms: C_5  and  O_6
REMARK    4  A    between atoms: O_6  and  C_7
REMARK    5  A    between atoms: C_10  and  C_11
REMARK    6  A    between atoms: C_12  and  C_13
REMARK    7  A    between atoms: C_15  and  O_24
REMARK    8  A    between atoms: C_21  and  O_22
REMARK    9  A    between atoms: O_22  and  C_23
REMARK   10  A    between atoms: O_24  and  C_25
REMARK   11  A    between atoms: C_27  and  C_32
REMARK   12  A    between atoms: N_28  and  C_31
REMARK   13  A    between atoms: C_29  and  C_30
REMARK                            x       y       z     vdW  Elec       q    Type
REMARK                         _______ _______ _______ _____ _____    ______ ____
ROOT
ATOM      1  C   UNL     1      86.483  51.609  45.860  0.00  0.00    +0.132 A 
ATOM      2  C   UNL     1      86.610  52.898  46.398  0.00  0.00    +0.023 A 
ATOM      3  C   UNL     1      86.553  54.041  45.579  0.00  0.00    +0.129 A 
ATOM      4  C   UNL     1      86.334  53.884  44.187  0.00  0.00    +0.015 A 
ATOM      5  C   UNL     1      86.244  52.587  43.639  0.00  0.00    -0.027 A 
ATOM      6  C   UNL     1      86.318  51.452  44.476  0.00  0.00    +0.028 A 
ATOM      7  C   UNL     1      86.178  52.464  42.129  0.00  0.00    -0.011 C 
ATOM      8  C   UNL     1      85.186  53.480  41.499  0.00  0.00    +0.012 C 
ATOM      9  N   UNL     1      85.024  54.743  42.277  0.00  0.00    -0.296 N 
ATOM     10  C   UNL     1      86.175  55.024  43.176  0.00  0.00    +0.037 C 
ATOM     11  C   UNL     1      86.105  56.461  43.723  0.00  0.00    -0.045 C 
ATOM     12  C   UNL     1      83.722  54.771  42.977  0.00  0.00    -0.012 C 
ATOM     13  C   UNL     1      85.611  53.827  40.072  0.00  0.00    -0.049 C 
ATOM     14  H   UNL     1      85.022  55.512  41.607  0.00  0.00    +0.000 HD
ENDROOT
BRANCH   6  15
ATOM     15  C   UNL     1      86.202  50.078  43.920  0.00  0.00    -0.003 A 
ATOM     16  C   UNL     1      84.938  49.456  43.871  0.00  0.00    -0.039 A 
ATOM     17  C   UNL     1      83.704  50.164  44.371  0.00  0.00    -0.039 C 
ATOM     18  C   UNL     1      84.821  48.166  43.347  0.00  0.00    -0.016 A 
ATOM     19  C   UNL     1      85.941  47.461  42.875  0.00  0.00    +0.132 A 
ATOM     20  C   UNL     1      87.223  48.067  42.925  0.00  0.00    +0.066 A 
ATOM     21  C   UNL     1      87.349  49.386  43.451  0.00  0.00    -0.003 A 
ATOM     22  C   UNL     1      88.623  49.990  43.501  0.00  0.00    -0.053 A 
ATOM     23  C   UNL     1      89.749  49.315  43.048  0.00  0.00    -0.058 A 
ATOM     24  C   UNL     1      89.637  48.029  42.535  0.00  0.00    -0.019 A 
ATOM     25  C   UNL     1      88.387  47.388  42.464  0.00  0.00    +0.131 A 
BRANCH  25  26
ATOM     26  O   UNL     1      88.281  46.086  41.942  0.00  0.00    -0.494 OA
ATOM     27  C   UNL     1      88.911  44.932  42.489  0.00  0.00    +0.079 C 
ENDBRANCH  25  26
BRANCH  19  28
ATOM     28  O   UNL     1      85.800  46.161  42.357  0.00  0.00    -0.494 OA
ATOM     29  C   UNL     1      84.665  45.320  42.543  0.00  0.00    +0.079 C 
ENDBRANCH  19  28
ENDBRANCH   6  15
BRANCH   1  31
ATOM     30  C   UNL     1      87.502  50.206  47.672  0.00  0.00    +0.079 C 
ATOM     31  O   UNL     1      86.524  50.459  46.668  0.00  0.00    -0.494 OA
ENDBRANCH   1  31
BRANCH   3  32
ATOM     32  O   UNL     1      86.717  55.322  46.129  0.00  0.00    -0.495 OA
ATOM     33  C   UNL     1      86.056  55.808  47.294  0.00  0.00    +0.079 C 
ENDBRANCH   3  32
TORSDOF 5
ENDMDL
MODEL 3
REMARK VINA RESULT:    -8.402      2.018      3.599
REMARK INTER + INTRA:         -12.203
REMARK INTER:                 -10.660
REMARK INTRA:                  -1.543
REMARK UNBOUND:                -1.345
REMARK  Name = 
REMARK  13 active torsions:
REMARK  status: ('A' for Active; 'I' for Inactive)
REMARK    1  A    between atoms: C_1  and  O_2
REMARK    2  A    between atoms: O_2  and  C_3
REMARK    3  A    between atoms: C_5  and  O_6
REMARK    4  A    between atoms: O_6  and  C_7
REMARK    5  A    between atoms: C_10  and  C_11
REMARK    6  A    between atoms: C_12  and  C_13
REMARK    7  A    between atoms: C_15  and  O_24
REMARK    8  A    between atoms: C_21  and  O_22
REMARK    9  A    between atoms: O_22  and  C_23
REMARK   10  A    between atoms: O_24  and  C_25
REMARK   11  A    between atoms: C_27  and  C_32
REMARK   12  A    between atoms: N_28  and  C_31
REMARK   13  A    between atoms: C_29  and  C_30
REMARK                            x       y       z     vdW  Elec       q    Type
REMARK                         _______ _______ _______ _____ _____    ______ ____
ROOT
ATOM      1  C   UNL     1      85.296  52.537  45.793  0.00  0.00    +0.132 A 
ATOM      2  C   UNL     1      85.064  53.871  46.159  0.00  0.00    +0.023 A 
ATOM      3  C   UNL     1      84.968  54.888  45.191  0.00  0.00    +0.129 A 
ATOM      4  C   UNL     1      85.080  54.550  43.818  0.00  0.00    +0.015 A 
ATOM      5  C   UNL     1      85.351  53.215  43.451  0.00  0.00    -0.027 A 
ATOM      6  C   UNL     1      85.457  52.211  44.439  0.00  0.00    +0.028 A 
ATOM      7  C   UNL     1      85.628  52.930  41.988  0.00  0.00    -0.011 C 
ATOM      8  C   UNL     1      84.618  53.645  41.049  0.00  0.00    +0.012 C 
ATOM      9  N   UNL     1      84.063  54.917  41.597  0.00  0.00    -0.296 N 
ATOM     10  C   UNL     1      84.927  55.523  42.645  0.00  0.00    +0.037 C 
ATOM     11  C   UNL     1      84.477  56.960  42.962  0.00  0.00    -0.045 C 
ATOM     12  C   UNL     1      82.661  54.740  42.032  0.00  0.00    -0.012 C 
ATOM     13  C   UNL     1      85.261  53.929  39.690  0.00  0.00    -0.049 C 
ATOM     14  H   UNL     1      84.059  55.597  40.836  0.00  0.00    +0.000 HD
ENDROOT
BRANCH   6  15
ATOM     15  C   UNL     1      85.719  50.795  44.070  0.00  0.00    -0.003 A 
ATOM     16  C   UNL     1      87.049  50.351  43.931  0.00  0.00    -0.039 A 
ATOM     17  C   UNL     1      88.209  51.290  44.151  0.00  0.00    -0.039 C 
ATOM     18  C   UNL     1      87.303  49.021  43.588  0.00  0.00    -0.016 A 
ATOM     19  C   UNL     1      86.258  48.108  43.364  0.00  0.00    +0.132 A 
ATOM     20  C   UNL     1      84.913  48.538  43.491  0.00  0.00    +0.066 A 
ATOM     21  C   UNL     1      84.646  49.892  43.849  0.00  0.00    -0.003 A 
ATOM     22  C   UNL     1      83.308  50.321  43.976  0.00  0.00    -0.053 A 
ATOM     23  C   UNL     1      82.254  49.443  43.754  0.00  0.00    -0.058 A 
ATOM     24  C   UNL     1      82.504  48.123  43.405  0.00  0.00    -0.019 A 
ATOM     25  C   UNL     1      83.822  47.650  43.269  0.00  0.00    +0.131 A 
BRANCH  25  26
ATOM     26  O   UNL     1      84.067  46.311  42.915  0.00  0.00    -0.494 OA
ATOM     27  C   UNL     1      83.671  45.176  43.681  0.00  0.00    +0.079 C 
ENDBRANCH  25  26
BRANCH  19  28
ATOM     28  O   UNL     1      86.538  46.775  43.014  0.00  0.00    -0.494 OA
ATOM     29  C   UNL     1      87.559  46.358  42.113  0.00  0.00    +0.079 C 
ENDBRANCH  19  28
ENDBRANCH   6  15
BRANCH   1  31
ATOM     30  C   UNL     1      86.339  51.452  47.798  0.00  0.00    +0.079 C 
ATOM     31  O   UNL     1      85.379  51.509  46.748  0.00  0.00    -0.494 OA
ENDBRANCH   1  31
BRANCH   3  32
ATOM     32  O   UNL     1      84.771  56.224  45.576  0.00  0.00    -0.495 OA
ATOM     33  C   UNL     1      83.866  56.664  46.585  0.00  0.00    +0.079 C 
ENDBRANCH   3  32
TORSDOF 5
ENDMDL
MODEL 4
REMARK VINA RESULT:    -8.280      2.835      7.590
REMARK INTER + INTRA:         -12.045
REMARK INTER:                 -10.840
REMARK INTRA:                  -1.205
REMARK UNBOUND:                -1.345
REMARK  Name = 
REMARK  13 active torsions:
REMARK  status: ('A' for Active; 'I' for Inactive)
REMARK    1  A    between atoms: C_1  and  O_2
REMARK    2  A    between atoms: O_2  and  C_3
REMARK    3  A    between atoms: C_5  and  O_6
REMARK    4  A    between atoms: O_6  and  C_7
REMARK    5  A    between atoms: C_10  and  C_11
REMARK    6  A    between atoms: C_12  and  C_13
REMARK    7  A    between atoms: C_15  and  O_24
REMARK    8  A    between atoms: C_21  and  O_22
REMARK    9  A    between atoms: O_22  and  C_23
REMARK   10  A    between atoms: O_24  and  C_25
REMARK   11  A    between atoms: C_27  and  C_32
REMARK   12  A    between atoms: N_28  and  C_31
REMARK   13  A    between atoms: C_29  and  C_30
REMARK                            x       y       z     vdW  Elec       q    Type
REMARK                         _______ _______ _______ _____ _____    ______ ____
ROOT
ATOM      1  C   UNL     1      85.150  48.910  43.722  0.00  0.00    +0.132 A 
ATOM      2  C   UNL     1      85.528  47.665  43.198  0.00  0.00    +0.023 A 
ATOM      3  C   UNL     1      86.710  47.515  42.450  0.00  0.00    +0.129 A 
ATOM      4  C   UNL     1      87.548  48.641  42.248  0.00  0.00    +0.015 A 
ATOM      5  C   UNL     1      87.151  49.901  42.742  0.00  0.00    -0.027 A 
ATOM      6  C   UNL     1      85.954  50.033  43.479  0.00  0.00    +0.028 A 
ATOM      7  C   UNL     1      87.992  51.104  42.360  0.00  0.00    -0.011 C 
ATOM      8  C   UNL     1      89.514  50.826  42.503  0.00  0.00    +0.012 C 
ATOM      9  N   UNL     1      89.899  49.399  42.307  0.00  0.00    -0.296 N 
ATOM     10  C   UNL     1      88.897  48.628  41.522  0.00  0.00    +0.037 C 
ATOM     11  C   UNL     1      89.467  47.264  41.095  0.00  0.00    -0.045 C 
ATOM     12  C   UNL     1      90.239  48.759  43.597  0.00  0.00    -0.012 C 
ATOM     13  C   UNL     1      90.309  51.693  41.526  0.00  0.00    -0.049 C 
ATOM     14  H   UNL     1      90.743  49.389  41.735  0.00  0.00    +0.000 HD
ENDROOT
BRANCH   6  15
ATOM     15  C   UNL     1      85.530  51.348  44.028  0.00  0.00    -0.003 A 
ATOM     16  C   UNL     1      84.903  52.283  43.178  0.00  0.00    -0.039 A 
ATOM     17  C   UNL     1      84.657  51.968  41.724  0.00  0.00    -0.039 C 
ATOM     18  C   UNL     1      84.500  53.519  43.688  0.00  0.00    -0.016 A 
ATOM     19  C   UNL     1      84.713  53.864  45.033  0.00  0.00    +0.132 A 
ATOM     20  C   UNL     1      85.350  52.941  45.901  0.00  0.00    +0.066 A 
ATOM     21  C   UNL     1      85.757  51.673  45.390  0.00  0.00    -0.003 A 
ATOM     22  C   UNL     1      86.390  50.753  46.253  0.00  0.00    -0.053 A 
ATOM     23  C   UNL     1      86.621  51.069  47.586  0.00  0.00    -0.058 A 
ATOM     24  C   UNL     1      86.228  52.301  48.093  0.00  0.00    -0.019 A 
ATOM     25  C   UNL     1      85.592  53.249  47.270  0.00  0.00    +0.131 A 
BRANCH  25  26
ATOM     26  O   UNL     1      85.197  54.494  47.791  0.00  0.00    -0.494 OA
ATOM     27  C   UNL     1      84.277  54.679  48.863  0.00  0.00    +0.079 C 
ENDBRANCH  25  26
BRANCH  19  28
ATOM     28  O   UNL     1      84.303  55.118  45.522  0.00  0.00    -0.494 OA
ATOM     29  C   UNL     1      84.470  56.360  44.845  0.00  0.00    +0.079 C 
ENDBRANCH  19  28
ENDBRANCH   6  15
BRANCH   1  31
ATOM     30  C   UNL     1      82.665  49.162  43.943  0.00  0.00    +0.079 C 
ATOM     31  O   UNL     1      83.979  49.071  44.483  0.00  0.00    -0.494 OA
ENDBRANCH   1  31
BRANCH   3  32
ATOM     32  O   UNL     1      87.055  46.269  41.902  0.00  0.00    -0.495 OA
ATOM     33  C   UNL     1      86.822  45.006  42.519  0.00  0.00    +0.079 C 
ENDBRANCH   3  32
TORSDOF 5
ENDMDL
MODEL 5
REMARK VINA RESULT:    -7.750      1.712      3.234
REMARK INTER + INTRA:         -11.360
REMARK INTER:                 -10.197
REMARK INTRA:                  -1.163
REMARK UNBOUND:                -1.345
REMARK  Name = 
REMARK  13 active torsions:
REMARK  status: ('A' for Active; 'I' for Inactive)
REMARK    1  A    between atoms: C_1  and  O_2
REMARK    2  A    between atoms: O_2  and  C_3
REMARK    3  A    between atoms: C_5  and  O_6
REMARK    4  A    between atoms: O_6  and  C_7
REMARK    5  A    between atoms: C_10  and  C_11
REMARK    6  A    between atoms: C_12  and  C_13
REMARK    7  A    between atoms: C_15  and  O_24
REMARK    8  A    between atoms: C_21  and  O_22
REMARK    9  A    between atoms: O_22  and  C_23
REMARK   10  A    between atoms: O_24  and  C_25
REMARK   11  A    between atoms: C_27  and  C_32
REMARK   12  A    between atoms: N_28  and  C_31
REMARK   13  A    between atoms: C_29  and  C_30
REMARK                            x       y       z     vdW  Elec       q    Type
REMARK                         _______ _______ _______ _____ _____    ______ ____
ROOT
ATOM      1  C   UNL     1      84.823  53.266  42.442  0.00  0.00    +0.132 A 
ATOM      2  C   UNL     1      84.496  54.624  42.567  0.00  0.00    +0.023 A 
ATOM      3  C   UNL     1      84.364  55.231  43.829  0.00  0.00    +0.129 A 
ATOM      4  C   UNL     1      84.595  54.459  44.996  0.00  0.00    +0.015 A 
ATOM      5  C   UNL     1      84.887  53.084  44.873  0.00  0.00    -0.027 A 
ATOM      6  C   UNL     1      85.002  52.490  43.596  0.00  0.00    +0.028 A 
ATOM      7  C   UNL     1      84.961  52.264  46.146  0.00  0.00    -0.011 C 
ATOM      8  C   UNL     1      85.775  52.980  47.260  0.00  0.00    +0.012 C 
ATOM      9  N   UNL     1      85.738  54.469  47.186  0.00  0.00    -0.296 N 
ATOM     10  C   UNL     1      84.564  54.985  46.434  0.00  0.00    +0.037 C 
ATOM     11  C   UNL     1      84.407  56.503  46.637  0.00  0.00    -0.045 C 
ATOM     12  C   UNL     1      87.024  55.007  46.691  0.00  0.00    -0.012 C 
ATOM     13  C   UNL     1      85.289  52.540  48.642  0.00  0.00    -0.049 C 
ATOM     14  H   UNL     1      85.613  54.815  48.137  0.00  0.00    +0.000 HD
ENDROOT
BRANCH   6  15
ATOM     15  C   UNL     1      85.332  51.049  43.446  0.00  0.00    -0.003 A 
ATOM     16  C   UNL     1      84.306  50.089  43.559  0.00  0.00    -0.039 A 
ATOM     17  C   UNL     1      82.881  50.503  43.830  0.00  0.00    -0.039 C 
ATOM     18  C   UNL     1      84.608  48.733  43.416  0.00  0.00    -0.016 A 
ATOM     19  C   UNL     1      85.920  48.294  43.172  0.00  0.00    +0.132 A 
ATOM     20  C   UNL     1      86.968  49.244  43.064  0.00  0.00    +0.066 A 
ATOM     21  C   UNL     1      86.665  50.631  43.200  0.00  0.00    -0.003 A 
ATOM     22  C   UNL     1      87.707  51.577  43.092  0.00  0.00    -0.053 A 
ATOM     23  C   UNL     1      89.015  51.174  42.858  0.00  0.00    -0.058 A 
ATOM     24  C   UNL     1      89.319  49.825  42.723  0.00  0.00    -0.019 A 
ATOM     25  C   UNL     1      88.314  48.846  42.822  0.00  0.00    +0.131 A 
BRANCH  25  26
ATOM     26  O   UNL     1      88.629  47.483  42.684  0.00  0.00    -0.494 OA
ATOM     27  C   UNL     1      89.806  46.973  42.065  0.00  0.00    +0.079 C 
ENDBRANCH  25  26
BRANCH  19  28
ATOM     28  O   UNL     1      86.201  46.923  43.037  0.00  0.00    -0.494 OA
ATOM     29  C   UNL     1      85.724  45.896  43.902  0.00  0.00    +0.079 C 
ENDBRANCH  19  28
ENDBRANCH   6  15
BRANCH   1  31
ATOM     30  C   UNL     1      85.950  53.008  40.217  0.00  0.00    +0.079 C 
ATOM     31  O   UNL     1      84.972  52.650  41.187  0.00  0.00    -0.494 OA
ENDBRANCH   1  31
BRANCH   3  32
ATOM     32  O   UNL     1      84.002  56.583  43.936  0.00  0.00    -0.495 OA
ATOM     33  C   UNL     1      84.834  57.688  43.596  0.00  0.00    +0.079 C 
ENDBRANCH   3  32
TORSDOF 5
ENDMDL
MODEL 6
REMARK VINA RESULT:    -7.740      2.816      7.484
REMARK INTER + INTRA:         -11.347
REMARK INTER:                  -9.995
REMARK INTRA:                  -1.352
REMARK UNBOUND:                -1.345
REMARK  Name = 
REMARK  13 active torsions:
REMARK  status: ('A' for Active; 'I' for Inactive)
REMARK    1  A    between atoms: C_1  and  O_2
REMARK    2  A    between atoms: O_2  and  C_3
REMARK    3  A    between atoms: C_5  and  O_6
REMARK    4  A    between atoms: O_6  and  C_7
REMARK    5  A    between atoms: C_10  and  C_11
REMARK    6  A    between atoms: C_12  and  C_13
REMARK    7  A    between atoms: C_15  and  O_24
REMARK    8  A    between atoms: C_21  and  O_22
REMARK    9  A    between atoms: O_22  and  C_23
REMARK   10  A    between atoms: O_24  and  C_25
REMARK   11  A    between atoms: C_27  and  C_32
REMARK   12  A    between atoms: N_28  and  C_31
REMARK   13  A    between atoms: C_29  and  C_30
REMARK                            x       y       z     vdW  Elec       q    Type
REMARK                         _______ _______ _______ _____ _____    ______ ____
ROOT
ATOM      1  C   UNL     1      85.428  48.951  43.749  0.00  0.00    +0.132 A 
ATOM      2  C   UNL     1      85.729  47.687  43.223  0.00  0.00    +0.023 A 
ATOM      3  C   UNL     1      86.884  47.472  42.449  0.00  0.00    +0.129 A 
ATOM      4  C   UNL     1      87.775  48.552  42.222  0.00  0.00    +0.015 A 
ATOM      5  C   UNL     1      87.455  49.834  42.719  0.00  0.00    -0.027 A 
ATOM      6  C   UNL     1      86.283  50.031  43.482  0.00  0.00    +0.028 A 
ATOM      7  C   UNL     1      88.348  50.989  42.311  0.00  0.00    -0.011 C 
ATOM      8  C   UNL     1      89.857  50.633  42.422  0.00  0.00    +0.012 C 
ATOM      9  N   UNL     1      90.163  49.187  42.225  0.00  0.00    -0.296 N 
ATOM     10  C   UNL     1      89.105  48.467  41.467  0.00  0.00    +0.037 C 
ATOM     11  C   UNL     1      89.593  47.073  41.033  0.00  0.00    -0.045 C 
ATOM     12  C   UNL     1      90.498  48.536  43.509  0.00  0.00    -0.012 C 
ATOM     13  C   UNL     1      90.673  51.454  41.422  0.00  0.00    -0.049 C 
ATOM     14  H   UNL     1      90.992  49.131  41.634  0.00  0.00    +0.000 HD
ENDROOT
BRANCH   6  15
ATOM     15  C   UNL     1      85.941  51.368  44.033  0.00  0.00    -0.003 A 
ATOM     16  C   UNL     1      86.295  51.680  45.361  0.00  0.00    -0.039 A 
ATOM     17  C   UNL     1      87.015  50.679  46.229  0.00  0.00    -0.039 C 
ATOM     18  C   UNL     1      85.979  52.936  45.885  0.00  0.00    -0.016 A 
ATOM     19  C   UNL     1      85.302  53.901  45.120  0.00  0.00    +0.132 A 
ATOM     20  C   UNL     1      84.930  53.603  43.785  0.00  0.00    +0.066 A 
ATOM     21  C   UNL     1      85.256  52.326  43.241  0.00  0.00    -0.003 A 
ATOM     22  C   UNL     1      84.887  52.028  41.912  0.00  0.00    -0.053 A 
ATOM     23  C   UNL     1      84.211  52.959  41.134  0.00  0.00    -0.058 A 
ATOM     24  C   UNL     1      83.889  54.206  41.655  0.00  0.00    -0.019 A 
ATOM     25  C   UNL     1      84.238  54.548  42.974  0.00  0.00    +0.131 A 
BRANCH  25  26
ATOM     26  O   UNL     1      83.908  55.812  43.495  0.00  0.00    -0.494 OA
ATOM     27  C   UNL     1      84.492  57.045  43.083  0.00  0.00    +0.079 C 
ENDBRANCH  25  26
BRANCH  19  28
ATOM     28  O   UNL     1      84.990  55.158  45.671  0.00  0.00    -0.494 OA
ATOM     29  C   UNL     1      84.423  55.373  46.960  0.00  0.00    +0.079 C 
ENDBRANCH  19  28
ENDBRANCH   6  15
BRANCH   1  31
ATOM     30  C   UNL     1      82.969  49.357  44.024  0.00  0.00    +0.079 C 
ATOM     31  O   UNL     1      84.285  49.176  44.536  0.00  0.00    -0.494 OA
ENDBRANCH   1  31
BRANCH   3  32
ATOM     32  O   UNL     1      87.151  46.208  41.901  0.00  0.00    -0.495 OA
ATOM     33  C   UNL     1      86.954  44.964  42.566  0.00  0.00    +0.079 C 
ENDBRANCH   3  32
TORSDOF 5
ENDMDL
MODEL 7
REMARK VINA RESULT:    -7.502      2.794      7.602
REMARK INTER + INTRA:         -11.040
REMARK INTER:                  -9.486
REMARK INTRA:                  -1.554
REMARK UNBOUND:                -1.345
REMARK  Name = 
REMARK  13 active torsions:
REMARK  status: ('A' for Active; 'I' for Inactive)
REMARK    1  A    between atoms: C_1  and  O_2
REMARK    2  A    between atoms: O_2  and  C_3
REMARK    3  A    between atoms: C_5  and  O_6
REMARK    4  A    between atoms: O_6  and  C_7
REMARK    5  A    between atoms: C_10  and  C_11
REMARK    6  A    between atoms: C_12  and  C_13
REMARK    7  A    between atoms: C_15  and  O_24
REMARK    8  A    between atoms: C_21  and  O_22
REMARK    9  A    between atoms: O_22  and  C_23
REMARK   10  A    between atoms: O_24  and  C_25
REMARK   11  A    between atoms: C_27  and  C_32
REMARK   12  A    between atoms: N_28  and  C_31
REMARK   13  A    between atoms: C_29  and  C_30
REMARK                            x       y       z     vdW  Elec       q    Type
REMARK                         _______ _______ _______ _____ _____    ______ ____
ROOT
ATOM      1  C   UNL     1      87.429  49.222  43.087  0.00  0.00    +0.132 A 
ATOM      2  C   UNL     1      87.821  47.974  42.580  0.00  0.00    +0.023 A 
ATOM      3  C   UNL     1      86.941  46.876  42.577  0.00  0.00    +0.129 A 
ATOM      4  C   UNL     1      85.623  47.045  43.072  0.00  0.00    +0.015 A 
ATOM      5  C   UNL     1      85.239  48.289  43.617  0.00  0.00    -0.027 A 
ATOM      6  C   UNL     1      86.141  49.375  43.623  0.00  0.00    +0.028 A 
ATOM      7  C   UNL     1      83.880  48.375  44.284  0.00  0.00    -0.011 C 
ATOM      8  C   UNL     1      82.768  47.689  43.443  0.00  0.00    +0.012 C 
ATOM      9  N   UNL     1      83.248  46.563  42.591  0.00  0.00    -0.296 N 
ATOM     10  C   UNL     1      84.527  45.975  43.071  0.00  0.00    +0.037 C 
ATOM     11  C   UNL     1      84.824  44.647  42.352  0.00  0.00    -0.045 C 
ATOM     12  C   UNL     1      83.292  46.957  41.166  0.00  0.00    -0.012 C 
ATOM     13  C   UNL     1      81.648  47.180  44.352  0.00  0.00    -0.049 C 
ATOM     14  H   UNL     1      82.566  45.809  42.674  0.00  0.00    +0.000 HD
ENDROOT
BRANCH   6  15
ATOM     15  C   UNL     1      85.747  50.699  44.171  0.00  0.00    -0.003 A 
ATOM     16  C   UNL     1      85.173  51.660  43.315  0.00  0.00    -0.039 A 
ATOM     17  C   UNL     1      84.952  51.364  41.852  0.00  0.00    -0.039 C 
ATOM     18  C   UNL     1      84.798  52.905  43.824  0.00  0.00    -0.016 A 
ATOM     19  C   UNL     1      84.989  53.233  45.177  0.00  0.00    +0.132 A 
ATOM     20  C   UNL     1      85.574  52.283  46.053  0.00  0.00    +0.066 A 
ATOM     21  C   UNL     1      85.952  51.006  45.542  0.00  0.00    -0.003 A 
ATOM     22  C   UNL     1      86.533  50.060  46.412  0.00  0.00    -0.053 A 
ATOM     23  C   UNL     1      86.742  50.358  47.752  0.00  0.00    -0.058 A 
ATOM     24  C   UNL     1      86.377  51.599  48.260  0.00  0.00    -0.019 A 
ATOM     25  C   UNL     1      85.792  52.573  47.430  0.00  0.00    +0.131 A 
BRANCH  25  26
ATOM     26  O   UNL     1      85.425  53.827  47.951  0.00  0.00    -0.494 OA
ATOM     27  C   UNL     1      84.488  54.034  49.003  0.00  0.00    +0.079 C 
ENDBRANCH  25  26
BRANCH  19  28
ATOM     28  O   UNL     1      84.608  54.496  45.666  0.00  0.00    -0.494 OA
ATOM     29  C   UNL     1      84.963  55.746  45.082  0.00  0.00    +0.079 C 
ENDBRANCH  19  28
ENDBRANCH   6  15
BRANCH   1  31
ATOM     30  C   UNL     1      88.914  50.873  41.922  0.00  0.00    +0.079 C 
ATOM     31  O   UNL     1      88.293  50.331  43.083  0.00  0.00    -0.494 OA
ENDBRANCH   1  31
BRANCH   3  32
ATOM     32  O   UNL     1      87.362  45.626  42.098  0.00  0.00    -0.495 OA
ATOM     33  C   UNL     1      88.547  44.946  42.502  0.00  0.00    +0.079 C 
ENDBRANCH   3  32
TORSDOF 5
ENDMDL
MODEL 8
REMARK VINA RESULT:    -7.145      2.660      7.375
REMARK INTER + INTRA:         -10.578
REMARK INTER:                  -8.929
REMARK INTRA:                  -1.649
REMARK UNBOUND:                -1.345
REMARK  Name = 
REMARK  13 active torsions:
REMARK  status: ('A' for Active; 'I' for Inactive)
REMARK    1  A    between atoms: C_1  and  O_2
REMARK    2  A    between atoms: O_2  and  C_3
REMARK    3  A    between atoms: C_5  and  O_6
REMARK    4  A    between atoms: O_6  and  C_7
REMARK    5  A    between atoms: C_10  and  C_11
REMARK    6  A    between atoms: C_12  and  C_13
REMARK    7  A    between atoms: C_15  and  O_24
REMARK    8  A    between atoms: C_21  and  O_22
REMARK    9  A    between atoms: O_22  and  C_23
REMARK   10  A    between atoms: O_24  and  C_25
REMARK   11  A    between atoms: C_27  and  C_32
REMARK   12  A    between atoms: N_28  and  C_31
REMARK   13  A    between atoms: C_29  and  C_30
REMARK                            x       y       z     vdW  Elec       q    Type
REMARK                         _______ _______ _______ _____ _____    ______ ____
ROOT
ATOM      1  C   UNL     1      87.487  49.164  43.239  0.00  0.00    +0.132 A 
ATOM      2  C   UNL     1      87.815  47.895  42.739  0.00  0.00    +0.023 A 
ATOM      3  C   UNL     1      86.867  46.857  42.701  0.00  0.00    +0.129 A 
ATOM      4  C   UNL     1      85.547  47.109  43.153  0.00  0.00    +0.015 A 
ATOM      5  C   UNL     1      85.225  48.373  43.691  0.00  0.00    -0.027 A 
ATOM      6  C   UNL     1      86.195  49.398  43.732  0.00  0.00    +0.028 A 
ATOM      7  C   UNL     1      83.853  48.545  44.313  0.00  0.00    -0.011 C 
ATOM      8  C   UNL     1      82.728  47.935  43.432  0.00  0.00    +0.012 C 
ATOM      9  N   UNL     1      83.163  46.782  42.591  0.00  0.00    -0.296 N 
ATOM     10  C   UNL     1      84.385  46.112  43.110  0.00  0.00    +0.037 C 
ATOM     11  C   UNL     1      84.619  44.769  42.395  0.00  0.00    -0.045 C 
ATOM     12  C   UNL     1      83.280  47.177  41.170  0.00  0.00    -0.012 C 
ATOM     13  C   UNL     1      81.548  47.497  44.300  0.00  0.00    -0.049 C 
ATOM     14  H   UNL     1      82.431  46.074  42.647  0.00  0.00    +0.000 HD
ENDROOT
BRANCH   6  15
ATOM     15  C   UNL     1      85.869  50.744  44.274  0.00  0.00    -0.003 A 
ATOM     16  C   UNL     1      86.056  51.000  45.647  0.00  0.00    -0.039 A 
ATOM     17  C   UNL     1      86.581  49.932  46.573  0.00  0.00    -0.039 C 
ATOM     18  C   UNL     1      85.755  52.263  46.162  0.00  0.00    -0.016 A 
ATOM     19  C   UNL     1      85.255  53.290  45.344  0.00  0.00    +0.132 A 
ATOM     20  C   UNL     1      85.052  53.049  43.961  0.00  0.00    +0.066 A 
ATOM     21  C   UNL     1      85.366  51.765  43.426  0.00  0.00    -0.003 A 
ATOM     22  C   UNL     1      85.165  51.523  42.051  0.00  0.00    -0.053 A 
ATOM     23  C   UNL     1      84.665  52.517  41.218  0.00  0.00    -0.058 A 
ATOM     24  C   UNL     1      84.357  53.771  41.730  0.00  0.00    -0.019 A 
ATOM     25  C   UNL     1      84.543  54.058  43.095  0.00  0.00    +0.131 A 
BRANCH  25  26
ATOM     26  O   UNL     1      84.229  55.330  43.606  0.00  0.00    -0.494 OA
ATOM     27  C   UNL     1      84.556  56.567  42.980  0.00  0.00    +0.079 C 
ENDBRANCH  25  26
BRANCH  19  28
ATOM     28  O   UNL     1      84.954  54.553  45.887  0.00  0.00    -0.494 OA
ATOM     29  C   UNL     1      85.808  55.306  46.742  0.00  0.00    +0.079 C 
ENDBRANCH  19  28
ENDBRANCH   6  15
BRANCH   1  31
ATOM     30  C   UNL     1      88.939  50.875  42.118  0.00  0.00    +0.079 C 
ATOM     31  O   UNL     1      88.421  50.215  43.269  0.00  0.00    -0.494 OA
ENDBRANCH   1  31
BRANCH   3  32
ATOM     32  O   UNL     1      87.222  45.583  42.230  0.00  0.00    -0.495 OA
ATOM     33  C   UNL     1      88.472  44.938  42.462  0.00  0.00    +0.079 C 
ENDBRANCH   3  32
TORSDOF 5
ENDMDL
MODEL 9
REMARK VINA RESULT:    -6.916      0.931      2.647
REMARK INTER + INTRA:         -10.282
REMARK INTER:                  -8.938
REMARK INTRA:                  -1.345
REMARK UNBOUND:                -1.345
REMARK  Name = 
REMARK  13 active torsions:
REMARK  status: ('A' for Active; 'I' for Inactive)
REMARK    1  A    between atoms: C_1  and  O_2
REMARK    2  A    between atoms: O_2  and  C_3
REMARK    3  A    between atoms: C_5  and  O_6
REMARK    4  A    between atoms: O_6  and  C_7
REMARK    5  A    between atoms: C_10  and  C_11
REMARK    6  A    between atoms: C_12  and  C_13
REMARK    7  A    between atoms: C_15  and  O_24
REMARK    8  A    between atoms: C_21  and  O_22
REMARK    9  A    between atoms: O_22  and  C_23
REMARK   10  A    between atoms: O_24  and  C_25
REMARK   11  A    between atoms: C_27  and  C_32
REMARK   12  A    between atoms: N_28  and  C_31
REMARK   13  A    between atoms: C_29  and  C_30
REMARK                            x       y       z     vdW  Elec       q    Type
REMARK                         _______ _______ _______ _____ _____    ______ ____
ROOT
ATOM      1  C   UNL     1      85.270  53.330  42.407  0.00  0.00    +0.132 A 
ATOM      2  C   UNL     1      85.724  54.654  42.498  0.00  0.00    +0.023 A 
ATOM      3  C   UNL     1      85.606  55.387  43.693  0.00  0.00    +0.129 A 
ATOM      4  C   UNL     1      85.041  54.763  44.834  0.00  0.00    +0.015 A 
ATOM      5  C   UNL     1      84.549  53.445  44.734  0.00  0.00    -0.027 A 
ATOM      6  C   UNL     1      84.665  52.730  43.522  0.00  0.00    +0.028 A 
ATOM      7  C   UNL     1      83.804  52.879  45.928  0.00  0.00    -0.011 C 
ATOM      8  C   UNL     1      84.531  53.176  47.268  0.00  0.00    +0.012 C 
ATOM      9  N   UNL     1      85.342  54.428  47.263  0.00  0.00    -0.296 N 
ATOM     10  C   UNL     1      84.908  55.398  46.222  0.00  0.00    +0.037 C 
ATOM     11  C   UNL     1      85.563  56.772  46.446  0.00  0.00    -0.045 C 
ATOM     12  C   UNL     1      86.788  54.123  47.203  0.00  0.00    -0.012 C 
ATOM     13  C   UNL     1      83.525  53.242  48.418  0.00  0.00    -0.049 C 
ATOM     14  H   UNL     1      85.171  54.902  48.150  0.00  0.00    +0.000 HD
ENDROOT
BRANCH   6  15
ATOM     15  C   UNL     1      84.174  51.332  43.403  0.00  0.00    -0.003 A 
ATOM     16  C   UNL     1      82.889  51.093  42.876  0.00  0.00    -0.039 A 
ATOM     17  C   UNL     1      82.007  52.233  42.430  0.00  0.00    -0.039 C 
ATOM     18  C   UNL     1      82.422  49.782  42.759  0.00  0.00    -0.016 A 
ATOM     19  C   UNL     1      83.201  48.686  43.167  0.00  0.00    +0.132 A 
ATOM     20  C   UNL     1      84.492  48.907  43.709  0.00  0.00    +0.066 A 
ATOM     21  C   UNL     1      84.979  50.242  43.823  0.00  0.00    -0.003 A 
ATOM     22  C   UNL     1      86.265  50.463  44.361  0.00  0.00    -0.053 A 
ATOM     23  C   UNL     1      87.055  49.400  44.780  0.00  0.00    -0.058 A 
ATOM     24  C   UNL     1      86.590  48.096  44.672  0.00  0.00    -0.019 A 
ATOM     25  C   UNL     1      85.315  47.827  44.140  0.00  0.00    +0.131 A 
BRANCH  25  26
ATOM     26  O   UNL     1      84.851  46.504  44.034  0.00  0.00    -0.494 OA
ATOM     27  C   UNL     1      85.674  45.362  43.814  0.00  0.00    +0.079 C 
ENDBRANCH  25  26
BRANCH  19  28
ATOM     28  O   UNL     1      82.707  47.374  43.044  0.00  0.00    -0.494 OA
ATOM     29  C   UNL     1      81.432  46.929  43.500  0.00  0.00    +0.079 C 
ENDBRANCH  19  28
ENDBRANCH   6  15
BRANCH   1  31
ATOM     30  C   UNL     1      86.628  52.121  40.680  0.00  0.00    +0.079 C 
ATOM     31  O   UNL     1      85.395  52.581  41.224  0.00  0.00    -0.494 OA
ENDBRANCH   1  31
BRANCH   3  32
ATOM     32  O   UNL     1      86.034  56.723  43.756  0.00  0.00    -0.495 OA
ATOM     33  C   UNL     1      85.256  57.855  43.378  0.00  0.00    +0.079 C 
ENDBRANCH   3  32
TORSDOF 5
ENDMDL
