MODEL 1
REMARK VINA RESULT:    -9.251      0.000      0.000
REMARK INTER + INTRA:         -13.105
REMARK INTER:                 -12.032
REMARK INTRA:                  -1.073
REMARK UNBOUND:                -1.150
REMARK  Name = 
REMARK  13 active torsions:
REMARK  status: ('A' for Active; 'I' for Inactive)
REMARK    1  A    between atoms: C_1  and  O_2
REMARK    2  A    between atoms: O_2  and  C_3
REMARK    3  A    between atoms: C_5  and  O_6
REMARK    4  A    between atoms: O_6  and  C_7
REMARK    5  A    between atoms: C_10  and  C_11
REMARK    6  A    between atoms: C_12  and  C_13
REMARK    7  A    between atoms: C_15  and  O_24
REMARK    8  A    between atoms: C_21  and  O_22
REMARK    9  A    between atoms: O_22  and  C_23
REMARK   10  A    between atoms: O_24  and  C_25
REMARK   11  A    between atoms: C_27  and  C_32
REMARK   12  A    between atoms: N_28  and  C_31
REMARK   13  A    between atoms: C_29  and  C_30
REMARK                            x       y       z     vdW  Elec       q    Type
REMARK                         _______ _______ _______ _____ _____    ______ ____
ROOT
ATOM      1  C   UNL     1      85.215  53.576  43.039  0.00  0.00    +0.132 A 
ATOM      2  C   UNL     1      85.146  54.971  42.907  0.00  0.00    +0.023 A 
ATOM      3  C   UNL     1      84.809  55.793  43.998  0.00  0.00    +0.129 A 
ATOM      4  C   UNL     1      84.560  55.198  45.261  0.00  0.00    +0.015 A 
ATOM      5  C   UNL     1      84.592  53.793  45.387  0.00  0.00    -0.027 A 
ATOM      6  C   UNL     1      84.920  52.985  44.276  0.00  0.00    +0.028 A 
ATOM      7  C   UNL     1      84.158  53.194  46.710  0.00  0.00    -0.011 C 
ATOM      8  C   UNL     1      84.772  53.946  47.924  0.00  0.00    +0.012 C 
ATOM      9  N   UNL     1      85.057  55.388  47.674  0.00  0.00    -0.296 N 
ATOM     10  C   UNL     1      84.254  55.954  46.557  0.00  0.00    +0.037 C 
ATOM     11  C   UNL     1      84.357  57.490  46.532  0.00  0.00    -0.045 C 
ATOM     12  C   UNL     1      86.508  55.623  47.519  0.00  0.00    -0.012 C 
ATOM     13  C   UNL     1      83.858  53.825  49.145  0.00  0.00    -0.049 C 
ATOM     14  H   UNL     1      84.755  55.903  48.501  0.00  0.00    +0.000 HD
ENDROOT
BRANCH   6  15
ATOM     15  C   UNL     1      84.981  51.504  44.394  0.00  0.00    -0.003 A 
ATOM     16  C   UNL     1      86.171  50.894  44.840  0.00  0.00    -0.039 A 
ATOM     17  C   UNL     1      87.381  51.720  45.199  0.00  0.00    -0.039 C 
ATOM     18  C   UNL     1      86.234  49.503  44.955  0.00  0.00    -0.016 A 
ATOM     19  C   UNL     1      85.138  48.688  44.626  0.00  0.00    +0.132 A 
ATOM     20  C   UNL     1      83.936  49.283  44.167  0.00  0.00    +0.066 A 
ATOM     21  C   UNL     1      83.860  50.703  44.054  0.00  0.00    -0.003 A 
ATOM     22  C   UNL     1      82.664  51.296  43.598  0.00  0.00    -0.053 A 
ATOM     23  C   UNL     1      81.566  50.515  43.258  0.00  0.00    -0.058 A 
ATOM     24  C   UNL     1      81.630  49.132  43.365  0.00  0.00    -0.019 A 
ATOM     25  C   UNL     1      82.801  48.497  43.816  0.00  0.00    +0.131 A 
BRANCH  25  26
ATOM     26  O   UNL     1      82.857  47.096  43.922  0.00  0.00    -0.494 OA
ATOM     27  C   UNL     1      81.800  46.267  44.397  0.00  0.00    +0.079 C 
ENDBRANCH  25  26
BRANCH  19  28
ATOM     28  O   UNL     1      85.228  47.290  44.746  0.00  0.00    -0.494 OA
ATOM     29  C   UNL     1      86.107  46.454  43.999  0.00  0.00    +0.079 C 
ENDBRANCH  19  28
ENDBRANCH   6  15
BRANCH   1  31
ATOM     30  C   UNL     1      86.870  52.651  41.397  0.00  0.00    +0.079 C 
ATOM     31  O   UNL     1      85.566  52.745  41.961  0.00  0.00    -0.494 OA
ENDBRANCH   1  31
BRANCH   3  32
ATOM     32  O   UNL     1      84.710  57.184  43.840  0.00  0.00    -0.495 OA
ATOM     33  C   UNL     1      85.803  58.097  43.883  0.00  0.00    +0.079 C 
ENDBRANCH   3  32
TORSDOF 5
ENDMDL
MODEL 2
REMARK VINA RESULT:    -8.837      2.382      4.805
REMARK INTER + INTRA:         -12.570
REMARK INTER:                 -11.038
REMARK INTRA:                  -1.532
REMARK UNBOUND:                -1.150
REMARK  Name = 
REMARK  13 active torsions:
REMARK  status: ('A' for Active; 'I' for Inactive)
REMARK    1  A    between atoms: C_1  and  O_2
REMARK    2  A    between atoms: O_2  and  C_3
REMARK    3  A    between atoms: C_5  and  O_6
REMARK    4  A    between atoms: O_6  and  C_7
REMARK    5  A    between atoms: C_10  and  C_11
REMARK    6  A    between atoms: C_12  and  C_13
REMARK    7  A    between atoms: C_15  and  O_24
REMARK    8  A    between atoms: C_21  and  O_22
REMARK    9  A    between atoms: O_22  and  C_23
REMARK   10  A    between atoms: O_24  and  C_25
REMARK   11  A    between atoms: C_27  and  C_32
REMARK   12  A    between atoms: N_28  and  C_31
REMARK   13  A    between atoms: C_29  and  C_30
REMARK                            x       y       z     vdW  Elec       q    Type
REMARK                         _______ _______ _______ _____ _____    ______ ____
ROOT
ATOM      1  C   UNL     1      86.410  51.597  46.070  0.00  0.00    +0.132 A 
ATOM      2  C   UNL     1      86.589  52.898  46.562  0.00  0.00    +0.023 A 
ATOM      3  C   UNL     1      86.534  54.016  45.709  0.00  0.00    +0.129 A 
ATOM      4  C   UNL     1      86.264  53.821  44.330  0.00  0.00    +0.015 A 
ATOM      5  C   UNL     1      86.122  52.511  43.827  0.00  0.00    -0.027 A 
ATOM      6  C   UNL     1      86.194  51.401  44.698  0.00  0.00    +0.028 A 
ATOM      7  C   UNL     1      86.002  52.342  42.325  0.00  0.00    -0.011 C 
ATOM      8  C   UNL     1      85.016  53.365  41.696  0.00  0.00    +0.012 C 
ATOM      9  N   UNL     1      84.914  54.656  42.437  0.00  0.00    -0.296 N 
ATOM     10  C   UNL     1      86.101  54.933  43.289  0.00  0.00    +0.037 C 
ATOM     11  C   UNL     1      86.088  56.388  43.791  0.00  0.00    -0.045 C 
ATOM     12  C   UNL     1      83.637  54.742  43.179  0.00  0.00    -0.012 C 
ATOM     13  C   UNL     1      85.402  53.656  40.245  0.00  0.00    -0.049 C 
ATOM     14  H   UNL     1      84.909  55.403  41.743  0.00  0.00    +0.000 HD
ENDROOT
BRANCH   6  15
ATOM     15  C   UNL     1      86.023  50.014  44.191  0.00  0.00    -0.003 A 
ATOM     16  C   UNL     1      84.738  49.435  44.181  0.00  0.00    -0.039 A 
ATOM     17  C   UNL     1      83.536  50.201  44.674  0.00  0.00    -0.039 C 
ATOM     18  C   UNL     1      84.570  48.133  43.703  0.00  0.00    -0.016 A 
ATOM     19  C   UNL     1      85.658  47.374  43.239  0.00  0.00    +0.132 A 
ATOM     20  C   UNL     1      86.960  47.937  43.251  0.00  0.00    +0.066 A 
ATOM     21  C   UNL     1      87.138  49.268  43.729  0.00  0.00    -0.003 A 
ATOM     22  C   UNL     1      88.433  49.829  43.740  0.00  0.00    -0.053 A 
ATOM     23  C   UNL     1      89.529  49.101  43.295  0.00  0.00    -0.058 A 
ATOM     24  C   UNL     1      89.365  47.804  42.827  0.00  0.00    -0.019 A 
ATOM     25  C   UNL     1      88.093  47.204  42.796  0.00  0.00    +0.131 A 
BRANCH  25  26
ATOM     26  O   UNL     1      87.935  45.890  42.320  0.00  0.00    -0.494 OA
ATOM     27  C   UNL     1      88.630  44.750  42.818  0.00  0.00    +0.079 C 
ENDBRANCH  25  26
BRANCH  19  28
ATOM     28  O   UNL     1      85.465  46.063  42.768  0.00  0.00    -0.494 OA
ATOM     29  C   UNL     1      84.633  45.083  43.381  0.00  0.00    +0.079 C 
ENDBRANCH  19  28
ENDBRANCH   6  15
BRANCH   1  31
ATOM     30  C   UNL     1      87.567  50.086  47.703  0.00  0.00    +0.079 C 
ATOM     31  O   UNL     1      86.447  50.473  46.913  0.00  0.00    -0.494 OA
ENDBRANCH   1  31
BRANCH   3  32
ATOM     32  O   UNL     1      86.750  55.309  46.212  0.00  0.00    -0.495 OA
ATOM     33  C   UNL     1      86.062  55.888  47.317  0.00  0.00    +0.079 C 
ENDBRANCH   3  32
TORSDOF 5
ENDMDL
MODEL 3
REMARK VINA RESULT:    -8.579      2.250      4.049
REMARK INTER + INTRA:         -12.237
REMARK INTER:                 -10.854
REMARK INTRA:                  -1.383
REMARK UNBOUND:                -1.150
REMARK  Name = 
REMARK  13 active torsions:
REMARK  status: ('A' for Active; 'I' for Inactive)
REMARK    1  A    between atoms: C_1  and  O_2
REMARK    2  A    between atoms: O_2  and  C_3
REMARK    3  A    between atoms: C_5  and  O_6
REMARK    4  A    between atoms: O_6  and  C_7
REMARK    5  A    between atoms: C_10  and  C_11
REMARK    6  A    between atoms: C_12  and  C_13
REMARK    7  A    between atoms: C_15  and  O_24
REMARK    8  A    between atoms: C_21  and  O_22
REMARK    9  A    between atoms: O_22  and  C_23
REMARK   10  A    between atoms: O_24  and  C_25
REMARK   11  A    between atoms: C_27  and  C_32
REMARK   12  A    between atoms: N_28  and  C_31
REMARK   13  A    between atoms: C_29  and  C_30
REMARK                            x       y       z     vdW  Elec       q    Type
REMARK                         _______ _______ _______ _____ _____    ______ ____
ROOT
ATOM      1  C   UNL     1      86.686  51.330  46.028  0.00  0.00    +0.132 A 
ATOM      2  C   UNL     1      86.682  52.631  46.552  0.00  0.00    +0.023 A 
ATOM      3  C   UNL     1      86.567  53.756  45.714  0.00  0.00    +0.129 A 
ATOM      4  C   UNL     1      86.425  53.566  44.316  0.00  0.00    +0.015 A 
ATOM      5  C   UNL     1      86.468  52.260  43.784  0.00  0.00    -0.027 A 
ATOM      6  C   UNL     1      86.596  51.145  44.640  0.00  0.00    +0.028 A 
ATOM      7  C   UNL     1      86.481  52.115  42.275  0.00  0.00    -0.011 C 
ATOM      8  C   UNL     1      85.437  53.039  41.587  0.00  0.00    +0.012 C 
ATOM      9  N   UNL     1      85.136  54.292  42.337  0.00  0.00    -0.296 N 
ATOM     10  C   UNL     1      86.218  54.677  43.282  0.00  0.00    +0.037 C 
ATOM     11  C   UNL     1      86.006  56.110  43.804  0.00  0.00    -0.045 C 
ATOM     12  C   UNL     1      83.806  54.220  42.979  0.00  0.00    -0.012 C 
ATOM     13  C   UNL     1      85.896  53.404  40.174  0.00  0.00    -0.049 C 
ATOM     14  H   UNL     1      85.101  55.050  41.656  0.00  0.00    +0.000 HD
ENDROOT
BRANCH   6  15
ATOM     15  C   UNL     1      86.620  49.760  44.101  0.00  0.00    -0.003 A 
ATOM     16  C   UNL     1      87.846  49.195  43.696  0.00  0.00    -0.039 A 
ATOM     17  C   UNL     1      89.133  49.975  43.803  0.00  0.00    -0.039 C 
ATOM     18  C   UNL     1      87.876  47.894  43.190  0.00  0.00    -0.016 A 
ATOM     19  C   UNL     1      86.704  47.128  43.063  0.00  0.00    +0.132 A 
ATOM     20  C   UNL     1      85.459  47.682  43.457  0.00  0.00    +0.066 A 
ATOM     21  C   UNL     1      85.422  49.007  43.981  0.00  0.00    -0.003 A 
ATOM     22  C   UNL     1      84.184  49.559  44.374  0.00  0.00    -0.053 A 
ATOM     23  C   UNL     1      83.009  48.829  44.253  0.00  0.00    -0.058 A 
ATOM     24  C   UNL     1      83.034  47.538  43.744  0.00  0.00    -0.019 A 
ATOM     25  C   UNL     1      84.245  46.946  43.341  0.00  0.00    +0.131 A 
BRANCH  25  26
ATOM     26  O   UNL     1      84.264  45.637  42.826  0.00  0.00    -0.494 OA
ATOM     27  C   UNL     1      84.091  44.452  43.596  0.00  0.00    +0.079 C 
ENDBRANCH  25  26
BRANCH  19  28
ATOM     28  O   UNL     1      86.758  45.821  42.546  0.00  0.00    -0.494 OA
ATOM     29  C   UNL     1      87.924  45.005  42.493  0.00  0.00    +0.079 C 
ENDBRANCH  19  28
ENDBRANCH   6  15
BRANCH   1  31
ATOM     30  C   UNL     1      87.652  50.083  47.977  0.00  0.00    +0.079 C 
ATOM     31  O   UNL     1      86.785  50.197  46.854  0.00  0.00    -0.494 OA
ENDBRANCH   1  31
BRANCH   3  32
ATOM     32  O   UNL     1      86.600  55.052  46.252  0.00  0.00    -0.495 OA
ATOM     33  C   UNL     1      85.821  55.506  47.355  0.00  0.00    +0.079 C 
ENDBRANCH   3  32
TORSDOF 5
ENDMDL
MODEL 4
REMARK VINA RESULT:    -8.493      1.766      3.445
REMARK INTER + INTRA:         -12.125
REMARK INTER:                 -10.776
REMARK INTRA:                  -1.349
REMARK UNBOUND:                -1.150
REMARK  Name = 
REMARK  13 active torsions:
REMARK  status: ('A' for Active; 'I' for Inactive)
REMARK    1  A    between atoms: C_1  and  O_2
REMARK    2  A    between atoms: O_2  and  C_3
REMARK    3  A    between atoms: C_5  and  O_6
REMARK    4  A    between atoms: O_6  and  C_7
REMARK    5  A    between atoms: C_10  and  C_11
REMARK    6  A    between atoms: C_12  and  C_13
REMARK    7  A    between atoms: C_15  and  O_24
REMARK    8  A    between atoms: C_21  and  O_22
REMARK    9  A    between atoms: O_22  and  C_23
REMARK   10  A    between atoms: O_24  and  C_25
REMARK   11  A    between atoms: C_27  and  C_32
REMARK   12  A    between atoms: N_28  and  C_31
REMARK   13  A    between atoms: C_29  and  C_30
REMARK                            x       y       z     vdW  Elec       q    Type
REMARK                         _______ _______ _______ _____ _____    ______ ____
ROOT
ATOM      1  C   UNL     1      85.043  53.098  46.507  0.00  0.00    +0.132 A 
ATOM      2  C   UNL     1      84.980  54.483  46.719  0.00  0.00    +0.023 A 
ATOM      3  C   UNL     1      85.068  55.392  45.649  0.00  0.00    +0.129 A 
ATOM      4  C   UNL     1      85.195  54.894  44.327  0.00  0.00    +0.015 A 
ATOM      5  C   UNL     1      85.298  53.503  44.115  0.00  0.00    -0.027 A 
ATOM      6  C   UNL     1      85.220  52.608  45.204  0.00  0.00    +0.028 A 
ATOM      7  C   UNL     1      85.600  53.026  42.708  0.00  0.00    -0.011 C 
ATOM      8  C   UNL     1      84.741  53.761  41.641  0.00  0.00    +0.012 C 
ATOM      9  N   UNL     1      84.342  55.146  42.022  0.00  0.00    -0.296 N 
ATOM     10  C   UNL     1      85.231  55.745  43.054  0.00  0.00    +0.037 C 
ATOM     11  C   UNL     1      84.967  57.255  43.195  0.00  0.00    -0.045 C 
ATOM     12  C   UNL     1      82.910  55.203  42.389  0.00  0.00    -0.012 C 
ATOM     13  C   UNL     1      85.479  53.808  40.302  0.00  0.00    -0.049 C 
ATOM     14  H   UNL     1      84.465  55.734  41.198  0.00  0.00    +0.000 HD
ENDROOT
BRANCH   6  15
ATOM     15  C   UNL     1      85.303  51.138  44.999  0.00  0.00    -0.003 A 
ATOM     16  C   UNL     1      86.516  50.469  45.261  0.00  0.00    -0.039 A 
ATOM     17  C   UNL     1      87.729  51.223  45.748  0.00  0.00    -0.039 C 
ATOM     18  C   UNL     1      86.600  49.088  45.073  0.00  0.00    -0.016 A 
ATOM     19  C   UNL     1      85.501  48.341  44.614  0.00  0.00    +0.132 A 
ATOM     20  C   UNL     1      84.275  48.997  44.336  0.00  0.00    +0.066 A 
ATOM     21  C   UNL     1      84.179  50.406  44.534  0.00  0.00    -0.003 A 
ATOM     22  C   UNL     1      82.960  51.060  44.258  0.00  0.00    -0.053 A 
ATOM     23  C   UNL     1      81.859  50.349  43.796  0.00  0.00    -0.058 A 
ATOM     24  C   UNL     1      81.942  48.977  43.601  0.00  0.00    -0.019 A 
ATOM     25  C   UNL     1      83.137  48.282  43.864  0.00  0.00    +0.131 A 
BRANCH  25  26
ATOM     26  O   UNL     1      83.214  46.892  43.664  0.00  0.00    -0.494 OA
ATOM     27  C   UNL     1      82.288  45.939  44.176  0.00  0.00    +0.079 C 
ENDBRANCH  25  26
BRANCH  19  28
ATOM     28  O   UNL     1      85.611  46.951  44.427  0.00  0.00    -0.494 OA
ATOM     29  C   UNL     1      86.477  46.313  43.492  0.00  0.00    +0.079 C 
ENDBRANCH  19  28
ENDBRANCH   6  15
BRANCH   1  31
ATOM     30  C   UNL     1      85.673  52.259  48.784  0.00  0.00    +0.079 C 
ATOM     31  O   UNL     1      84.942  52.179  47.565  0.00  0.00    -0.494 OA
ENDBRANCH   1  31
BRANCH   3  32
ATOM     32  O   UNL     1      85.038  56.776  45.883  0.00  0.00    -0.495 OA
ATOM     33  C   UNL     1      84.115  57.446  46.737  0.00  0.00    +0.079 C 
ENDBRANCH   3  32
TORSDOF 5
ENDMDL
MODEL 5
REMARK VINA RESULT:    -8.177      2.548      7.571
REMARK INTER + INTRA:         -11.717
REMARK INTER:                 -10.377
REMARK INTRA:                  -1.340
REMARK UNBOUND:                -1.150
REMARK  Name = 
REMARK  13 active torsions:
REMARK  status: ('A' for Active; 'I' for Inactive)
REMARK    1  A    between atoms: C_1  and  O_2
REMARK    2  A    between atoms: O_2  and  C_3
REMARK    3  A    between atoms: C_5  and  O_6
REMARK    4  A    between atoms: O_6  and  C_7
REMARK    5  A    between atoms: C_10  and  C_11
REMARK    6  A    between atoms: C_12  and  C_13
REMARK    7  A    between atoms: C_15  and  O_24
REMARK    8  A    between atoms: C_21  and  O_22
REMARK    9  A    between atoms: O_22  and  C_23
REMARK   10  A    between atoms: O_24  and  C_25
REMARK   11  A    between atoms: C_27  and  C_32
REMARK   12  A    between atoms: N_28  and  C_31
REMARK   13  A    between atoms: C_29  and  C_30
REMARK                            x       y       z     vdW  Elec       q    Type
REMARK                         _______ _______ _______ _____ _____    ______ ____
ROOT
ATOM      1  C   UNL     1      84.412  49.576  44.093  0.00  0.00    +0.132 A 
ATOM      2  C   UNL     1      84.693  48.220  43.868  0.00  0.00    +0.023 A 
ATOM      3  C   UNL     1      85.862  47.817  43.197  0.00  0.00    +0.129 A 
ATOM      4  C   UNL     1      86.786  48.802  42.764  0.00  0.00    +0.015 A 
ATOM      5  C   UNL     1      86.487  50.168  42.955  0.00  0.00    -0.027 A 
ATOM      6  C   UNL     1      85.302  50.552  43.620  0.00  0.00    +0.028 A 
ATOM      7  C   UNL     1      87.419  51.187  42.330  0.00  0.00    -0.011 C 
ATOM      8  C   UNL     1      88.915  50.835  42.562  0.00  0.00    +0.012 C 
ATOM      9  N   UNL     1      89.188  49.375  42.699  0.00  0.00    -0.296 N 
ATOM     10  C   UNL     1      88.132  48.525  42.087  0.00  0.00    +0.037 C 
ATOM     11  C   UNL     1      88.595  47.061  41.987  0.00  0.00    -0.045 C 
ATOM     12  C   UNL     1      89.475  49.018  44.105  0.00  0.00    -0.012 C 
ATOM     13  C   UNL     1      89.777  51.397  41.431  0.00  0.00    -0.049 C 
ATOM     14  H   UNL     1      90.030  49.174  42.160  0.00  0.00    +0.000 HD
ENDROOT
BRANCH   6  15
ATOM     15  C   UNL     1      84.980  51.985  43.852  0.00  0.00    -0.003 A 
ATOM     16  C   UNL     1      84.346  52.725  42.833  0.00  0.00    -0.039 A 
ATOM     17  C   UNL     1      83.989  52.085  41.515  0.00  0.00    -0.039 C 
ATOM     18  C   UNL     1      84.038  54.071  43.045  0.00  0.00    -0.016 A 
ATOM     19  C   UNL     1      84.357  54.716  44.252  0.00  0.00    +0.132 A 
ATOM     20  C   UNL     1      85.003  53.990  45.285  0.00  0.00    +0.066 A 
ATOM     21  C   UNL     1      85.313  52.614  45.080  0.00  0.00    -0.003 A 
ATOM     22  C   UNL     1      85.955  51.891  46.107  0.00  0.00    -0.053 A 
ATOM     23  C   UNL     1      86.289  52.504  47.308  0.00  0.00    -0.058 A 
ATOM     24  C   UNL     1      85.991  53.844  47.518  0.00  0.00    -0.019 A 
ATOM     25  C   UNL     1      85.350  54.604  46.523  0.00  0.00    +0.131 A 
BRANCH  25  26
ATOM     26  O   UNL     1      85.051  55.960  46.743  0.00  0.00    -0.494 OA
ATOM     27  C   UNL     1      84.074  56.446  47.658  0.00  0.00    +0.079 C 
ENDBRANCH  25  26
BRANCH  19  28
ATOM     28  O   UNL     1      84.042  56.074  44.440  0.00  0.00    -0.494 OA
ATOM     29  C   UNL     1      84.466  57.141  43.597  0.00  0.00    +0.079 C 
ENDBRANCH  19  28
ENDBRANCH   6  15
BRANCH   1  31
ATOM     30  C   UNL     1      81.927  49.628  44.418  0.00  0.00    +0.079 C 
ATOM     31  O   UNL     1      83.256  49.991  44.775  0.00  0.00    -0.494 OA
ENDBRANCH   1  31
BRANCH   3  32
ATOM     32  O   UNL     1      86.110  46.457  42.949  0.00  0.00    -0.495 OA
ATOM     33  C   UNL     1      85.116  45.441  42.868  0.00  0.00    +0.079 C 
ENDBRANCH   3  32
TORSDOF 5
ENDMDL
MODEL 6
REMARK VINA RESULT:    -7.898      2.753      7.440
REMARK INTER + INTRA:         -11.356
REMARK INTER:                 -10.156
REMARK INTRA:                  -1.201
REMARK UNBOUND:                -1.150
REMARK  Name = 
REMARK  13 active torsions:
REMARK  status: ('A' for Active; 'I' for Inactive)
REMARK    1  A    between atoms: C_1  and  O_2
REMARK    2  A    between atoms: O_2  and  C_3
REMARK    3  A    between atoms: C_5  and  O_6
REMARK    4  A    between atoms: O_6  and  C_7
REMARK    5  A    between atoms: C_10  and  C_11
REMARK    6  A    between atoms: C_12  and  C_13
REMARK    7  A    between atoms: C_15  and  O_24
REMARK    8  A    between atoms: C_21  and  O_22
REMARK    9  A    between atoms: O_22  and  C_23
REMARK   10  A    between atoms: O_24  and  C_25
REMARK   11  A    between atoms: C_27  and  C_32
REMARK   12  A    between atoms: N_28  and  C_31
REMARK   13  A    between atoms: C_29  and  C_30
REMARK                            x       y       z     vdW  Elec       q    Type
REMARK                         _______ _______ _______ _____ _____    ______ ____
ROOT
ATOM      1  C   UNL     1      85.162  49.182  44.209  0.00  0.00    +0.132 A 
ATOM      2  C   UNL     1      85.412  47.878  43.756  0.00  0.00    +0.023 A 
ATOM      3  C   UNL     1      86.519  47.587  42.939  0.00  0.00    +0.129 A 
ATOM      4  C   UNL     1      87.415  48.630  42.591  0.00  0.00    +0.015 A 
ATOM      5  C   UNL     1      87.145  49.949  43.014  0.00  0.00    -0.027 A 
ATOM      6  C   UNL     1      86.021  50.222  43.823  0.00  0.00    +0.028 A 
ATOM      7  C   UNL     1      88.035  51.055  42.481  0.00  0.00    -0.011 C 
ATOM      8  C   UNL     1      89.541  50.675  42.535  0.00  0.00    +0.012 C 
ATOM      9  N   UNL     1      89.810  49.213  42.423  0.00  0.00    -0.296 N 
ATOM     10  C   UNL     1      88.700  48.465  41.773  0.00  0.00    +0.037 C 
ATOM     11  C   UNL     1      89.140  47.035  41.412  0.00  0.00    -0.045 C 
ATOM     12  C   UNL     1      90.204  48.644  43.730  0.00  0.00    -0.012 C 
ATOM     13  C   UNL     1      90.316  51.408  41.439  0.00  0.00    -0.049 C 
ATOM     14  H   UNL     1      90.605  49.100  41.794  0.00  0.00    +0.000 HD
ENDROOT
BRANCH   6  15
ATOM     15  C   UNL     1      85.732  51.601  44.298  0.00  0.00    -0.003 A 
ATOM     16  C   UNL     1      86.176  52.000  45.575  0.00  0.00    -0.039 A 
ATOM     17  C   UNL     1      86.940  51.050  46.464  0.00  0.00    -0.039 C 
ATOM     18  C   UNL     1      85.912  53.295  46.026  0.00  0.00    -0.016 A 
ATOM     19  C   UNL     1      85.198  54.215  45.240  0.00  0.00    +0.132 A 
ATOM     20  C   UNL     1      84.735  53.830  43.956  0.00  0.00    +0.066 A 
ATOM     21  C   UNL     1      85.009  52.512  43.485  0.00  0.00    -0.003 A 
ATOM     22  C   UNL     1      84.549  52.127  42.207  0.00  0.00    -0.053 A 
ATOM     23  C   UNL     1      83.835  53.013  41.411  0.00  0.00    -0.058 A 
ATOM     24  C   UNL     1      83.564  54.298  41.860  0.00  0.00    -0.019 A 
ATOM     25  C   UNL     1      84.003  54.727  43.126  0.00  0.00    +0.131 A 
BRANCH  25  26
ATOM     26  O   UNL     1      83.725  56.030  43.575  0.00  0.00    -0.494 OA
ATOM     27  C   UNL     1      84.483  57.190  43.244  0.00  0.00    +0.079 C 
ENDBRANCH  25  26
BRANCH  19  28
ATOM     28  O   UNL     1      84.939  55.512  45.718  0.00  0.00    -0.494 OA
ATOM     29  C   UNL     1      85.605  56.134  46.813  0.00  0.00    +0.079 C 
ENDBRANCH  19  28
ENDBRANCH   6  15
BRANCH   1  31
ATOM     30  C   UNL     1      82.729  49.655  44.585  0.00  0.00    +0.079 C 
ATOM     31  O   UNL     1      84.068  49.484  45.037  0.00  0.00    -0.494 OA
ENDBRANCH   1  31
BRANCH   3  32
ATOM     32  O   UNL     1      86.734  46.283  42.465  0.00  0.00    -0.495 OA
ATOM     33  C   UNL     1      86.474  45.089  43.197  0.00  0.00    +0.079 C 
ENDBRANCH   3  32
TORSDOF 5
ENDMDL
MODEL 7
REMARK VINA RESULT:    -7.821      0.897      2.690
REMARK INTER + INTRA:         -11.257
REMARK INTER:                 -10.739
REMARK INTRA:                  -0.518
REMARK UNBOUND:                -1.150
REMARK  Name = 
REMARK  13 active torsions:
REMARK  status: ('A' for Active; 'I' for Inactive)
REMARK    1  A    between atoms: C_1  and  O_2
REMARK    2  A    between atoms: O_2  and  C_3
REMARK    3  A    between atoms: C_5  and  O_6
REMARK    4  A    between atoms: O_6  and  C_7
REMARK    5  A    between atoms: C_10  and  C_11
REMARK    6  A    between atoms: C_12  and  C_13
REMARK    7  A    between atoms: C_15  and  O_24
REMARK    8  A    between atoms: C_21  and  O_22
REMARK    9  A    between atoms: O_22  and  C_23
REMARK   10  A    between atoms: O_24  and  C_25
REMARK   11  A    between atoms: C_27  and  C_32
REMARK   12  A    between atoms: N_28  and  C_31
REMARK   13  A    between atoms: C_29  and  C_30
REMARK                            x       y       z     vdW  Elec       q    Type
REMARK                         _______ _______ _______ _____ _____    ______ ____
ROOT
ATOM      1  C   UNL     1      84.753  54.066  42.710  0.00  0.00    +0.132 A 
ATOM      2  C   UNL     1      84.942  55.456  42.699  0.00  0.00    +0.023 A 
ATOM      3  C   UNL     1      84.823  56.219  43.875  0.00  0.00    +0.129 A 
ATOM      4  C   UNL     1      84.535  55.563  45.099  0.00  0.00    +0.015 A 
ATOM      5  C   UNL     1      84.307  54.171  45.105  0.00  0.00    -0.027 A 
ATOM      6  C   UNL     1      84.418  53.425  43.911  0.00  0.00    +0.028 A 
ATOM      7  C   UNL     1      83.838  53.540  46.402  0.00  0.00    -0.011 C 
ATOM      8  C   UNL     1      84.646  54.049  47.628  0.00  0.00    +0.012 C 
ATOM      9  N   UNL     1      85.185  55.431  47.479  0.00  0.00    -0.296 N 
ATOM     10  C   UNL     1      84.445  56.238  46.471  0.00  0.00    +0.037 C 
ATOM     11  C   UNL     1      84.834  57.724  46.565  0.00  0.00    -0.045 C 
ATOM     12  C   UNL     1      86.644  55.410  47.243  0.00  0.00    -0.012 C 
ATOM     13  C   UNL     1      83.792  53.983  48.895  0.00  0.00    -0.049 C 
ATOM     14  H   UNL     1      85.030  55.913  48.364  0.00  0.00    +0.000 HD
ENDROOT
BRANCH   6  15
ATOM     15  C   UNL     1      84.204  51.953  43.902  0.00  0.00    -0.003 A 
ATOM     16  C   UNL     1      82.995  51.433  43.399  0.00  0.00    -0.039 A 
ATOM     17  C   UNL     1      81.916  52.346  42.871  0.00  0.00    -0.039 C 
ATOM     18  C   UNL     1      82.789  50.052  43.384  0.00  0.00    -0.016 A 
ATOM     19  C   UNL     1      83.758  49.159  43.872  0.00  0.00    +0.132 A 
ATOM     20  C   UNL     1      84.978  49.664  44.390  0.00  0.00    +0.066 A 
ATOM     21  C   UNL     1      85.199  51.073  44.401  0.00  0.00    -0.003 A 
ATOM     22  C   UNL     1      86.413  51.577  44.916  0.00  0.00    -0.053 A 
ATOM     23  C   UNL     1      87.386  50.719  45.411  0.00  0.00    -0.058 A 
ATOM     24  C   UNL     1      87.181  49.346  45.405  0.00  0.00    -0.019 A 
ATOM     25  C   UNL     1      85.987  48.798  44.900  0.00  0.00    +0.131 A 
BRANCH  25  26
ATOM     26  O   UNL     1      85.786  47.406  44.897  0.00  0.00    -0.494 OA
ATOM     27  C   UNL     1      86.380  46.495  43.977  0.00  0.00    +0.079 C 
ENDBRANCH  25  26
BRANCH  19  28
ATOM     28  O   UNL     1      83.526  47.772  43.852  0.00  0.00    -0.494 OA
ATOM     29  C   UNL     1      82.415  47.133  43.230  0.00  0.00    +0.079 C 
ENDBRANCH  19  28
ENDBRANCH   6  15
BRANCH   1  31
ATOM     30  C   UNL     1      84.855  53.804  40.218  0.00  0.00    +0.079 C 
ATOM     31  O   UNL     1      84.883  53.289  41.545  0.00  0.00    -0.494 OA
ENDBRANCH   1  31
BRANCH   3  32
ATOM     32  O   UNL     1      84.981  57.614  43.840  0.00  0.00    -0.495 OA
ATOM     33  C   UNL     1      86.219  58.305  43.970  0.00  0.00    +0.079 C 
ENDBRANCH   3  32
TORSDOF 5
ENDMDL
MODEL 8
REMARK VINA RESULT:    -7.601      1.746      3.270
REMARK INTER + INTRA:         -10.972
REMARK INTER:                  -9.822
REMARK INTRA:                  -1.150
REMARK UNBOUND:                -1.150
REMARK  Name = 
REMARK  13 active torsions:
REMARK  status: ('A' for Active; 'I' for Inactive)
REMARK    1  A    between atoms: C_1  and  O_2
REMARK    2  A    between atoms: O_2  and  C_3
REMARK    3  A    between atoms: C_5  and  O_6
REMARK    4  A    between atoms: O_6  and  C_7
REMARK    5  A    between atoms: C_10  and  C_11
REMARK    6  A    between atoms: C_12  and  C_13
REMARK    7  A    between atoms: C_15  and  O_24
REMARK    8  A    between atoms: C_21  and  O_22
REMARK    9  A    between atoms: O_22  and  C_23
REMARK   10  A    between atoms: O_24  and  C_25
REMARK   11  A    between atoms: C_27  and  C_32
REMARK   12  A    between atoms: N_28  and  C_31
REMARK   13  A    between atoms: C_29  and  C_30
REMARK                            x       y       z     vdW  Elec       q    Type
REMARK                         _______ _______ _______ _____ _____    ______ ____
ROOT
ATOM      1  C   UNL     1      84.705  53.367  42.672  0.00  0.00    +0.132 A 
ATOM      2  C   UNL     1      84.404  54.730  42.803  0.00  0.00    +0.023 A 
ATOM      3  C   UNL     1      84.354  55.351  44.064  0.00  0.00    +0.129 A 
ATOM      4  C   UNL     1      84.643  54.586  45.223  0.00  0.00    +0.015 A 
ATOM      5  C   UNL     1      84.908  53.206  45.097  0.00  0.00    -0.027 A 
ATOM      6  C   UNL     1      84.940  52.599  43.822  0.00  0.00    +0.028 A 
ATOM      7  C   UNL     1      85.045  52.396  46.372  0.00  0.00    -0.011 C 
ATOM      8  C   UNL     1      85.932  53.111  47.429  0.00  0.00    +0.012 C 
ATOM      9  N   UNL     1      85.911  54.600  47.343  0.00  0.00    -0.296 N 
ATOM     10  C   UNL     1      84.702  55.126  46.656  0.00  0.00    +0.037 C 
ATOM     11  C   UNL     1      84.578  56.647  46.852  0.00  0.00    -0.045 C 
ATOM     12  C   UNL     1      87.173  55.115  46.770  0.00  0.00    -0.012 C 
ATOM     13  C   UNL     1      85.522  52.690  48.842  0.00  0.00    -0.049 C 
ATOM     14  H   UNL     1      85.846  54.957  48.296  0.00  0.00    +0.000 HD
ENDROOT
BRANCH   6  15
ATOM     15  C   UNL     1      85.241  51.152  43.667  0.00  0.00    -0.003 A 
ATOM     16  C   UNL     1      84.218  50.206  43.878  0.00  0.00    -0.039 A 
ATOM     17  C   UNL     1      82.824  50.641  44.257  0.00  0.00    -0.039 C 
ATOM     18  C   UNL     1      84.493  48.844  43.731  0.00  0.00    -0.016 A 
ATOM     19  C   UNL     1      85.776  48.387  43.387  0.00  0.00    +0.132 A 
ATOM     20  C   UNL     1      86.821  49.323  43.180  0.00  0.00    +0.066 A 
ATOM     21  C   UNL     1      86.546  50.715  43.320  0.00  0.00    -0.003 A 
ATOM     22  C   UNL     1      87.585  51.647  43.113  0.00  0.00    -0.053 A 
ATOM     23  C   UNL     1      88.865  51.225  42.780  0.00  0.00    -0.058 A 
ATOM     24  C   UNL     1      89.143  49.871  42.641  0.00  0.00    -0.019 A 
ATOM     25  C   UNL     1      88.139  48.906  42.836  0.00  0.00    +0.131 A 
BRANCH  25  26
ATOM     26  O   UNL     1      88.427  47.537  42.693  0.00  0.00    -0.494 OA
ATOM     27  C   UNL     1      89.726  46.959  42.792  0.00  0.00    +0.079 C 
ENDBRANCH  25  26
BRANCH  19  28
ATOM     28  O   UNL     1      86.030  47.010  43.251  0.00  0.00    -0.494 OA
ATOM     29  C   UNL     1      85.529  45.991  44.111  0.00  0.00    +0.079 C 
ENDBRANCH  19  28
ENDBRANCH   6  15
BRANCH   1  31
ATOM     30  C   UNL     1      85.509  53.226  40.301  0.00  0.00    +0.079 C 
ATOM     31  O   UNL     1      84.772  52.737  41.417  0.00  0.00    -0.494 OA
ENDBRANCH   1  31
BRANCH   3  32
ATOM     32  O   UNL     1      84.017  56.709  44.179  0.00  0.00    -0.495 OA
ATOM     33  C   UNL     1      84.806  57.796  43.704  0.00  0.00    +0.079 C 
ENDBRANCH   3  32
TORSDOF 5
ENDMDL
MODEL 9
REMARK VINA RESULT:    -7.454      2.301      7.360
REMARK INTER + INTRA:         -10.783
REMARK INTER:                  -9.261
REMARK INTRA:                  -1.522
REMARK UNBOUND:                -1.150
REMARK  Name = 
REMARK  13 active torsions:
REMARK  status: ('A' for Active; 'I' for Inactive)
REMARK    1  A    between atoms: C_1  and  O_2
REMARK    2  A    between atoms: O_2  and  C_3
REMARK    3  A    between atoms: C_5  and  O_6
REMARK    4  A    between atoms: O_6  and  C_7
REMARK    5  A    between atoms: C_10  and  C_11
REMARK    6  A    between atoms: C_12  and  C_13
REMARK    7  A    between atoms: C_15  and  O_24
REMARK    8  A    between atoms: C_21  and  O_22
REMARK    9  A    between atoms: O_22  and  C_23
REMARK   10  A    between atoms: O_24  and  C_25
REMARK   11  A    between atoms: C_27  and  C_32
REMARK   12  A    between atoms: N_28  and  C_31
REMARK   13  A    between atoms: C_29  and  C_30
REMARK                            x       y       z     vdW  Elec       q    Type
REMARK                         _______ _______ _______ _____ _____    ______ ____
ROOT
ATOM      1  C   UNL     1      86.850  50.078  43.652  0.00  0.00    +0.132 A 
ATOM      2  C   UNL     1      87.174  48.719  43.532  0.00  0.00    +0.023 A 
ATOM      3  C   UNL     1      86.209  47.716  43.742  0.00  0.00    +0.129 A 
ATOM      4  C   UNL     1      84.878  48.092  44.054  0.00  0.00    +0.015 A 
ATOM      5  C   UNL     1      84.559  49.457  44.213  0.00  0.00    -0.027 A 
ATOM      6  C   UNL     1      85.546  50.447  44.011  0.00  0.00    +0.028 A 
ATOM      7  C   UNL     1      83.169  49.802  44.710  0.00  0.00    -0.011 C 
ATOM      8  C   UNL     1      82.066  48.982  43.986  0.00  0.00    +0.012 C 
ATOM      9  N   UNL     1      82.511  47.640  43.509  0.00  0.00    -0.296 N 
ATOM     10  C   UNL     1      83.701  47.129  44.241  0.00  0.00    +0.037 C 
ATOM     11  C   UNL     1      83.938  45.641  43.929  0.00  0.00    -0.045 C 
ATOM     12  C   UNL     1      82.685  47.630  42.041  0.00  0.00    -0.012 C 
ATOM     13  C   UNL     1      80.848  48.808  44.894  0.00  0.00    -0.049 C 
ATOM     14  H   UNL     1      81.765  46.980  43.729  0.00  0.00    +0.000 HD
ENDROOT
BRANCH   6  15
ATOM     15  C   UNL     1      85.224  51.892  44.151  0.00  0.00    -0.003 A 
ATOM     16  C   UNL     1      84.772  52.613  43.027  0.00  0.00    -0.039 A 
ATOM     17  C   UNL     1      84.609  51.940  41.687  0.00  0.00    -0.039 C 
ATOM     18  C   UNL     1      84.465  53.969  43.152  0.00  0.00    -0.016 A 
ATOM     19  C   UNL     1      84.607  54.645  44.376  0.00  0.00    +0.132 A 
ATOM     20  C   UNL     1      85.069  53.939  45.516  0.00  0.00    +0.066 A 
ATOM     21  C   UNL     1      85.376  52.552  45.398  0.00  0.00    -0.003 A 
ATOM     22  C   UNL     1      85.836  51.848  46.532  0.00  0.00    -0.053 A 
ATOM     23  C   UNL     1      85.993  52.491  47.754  0.00  0.00    -0.058 A 
ATOM     24  C   UNL     1      85.696  53.842  47.879  0.00  0.00    -0.019 A 
ATOM     25  C   UNL     1      85.234  54.583  46.776  0.00  0.00    +0.131 A 
BRANCH  25  26
ATOM     26  O   UNL     1      84.935  55.951  46.910  0.00  0.00    -0.494 OA
ATOM     27  C   UNL     1      83.862  56.483  47.682  0.00  0.00    +0.079 C 
ENDBRANCH  25  26
BRANCH  19  28
ATOM     28  O   UNL     1      84.297  56.013  44.476  0.00  0.00    -0.494 OA
ATOM     29  C   UNL     1      84.630  57.005  43.510  0.00  0.00    +0.079 C 
ENDBRANCH  19  28
ENDBRANCH   6  15
BRANCH   1  31
ATOM     30  C   UNL     1      88.358  51.418  42.162  0.00  0.00    +0.079 C 
ATOM     31  O   UNL     1      87.800  51.090  43.430  0.00  0.00    -0.494 OA
ENDBRANCH   1  31
BRANCH   3  32
ATOM     32  O   UNL     1      86.559  46.359  43.652  0.00  0.00    -0.495 OA
ATOM     33  C   UNL     1      87.458  45.803  42.697  0.00  0.00    +0.079 C 
ENDBRANCH   3  32
TORSDOF 5
ENDMDL
