MODEL 1
REMARK VINA RESULT:    -7.643      0.000      0.000
REMARK INTER + INTRA:          -7.866
REMARK INTER:                  -7.866
REMARK INTRA:                   0.000
REMARK UNBOUND:                 0.000
REMARK  Name = 
REMARK  4 active torsions:
REMARK  status: ('A' for Active; 'I' for Inactive)
REMARK    1  A    between atoms: O_1  and  C_2
REMARK    2  A    between atoms: C_9  and  C_15
REMARK    3  A    between atoms: C_9  and  C_16
REMARK    4  A    between atoms: C_13  and  C_14
REMARK                            x       y       z     vdW  Elec       q    Type
REMARK                         _______ _______ _______ _____ _____    ______ ____
ROOT
ATOM      1  C   UNL     1      84.164  56.848  47.334  0.00  0.00    +0.077 C 
ATOM      2  C   UNL     1      84.507  55.401  47.812  0.00  0.00    -0.017 C 
ATOM      3  C   UNL     1      85.371  54.584  46.802  0.00  0.00    -0.020 C 
ATOM      4  C   UNL     1      86.580  55.450  46.440  0.00  0.00    -0.040 C 
ATOM      5  C   UNL     1      85.970  56.414  45.433  0.00  0.00    -0.012 C 
ATOM      6  C   UNL     1      85.068  57.369  46.216  0.00  0.00    -0.045 C 
ATOM      7  C   UNL     1      85.016  58.666  45.876  0.00  0.00    -0.097 C 
ATOM      8  C   UNL     1      85.164  55.480  44.482  0.00  0.00    -0.025 C 
ATOM      9  C   UNL     1      84.606  54.396  45.467  0.00  0.00    -0.029 C 
ATOM     10  C   UNL     1      84.743  52.911  45.100  0.00  0.00    -0.049 C 
ATOM     11  C   UNL     1      84.901  52.205  46.434  0.00  0.00    -0.050 C 
ATOM     12  C   UNL     1      85.764  53.148  47.268  0.00  0.00    -0.038 C 
ATOM     13  C   UNL     1      85.636  52.855  48.771  0.00  0.00    -0.062 C 
ATOM     14  C   UNL     1      86.115  54.924  43.388  0.00  0.00    -0.059 C 
ATOM     15  C   UNL     1      84.017  56.212  43.743  0.00  0.00    -0.059 C 
ENDROOT
BRANCH   1  16
ATOM     16  O   UNL     1      82.828  56.910  46.909  0.00  0.00    -0.387 OA
ATOM     17  H   UNL     1      82.634  57.803  46.582  0.00  0.00    +0.000 HD
ENDBRANCH   1  16
TORSDOF 1
ENDMDL
MODEL 2
REMARK VINA RESULT:    -7.164      1.635      4.409
REMARK INTER + INTRA:          -7.373
REMARK INTER:                  -7.373
REMARK INTRA:                   0.000
REMARK UNBOUND:                 0.000
REMARK  Name = 
REMARK  4 active torsions:
REMARK  status: ('A' for Active; 'I' for Inactive)
REMARK    1  A    between atoms: O_1  and  C_2
REMARK    2  A    between atoms: C_9  and  C_15
REMARK    3  A    between atoms: C_9  and  C_16
REMARK    4  A    between atoms: C_13  and  C_14
REMARK                            x       y       z     vdW  Elec       q    Type
REMARK                         _______ _______ _______ _____ _____    ______ ____
ROOT
ATOM      1  C   UNL     1      85.583  54.173  43.932  0.00  0.00    +0.077 C 
ATOM      2  C   UNL     1      85.270  55.651  44.329  0.00  0.00    -0.017 C 
ATOM      3  C   UNL     1      85.445  55.953  45.850  0.00  0.00    -0.020 C 
ATOM      4  C   UNL     1      86.837  55.456  46.249  0.00  0.00    -0.040 C 
ATOM      5  C   UNL     1      86.597  53.959  46.379  0.00  0.00    -0.012 C 
ATOM      6  C   UNL     1      86.415  53.409  44.964  0.00  0.00    -0.045 C 
ATOM      7  C   UNL     1      86.930  52.214  44.641  0.00  0.00    -0.097 C 
ATOM      8  C   UNL     1      85.290  53.876  47.223  0.00  0.00    -0.025 C 
ATOM      9  C   UNL     1      84.464  55.095  46.687  0.00  0.00    -0.029 C 
ATOM     10  C   UNL     1      83.807  56.053  47.692  0.00  0.00    -0.049 C 
ATOM     11  C   UNL     1      83.839  57.404  47.002  0.00  0.00    -0.050 C 
ATOM     12  C   UNL     1      85.179  57.431  46.272  0.00  0.00    -0.038 C 
ATOM     13  C   UNL     1      85.192  58.479  45.149  0.00  0.00    -0.062 C 
ATOM     14  C   UNL     1      85.651  53.958  48.731  0.00  0.00    -0.059 C 
ATOM     15  C   UNL     1      84.523  52.545  47.022  0.00  0.00    -0.059 C 
ENDROOT
BRANCH   1  16
ATOM     16  O   UNL     1      84.388  53.474  43.699  0.00  0.00    -0.387 OA
ATOM     17  H   UNL     1      83.706  53.785  44.315  0.00  0.00    +0.000 HD
ENDBRANCH   1  16
TORSDOF 1
ENDMDL
MODEL 3
REMARK VINA RESULT:    -7.002      1.383      3.814
REMARK INTER + INTRA:          -7.206
REMARK INTER:                  -7.206
REMARK INTRA:                   0.000
REMARK UNBOUND:                 0.000
REMARK  Name = 
REMARK  4 active torsions:
REMARK  status: ('A' for Active; 'I' for Inactive)
REMARK    1  A    between atoms: O_1  and  C_2
REMARK    2  A    between atoms: C_9  and  C_15
REMARK    3  A    between atoms: C_9  and  C_16
REMARK    4  A    between atoms: C_13  and  C_14
REMARK                            x       y       z     vdW  Elec       q    Type
REMARK                         _______ _______ _______ _____ _____    ______ ____
ROOT
ATOM      1  C   UNL     1      85.199  53.141  46.740  0.00  0.00    +0.077 C 
ATOM      2  C   UNL     1      85.445  53.311  45.207  0.00  0.00    -0.017 C 
ATOM      3  C   UNL     1      85.706  54.783  44.762  0.00  0.00    -0.020 C 
ATOM      4  C   UNL     1      86.816  55.334  45.662  0.00  0.00    -0.040 C 
ATOM      5  C   UNL     1      86.044  55.654  46.933  0.00  0.00    -0.012 C 
ATOM      6  C   UNL     1      85.684  54.319  47.587  0.00  0.00    -0.045 C 
ATOM      7  C   UNL     1      85.729  54.197  48.922  0.00  0.00    -0.097 C 
ATOM      8  C   UNL     1      84.790  56.416  46.411  0.00  0.00    -0.025 C 
ATOM      9  C   UNL     1      84.472  55.667  45.071  0.00  0.00    -0.029 C 
ATOM     10  C   UNL     1      84.203  56.488  43.801  0.00  0.00    -0.049 C 
ATOM     11  C   UNL     1      84.733  55.622  42.673  0.00  0.00    -0.050 C 
ATOM     12  C   UNL     1      85.996  54.981  43.242  0.00  0.00    -0.038 C 
ATOM     13  C   UNL     1      86.401  53.727  42.452  0.00  0.00    -0.062 C 
ATOM     14  C   UNL     1      85.143  57.919  46.238  0.00  0.00    -0.059 C 
ATOM     15  C   UNL     1      83.591  56.352  47.389  0.00  0.00    -0.059 C 
ENDROOT
BRANCH   1  16
ATOM     16  O   UNL     1      83.833  52.932  46.988  0.00  0.00    -0.387 OA
ATOM     17  H   UNL     1      83.728  52.215  47.633  0.00  0.00    +0.000 HD
ENDBRANCH   1  16
TORSDOF 1
ENDMDL
MODEL 4
REMARK VINA RESULT:    -6.814      1.738      4.190
REMARK INTER + INTRA:          -7.013
REMARK INTER:                  -7.013
REMARK INTRA:                   0.000
REMARK UNBOUND:                 0.000
REMARK  Name = 
REMARK  4 active torsions:
REMARK  status: ('A' for Active; 'I' for Inactive)
REMARK    1  A    between atoms: O_1  and  C_2
REMARK    2  A    between atoms: C_9  and  C_15
REMARK    3  A    between atoms: C_9  and  C_16
REMARK    4  A    between atoms: C_13  and  C_14
REMARK                            x       y       z     vdW  Elec       q    Type
REMARK                         _______ _______ _______ _____ _____    ______ ____
ROOT
ATOM      1  C   UNL     1      84.417  55.376  42.432  0.00  0.00    +0.077 C 
ATOM      2  C   UNL     1      84.433  56.480  43.537  0.00  0.00    -0.017 C 
ATOM      3  C   UNL     1      85.294  56.117  44.787  0.00  0.00    -0.020 C 
ATOM      4  C   UNL     1      86.673  55.690  44.276  0.00  0.00    -0.040 C 
ATOM      5  C   UNL     1      86.397  54.267  43.815  0.00  0.00    -0.012 C 
ATOM      6  C   UNL     1      85.557  54.363  42.540  0.00  0.00    -0.045 C 
ATOM      7  C   UNL     1      85.776  53.506  41.532  0.00  0.00    -0.097 C 
ATOM      8  C   UNL     1      85.602  53.651  45.005  0.00  0.00    -0.025 C 
ATOM      9  C   UNL     1      84.725  54.857  45.486  0.00  0.00    -0.029 C 
ATOM     10  C   UNL     1      84.665  55.187  46.985  0.00  0.00    -0.049 C 
ATOM     11  C   UNL     1      84.494  56.695  47.033  0.00  0.00    -0.050 C 
ATOM     12  C   UNL     1      85.364  57.216  45.892  0.00  0.00    -0.038 C 
ATOM     13  C   UNL     1      84.958  58.637  45.473  0.00  0.00    -0.062 C 
ATOM     14  C   UNL     1      86.604  53.122  46.067  0.00  0.00    -0.059 C 
ATOM     15  C   UNL     1      84.722  52.447  44.587  0.00  0.00    -0.059 C 
ENDROOT
BRANCH   1  16
ATOM     16  O   UNL     1      83.192  54.690  42.455  0.00  0.00    -0.387 OA
ATOM     17  H   UNL     1      83.213  53.968  41.807  0.00  0.00    +0.000 HD
ENDBRANCH   1  16
TORSDOF 1
ENDMDL
MODEL 5
REMARK VINA RESULT:    -6.691      2.099      3.753
REMARK INTER + INTRA:          -6.887
REMARK INTER:                  -6.887
REMARK INTRA:                   0.000
REMARK UNBOUND:                 0.000
REMARK  Name = 
REMARK  4 active torsions:
REMARK  status: ('A' for Active; 'I' for Inactive)
REMARK    1  A    between atoms: O_1  and  C_2
REMARK    2  A    between atoms: C_9  and  C_15
REMARK    3  A    between atoms: C_9  and  C_16
REMARK    4  A    between atoms: C_13  and  C_14
REMARK                            x       y       z     vdW  Elec       q    Type
REMARK                         _______ _______ _______ _____ _____    ______ ____
ROOT
ATOM      1  C   UNL     1      86.306  55.704  43.763  0.00  0.00    +0.077 C 
ATOM      2  C   UNL     1      86.717  54.224  43.480  0.00  0.00    -0.017 C 
ATOM      3  C   UNL     1      86.138  53.195  44.501  0.00  0.00    -0.020 C 
ATOM      4  C   UNL     1      84.629  53.445  44.584  0.00  0.00    -0.040 C 
ATOM      5  C   UNL     1      84.574  54.665  45.491  0.00  0.00    -0.012 C 
ATOM      6  C   UNL     1      85.088  55.853  44.677  0.00  0.00    -0.045 C 
ATOM      7  C   UNL     1      84.510  57.056  44.814  0.00  0.00    -0.097 C 
ATOM      8  C   UNL     1      85.532  54.288  46.661  0.00  0.00    -0.025 C 
ATOM      9  C   UNL     1      86.666  53.494  45.927  0.00  0.00    -0.029 C 
ATOM     10  C   UNL     1      87.131  52.149  46.503  0.00  0.00    -0.049 C 
ATOM     11  C   UNL     1      87.529  51.334  45.286  0.00  0.00    -0.050 C 
ATOM     12  C   UNL     1      86.497  51.703  44.223  0.00  0.00    -0.038 C 
ATOM     13  C   UNL     1      86.995  51.369  42.808  0.00  0.00    -0.062 C 
ATOM     14  C   UNL     1      84.747  53.459  47.714  0.00  0.00    -0.059 C 
ATOM     15  C   UNL     1      86.099  55.524  47.402  0.00  0.00    -0.059 C 
ENDROOT
BRANCH   1  16
ATOM     16  O   UNL     1      87.386  56.405  44.322  0.00  0.00    -0.387 OA
ATOM     17  H   UNL     1      87.727  55.917  45.088  0.00  0.00    +0.000 HD
ENDBRANCH   1  16
TORSDOF 1
ENDMDL
MODEL 6
REMARK VINA RESULT:    -6.347      2.628      4.957
REMARK INTER + INTRA:          -6.532
REMARK INTER:                  -6.532
REMARK INTRA:                   0.000
REMARK UNBOUND:                 0.000
REMARK  Name = 
REMARK  4 active torsions:
REMARK  status: ('A' for Active; 'I' for Inactive)
REMARK    1  A    between atoms: O_1  and  C_2
REMARK    2  A    between atoms: C_9  and  C_15
REMARK    3  A    between atoms: C_9  and  C_16
REMARK    4  A    between atoms: C_13  and  C_14
REMARK                            x       y       z     vdW  Elec       q    Type
REMARK                         _______ _______ _______ _____ _____    ______ ____
ROOT
ATOM      1  C   UNL     1      84.700  52.148  44.466  0.00  0.00    +0.077 C 
ATOM      2  C   UNL     1      84.628  53.171  45.644  0.00  0.00    -0.017 C 
ATOM      3  C   UNL     1      85.820  53.074  46.647  0.00  0.00    -0.020 C 
ATOM      4  C   UNL     1      87.107  53.127  45.820  0.00  0.00    -0.040 C 
ATOM      5  C   UNL     1      87.186  51.702  45.292  0.00  0.00    -0.012 C 
ATOM      6  C   UNL     1      86.091  51.554  44.236  0.00  0.00    -0.045 C 
ATOM      7  C   UNL     1      86.327  50.839  43.126  0.00  0.00    -0.097 C 
ATOM      8  C   UNL     1      86.915  50.834  46.556  0.00  0.00    -0.025 C 
ATOM      9  C   UNL     1      85.842  51.681  47.324  0.00  0.00    -0.029 C 
ATOM     10  C   UNL     1      86.028  51.937  48.827  0.00  0.00    -0.049 C 
ATOM     11  C   UNL     1      85.416  53.307  49.054  0.00  0.00    -0.050 C 
ATOM     12  C   UNL     1      85.798  54.109  47.813  0.00  0.00    -0.038 C 
ATOM     13  C   UNL     1      84.889  55.334  47.627  0.00  0.00    -0.062 C 
ATOM     14  C   UNL     1      88.246  50.630  47.330  0.00  0.00    -0.059 C 
ATOM     15  C   UNL     1      86.378  49.421  46.217  0.00  0.00    -0.059 C 
ENDROOT
BRANCH   1  16
ATOM     16  O   UNL     1      83.786  51.104  44.678  0.00  0.00    -0.387 OA
ATOM     17  H   UNL     1      82.882  51.458  44.664  0.00  0.00    +0.000 HD
ENDBRANCH   1  16
TORSDOF 1
ENDMDL
MODEL 7
REMARK VINA RESULT:    -6.260      2.465      4.432
REMARK INTER + INTRA:          -6.443
REMARK INTER:                  -6.443
REMARK INTRA:                   0.000
REMARK UNBOUND:                 0.000
REMARK  Name = 
REMARK  4 active torsions:
REMARK  status: ('A' for Active; 'I' for Inactive)
REMARK    1  A    between atoms: O_1  and  C_2
REMARK    2  A    between atoms: C_9  and  C_15
REMARK    3  A    between atoms: C_9  and  C_16
REMARK    4  A    between atoms: C_13  and  C_14
REMARK                            x       y       z     vdW  Elec       q    Type
REMARK                         _______ _______ _______ _____ _____    ______ ____
ROOT
ATOM      1  C   UNL     1      86.415  51.116  45.829  0.00  0.00    +0.077 C 
ATOM      2  C   UNL     1      86.081  52.177  46.925  0.00  0.00    -0.017 C 
ATOM      3  C   UNL     1      85.439  53.487  46.370  0.00  0.00    -0.020 C 
ATOM      4  C   UNL     1      84.258  53.071  45.490  0.00  0.00    -0.040 C 
ATOM      5  C   UNL     1      84.968  52.650  44.211  0.00  0.00    -0.012 C 
ATOM      6  C   UNL     1      85.676  51.327  44.506  0.00  0.00    -0.045 C 
ATOM      7  C   UNL     1      85.710  50.366  43.571  0.00  0.00    -0.097 C 
ATOM      8  C   UNL     1      85.968  53.816  43.954  0.00  0.00    -0.025 C 
ATOM      9  C   UNL     1      86.419  54.201  45.405  0.00  0.00    -0.029 C 
ATOM     10  C   UNL     1      86.427  55.680  45.818  0.00  0.00    -0.049 C 
ATOM     11  C   UNL     1      86.095  55.660  47.299  0.00  0.00    -0.050 C 
ATOM     12  C   UNL     1      85.056  54.551  47.445  0.00  0.00    -0.038 C 
ATOM     13  C   UNL     1      84.955  54.055  48.896  0.00  0.00    -0.062 C 
ATOM     14  C   UNL     1      85.240  54.952  43.186  0.00  0.00    -0.059 C 
ATOM     15  C   UNL     1      87.177  53.396  43.082  0.00  0.00    -0.059 C 
ENDROOT
BRANCH   1  16
ATOM     16  O   UNL     1      87.797  51.097  45.583  0.00  0.00    -0.387 OA
ATOM     17  H   UNL     1      87.956  50.896  44.647  0.00  0.00    +0.000 HD
ENDBRANCH   1  16
TORSDOF 1
ENDMDL
MODEL 8
REMARK VINA RESULT:    -6.168      2.183      3.034
REMARK INTER + INTRA:          -6.348
REMARK INTER:                  -6.348
REMARK INTRA:                   0.000
REMARK UNBOUND:                 0.000
REMARK  Name = 
REMARK  4 active torsions:
REMARK  status: ('A' for Active; 'I' for Inactive)
REMARK    1  A    between atoms: O_1  and  C_2
REMARK    2  A    between atoms: C_9  and  C_15
REMARK    3  A    between atoms: C_9  and  C_16
REMARK    4  A    between atoms: C_13  and  C_14
REMARK                            x       y       z     vdW  Elec       q    Type
REMARK                         _______ _______ _______ _____ _____    ______ ____
ROOT
ATOM      1  C   UNL     1      85.174  53.683  47.850  0.00  0.00    +0.077 C 
ATOM      2  C   UNL     1      85.968  52.345  47.980  0.00  0.00    -0.017 C 
ATOM      3  C   UNL     1      86.647  51.875  46.655  0.00  0.00    -0.020 C 
ATOM      4  C   UNL     1      87.457  53.060  46.121  0.00  0.00    -0.040 C 
ATOM      5  C   UNL     1      86.366  53.909  45.485  0.00  0.00    -0.012 C 
ATOM      6  C   UNL     1      85.551  54.520  46.626  0.00  0.00    -0.045 C 
ATOM      7  C   UNL     1      85.102  55.780  46.524  0.00  0.00    -0.097 C 
ATOM      8  C   UNL     1      85.546  52.878  44.654  0.00  0.00    -0.025 C 
ATOM      9  C   UNL     1      85.578  51.605  45.567  0.00  0.00    -0.029 C 
ATOM     10  C   UNL     1      85.932  50.246  44.945  0.00  0.00    -0.049 C 
ATOM     11  C   UNL     1      86.646  49.497  46.056  0.00  0.00    -0.050 C 
ATOM     12  C   UNL     1      87.482  50.561  46.761  0.00  0.00    -0.038 C 
ATOM     13  C   UNL     1      87.888  50.119  48.176  0.00  0.00    -0.062 C 
ATOM     14  C   UNL     1      86.219  52.690  43.267  0.00  0.00    -0.059 C 
ATOM     15  C   UNL     1      84.092  53.338  44.382  0.00  0.00    -0.059 C 
ENDROOT
BRANCH   1  16
ATOM     16  O   UNL     1      83.795  53.424  47.821  0.00  0.00    -0.387 OA
ATOM     17  H   UNL     1      83.430  53.514  48.715  0.00  0.00    +0.000 HD
ENDBRANCH   1  16
TORSDOF 1
ENDMDL
MODEL 9
REMARK VINA RESULT:    -6.072      4.581      6.756
REMARK INTER + INTRA:          -6.250
REMARK INTER:                  -6.250
REMARK INTRA:                   0.000
REMARK UNBOUND:                 0.000
REMARK  Name = 
REMARK  4 active torsions:
REMARK  status: ('A' for Active; 'I' for Inactive)
REMARK    1  A    between atoms: O_1  and  C_2
REMARK    2  A    between atoms: C_9  and  C_15
REMARK    3  A    between atoms: C_9  and  C_16
REMARK    4  A    between atoms: C_13  and  C_14
REMARK                            x       y       z     vdW  Elec       q    Type
REMARK                         _______ _______ _______ _____ _____    ______ ____
ROOT
ATOM      1  C   UNL     1      86.686  52.449  44.434  0.00  0.00    +0.077 C 
ATOM      2  C   UNL     1      87.893  52.304  43.454  0.00  0.00    -0.017 C 
ATOM      3  C   UNL     1      87.951  50.932  42.712  0.00  0.00    -0.020 C 
ATOM      4  C   UNL     1      86.573  50.703  42.084  0.00  0.00    -0.040 C 
ATOM      5  C   UNL     1      85.767  50.236  43.286  0.00  0.00    -0.012 C 
ATOM      6  C   UNL     1      85.551  51.455  44.183  0.00  0.00    -0.045 C 
ATOM      7  C   UNL     1      84.377  51.622  44.811  0.00  0.00    -0.097 C 
ATOM      8  C   UNL     1      86.690  49.168  43.946  0.00  0.00    -0.025 C 
ATOM      9  C   UNL     1      88.118  49.776  43.730  0.00  0.00    -0.029 C 
ATOM     10  C   UNL     1      89.237  48.879  43.179  0.00  0.00    -0.049 C 
ATOM     11  C   UNL     1      90.108  49.818  42.365  0.00  0.00    -0.050 C 
ATOM     12  C   UNL     1      89.122  50.771  41.694  0.00  0.00    -0.038 C 
ATOM     13  C   UNL     1      89.810  52.064  41.230  0.00  0.00    -0.062 C 
ATOM     14  C   UNL     1      86.463  47.798  43.251  0.00  0.00    -0.059 C 
ATOM     15  C   UNL     1      86.391  48.957  45.451  0.00  0.00    -0.059 C 
ENDROOT
BRANCH   1  16
ATOM     16  O   UNL     1      87.126  52.316  45.761  0.00  0.00    -0.387 OA
ATOM     17  H   UNL     1      86.732  51.521  46.154  0.00  0.00    +0.000 HD
ENDBRANCH   1  16
TORSDOF 1
ENDMDL
