MODEL 1
REMARK VINA RESULT:    -5.812      0.000      0.000
REMARK INTER + INTRA:         -12.952
REMARK INTER:                 -11.118
REMARK INTRA:                  -1.834
REMARK UNBOUND:                -2.043
REMARK  Name = 
REMARK  16 active torsions:
REMARK  status: ('A' for Active; 'I' for Inactive)
REMARK    1  A    between atoms: C_1  and  C_2
REMARK    2  A    between atoms: C_2  and  C_3
REMARK    3  A    between atoms: C_3  and  C_4
REMARK    4  A    between atoms: C_4  and  C_5
REMARK    5  A    between atoms: C_5  and  C_6
REMARK    6  A    between atoms: C_6  and  C_7
REMARK    7  A    between atoms: C_7  and  C_8
REMARK    8  A    between atoms: C_8  and  C_9
REMARK    9  A    between atoms: C_10  and  C_11
REMARK   10  A    between atoms: C_11  and  C_12
REMARK   11  A    between atoms: C_12  and  C_13
REMARK   12  A    between atoms: C_13  and  C_14
REMARK   13  A    between atoms: C_14  and  C_15
REMARK   14  A    between atoms: C_15  and  C_16
REMARK   15  A    between atoms: C_16  and  C_17
REMARK   16  A    between atoms: C_17  and  C_18
REMARK                            x       y       z     vdW  Elec       q    Type
REMARK                         _______ _______ _______ _____ _____    ______ ____
ROOT
ATOM      1  C   UNL     1      86.058  52.287  48.259  0.00  0.00    -0.088 C 
ATOM      2  C   UNL     1      85.176  53.113  48.850  0.00  0.00    -0.088 C 
ENDROOT
BRANCH   1   3
ATOM      3  C   UNL     1      85.943  51.778  46.843  0.00  0.00    -0.035 C 
BRANCH   3   4
ATOM      4  C   UNL     1      87.217  52.050  46.030  0.00  0.00    -0.050 C 
BRANCH   4   5
ATOM      5  C   UNL     1      86.924  52.209  44.530  0.00  0.00    -0.053 C 
BRANCH   5   6
ATOM      6  C   UNL     1      87.872  51.344  43.691  0.00  0.00    -0.053 C 
BRANCH   6   7
ATOM      7  C   UNL     1      87.913  49.903  44.214  0.00  0.00    -0.053 C 
BRANCH   7   8
ATOM      8  C   UNL     1      89.198  49.191  43.766  0.00  0.00    -0.053 C 
BRANCH   8  10
ATOM      9  C   UNL     1      90.490  48.615  41.642  0.00  0.00    -0.065 C 
ATOM     10  C   UNL     1      89.701  49.683  42.400  0.00  0.00    -0.056 C 
ENDBRANCH   8  10
ENDBRANCH   7   8
ENDBRANCH   6   7
ENDBRANCH   5   6
ENDBRANCH   4   5
ENDBRANCH   3   4
ENDBRANCH   1   3
BRANCH   2  11
ATOM     11  C   UNL     1      83.987  53.731  48.158  0.00  0.00    -0.035 C 
BRANCH  11  12
ATOM     12  C   UNL     1      83.903  55.233  48.465  0.00  0.00    -0.050 C 
BRANCH  12  13
ATOM     13  C   UNL     1      84.202  56.102  47.235  0.00  0.00    -0.053 C 
BRANCH  13  14
ATOM     14  C   UNL     1      85.676  56.533  47.156  0.00  0.00    -0.053 C 
BRANCH  14  15
ATOM     15  C   UNL     1      86.516  55.566  46.297  0.00  0.00    -0.053 C 
BRANCH  15  16
ATOM     16  C   UNL     1      86.812  56.089  44.879  0.00  0.00    -0.043 C 
BRANCH  16  17
ATOM     17  C   UNL     1      85.791  55.641  43.816  0.00  0.00    +0.045 C 
BRANCH  17  18
ATOM     18  C   UNL     1      84.800  56.714  43.470  0.00  0.00    +0.305 C 
ATOM     19  O   UNL     1      83.619  56.410  43.152  0.00  0.00    -0.251 OA
ATOM     20  O   UNL     1      85.201  58.046  43.447  0.00  0.00    -0.481 OA
ENDBRANCH  17  18
ENDBRANCH  16  17
ENDBRANCH  15  16
ENDBRANCH  14  15
ENDBRANCH  13  14
ENDBRANCH  12  13
ENDBRANCH  11  12
ENDBRANCH   2  11
TORSDOF 15
ENDMDL
MODEL 2
REMARK VINA RESULT:    -5.738      2.181      3.809
REMARK INTER + INTRA:         -12.812
REMARK INTER:                 -10.619
REMARK INTRA:                  -2.193
REMARK UNBOUND:                -2.043
REMARK  Name = 
REMARK  16 active torsions:
REMARK  status: ('A' for Active; 'I' for Inactive)
REMARK    1  A    between atoms: C_1  and  C_2
REMARK    2  A    between atoms: C_2  and  C_3
REMARK    3  A    between atoms: C_3  and  C_4
REMARK    4  A    between atoms: C_4  and  C_5
REMARK    5  A    between atoms: C_5  and  C_6
REMARK    6  A    between atoms: C_6  and  C_7
REMARK    7  A    between atoms: C_7  and  C_8
REMARK    8  A    between atoms: C_8  and  C_9
REMARK    9  A    between atoms: C_10  and  C_11
REMARK   10  A    between atoms: C_11  and  C_12
REMARK   11  A    between atoms: C_12  and  C_13
REMARK   12  A    between atoms: C_13  and  C_14
REMARK   13  A    between atoms: C_14  and  C_15
REMARK   14  A    between atoms: C_15  and  C_16
REMARK   15  A    between atoms: C_16  and  C_17
REMARK   16  A    between atoms: C_17  and  C_18
REMARK                            x       y       z     vdW  Elec       q    Type
REMARK                         _______ _______ _______ _____ _____    ______ ____
ROOT
ATOM      1  C   UNL     1      84.459  55.804  47.442  0.00  0.00    -0.088 C 
ATOM      2  C   UNL     1      84.010  56.953  46.902  0.00  0.00    -0.088 C 
ENDROOT
BRANCH   1   3
ATOM      3  C   UNL     1      85.915  55.459  47.638  0.00  0.00    -0.035 C 
BRANCH   3   4
ATOM      4  C   UNL     1      86.418  54.472  46.575  0.00  0.00    -0.050 C 
BRANCH   4   5
ATOM      5  C   UNL     1      85.413  53.339  46.314  0.00  0.00    -0.053 C 
BRANCH   5   6
ATOM      6  C   UNL     1      86.068  51.967  46.511  0.00  0.00    -0.053 C 
BRANCH   6   7
ATOM      7  C   UNL     1      87.446  51.912  45.840  0.00  0.00    -0.053 C 
BRANCH   7   8
ATOM      8  C   UNL     1      87.530  50.741  44.850  0.00  0.00    -0.053 C 
BRANCH   8  10
ATOM      9  C   UNL     1      87.359  52.665  43.183  0.00  0.00    -0.065 C 
ATOM     10  C   UNL     1      87.755  51.205  43.404  0.00  0.00    -0.056 C 
ENDBRANCH   8  10
ENDBRANCH   7   8
ENDBRANCH   6   7
ENDBRANCH   5   6
ENDBRANCH   4   5
ENDBRANCH   3   4
ENDBRANCH   1   3
BRANCH   2  11
ATOM     11  C   UNL     1      84.890  58.108  46.497  0.00  0.00    -0.035 C 
BRANCH  11  12
ATOM     12  C   UNL     1      84.869  58.296  44.973  0.00  0.00    -0.050 C 
BRANCH  12  13
ATOM     13  C   UNL     1      86.020  57.560  44.274  0.00  0.00    -0.053 C 
BRANCH  13  14
ATOM     14  C   UNL     1      85.574  56.233  43.634  0.00  0.00    -0.053 C 
BRANCH  14  15
ATOM     15  C   UNL     1      84.094  56.268  43.203  0.00  0.00    -0.053 C 
BRANCH  15  16
ATOM     16  C   UNL     1      83.658  55.047  42.371  0.00  0.00    -0.043 C 
BRANCH  16  17
ATOM     17  C   UNL     1      84.566  54.754  41.161  0.00  0.00    +0.045 C 
BRANCH  17  18
ATOM     18  C   UNL     1      84.109  55.440  39.908  0.00  0.00    +0.305 C 
ATOM     19  O   UNL     1      82.906  55.360  39.542  0.00  0.00    -0.251 OA
ATOM     20  O   UNL     1      85.027  56.123  39.116  0.00  0.00    -0.481 OA
ENDBRANCH  17  18
ENDBRANCH  16  17
ENDBRANCH  15  16
ENDBRANCH  14  15
ENDBRANCH  13  14
ENDBRANCH  12  13
ENDBRANCH  11  12
ENDBRANCH   2  11
TORSDOF 15
ENDMDL
MODEL 3
REMARK VINA RESULT:    -5.704      2.227      2.791
REMARK INTER + INTRA:         -12.750
REMARK INTER:                 -10.362
REMARK INTRA:                  -2.387
REMARK UNBOUND:                -2.043
REMARK  Name = 
REMARK  16 active torsions:
REMARK  status: ('A' for Active; 'I' for Inactive)
REMARK    1  A    between atoms: C_1  and  C_2
REMARK    2  A    between atoms: C_2  and  C_3
REMARK    3  A    between atoms: C_3  and  C_4
REMARK    4  A    between atoms: C_4  and  C_5
REMARK    5  A    between atoms: C_5  and  C_6
REMARK    6  A    between atoms: C_6  and  C_7
REMARK    7  A    between atoms: C_7  and  C_8
REMARK    8  A    between atoms: C_8  and  C_9
REMARK    9  A    between atoms: C_10  and  C_11
REMARK   10  A    between atoms: C_11  and  C_12
REMARK   11  A    between atoms: C_12  and  C_13
REMARK   12  A    between atoms: C_13  and  C_14
REMARK   13  A    between atoms: C_14  and  C_15
REMARK   14  A    between atoms: C_15  and  C_16
REMARK   15  A    between atoms: C_16  and  C_17
REMARK   16  A    between atoms: C_17  and  C_18
REMARK                            x       y       z     vdW  Elec       q    Type
REMARK                         _______ _______ _______ _____ _____    ______ ____
ROOT
ATOM      1  C   UNL     1      86.420  51.631  47.662  0.00  0.00    -0.088 C 
ATOM      2  C   UNL     1      85.802  52.254  48.682  0.00  0.00    -0.088 C 
ENDROOT
BRANCH   1   3
ATOM      3  C   UNL     1      87.079  52.334  46.500  0.00  0.00    -0.035 C 
BRANCH   3   4
ATOM      4  C   UNL     1      86.189  52.332  45.249  0.00  0.00    -0.050 C 
BRANCH   4   5
ATOM      5  C   UNL     1      84.713  52.082  45.589  0.00  0.00    -0.053 C 
BRANCH   5   6
ATOM      6  C   UNL     1      83.834  52.188  44.337  0.00  0.00    -0.053 C 
BRANCH   6   7
ATOM      7  C   UNL     1      84.064  50.997  43.399  0.00  0.00    -0.053 C 
BRANCH   7   8
ATOM      8  C   UNL     1      84.036  49.672  44.174  0.00  0.00    -0.053 C 
BRANCH   8  10
ATOM      9  C   UNL     1      86.110  48.609  45.213  0.00  0.00    -0.065 C 
ATOM     10  C   UNL     1      85.293  48.822  43.939  0.00  0.00    -0.056 C 
ENDBRANCH   8  10
ENDBRANCH   7   8
ENDBRANCH   6   7
ENDBRANCH   5   6
ENDBRANCH   4   5
ENDBRANCH   3   4
ENDBRANCH   1   3
BRANCH   2  11
ATOM     11  C   UNL     1      85.754  53.749  48.868  0.00  0.00    -0.035 C 
BRANCH  11  12
ATOM     12  C   UNL     1      84.374  54.299  48.480  0.00  0.00    -0.050 C 
BRANCH  12  13
ATOM     13  C   UNL     1      84.463  55.444  47.460  0.00  0.00    -0.053 C 
BRANCH  13  14
ATOM     14  C   UNL     1      85.904  55.942  47.251  0.00  0.00    -0.053 C 
BRANCH  14  15
ATOM     15  C   UNL     1      86.256  56.082  45.755  0.00  0.00    -0.053 C 
BRANCH  15  16
ATOM     16  C   UNL     1      85.129  55.633  44.806  0.00  0.00    -0.043 C 
BRANCH  16  17
ATOM     17  C   UNL     1      84.316  56.794  44.201  0.00  0.00    +0.045 C 
BRANCH  17  18
ATOM     18  C   UNL     1      84.958  58.132  44.420  0.00  0.00    +0.305 C 
ATOM     19  O   UNL     1      84.528  58.903  45.320  0.00  0.00    -0.251 OA
ATOM     20  O   UNL     1      85.995  58.548  43.592  0.00  0.00    -0.481 OA
ENDBRANCH  17  18
ENDBRANCH  16  17
ENDBRANCH  15  16
ENDBRANCH  14  15
ENDBRANCH  13  14
ENDBRANCH  12  13
ENDBRANCH  11  12
ENDBRANCH   2  11
TORSDOF 15
ENDMDL
MODEL 4
REMARK VINA RESULT:    -5.658      1.841      2.883
REMARK INTER + INTRA:         -12.662
REMARK INTER:                 -10.347
REMARK INTRA:                  -2.314
REMARK UNBOUND:                -2.043
REMARK  Name = 
REMARK  16 active torsions:
REMARK  status: ('A' for Active; 'I' for Inactive)
REMARK    1  A    between atoms: C_1  and  C_2
REMARK    2  A    between atoms: C_2  and  C_3
REMARK    3  A    between atoms: C_3  and  C_4
REMARK    4  A    between atoms: C_4  and  C_5
REMARK    5  A    between atoms: C_5  and  C_6
REMARK    6  A    between atoms: C_6  and  C_7
REMARK    7  A    between atoms: C_7  and  C_8
REMARK    8  A    between atoms: C_8  and  C_9
REMARK    9  A    between atoms: C_10  and  C_11
REMARK   10  A    between atoms: C_11  and  C_12
REMARK   11  A    between atoms: C_12  and  C_13
REMARK   12  A    between atoms: C_13  and  C_14
REMARK   13  A    between atoms: C_14  and  C_15
REMARK   14  A    between atoms: C_15  and  C_16
REMARK   15  A    between atoms: C_16  and  C_17
REMARK   16  A    between atoms: C_17  and  C_18
REMARK                            x       y       z     vdW  Elec       q    Type
REMARK                         _______ _______ _______ _____ _____    ______ ____
ROOT
ATOM      1  C   UNL     1      85.708  53.717  46.737  0.00  0.00    -0.088 C 
ATOM      2  C   UNL     1      85.470  54.792  47.511  0.00  0.00    -0.088 C 
ENDROOT
BRANCH   1   3
ATOM      3  C   UNL     1      84.638  52.851  46.118  0.00  0.00    -0.035 C 
BRANCH   3   4
ATOM      4  C   UNL     1      85.121  52.181  44.824  0.00  0.00    -0.050 C 
BRANCH   4   5
ATOM      5  C   UNL     1      86.651  52.207  44.694  0.00  0.00    -0.053 C 
BRANCH   5   6
ATOM      6  C   UNL     1      87.169  50.923  44.034  0.00  0.00    -0.053 C 
BRANCH   6   7
ATOM      7  C   UNL     1      87.982  50.082  45.026  0.00  0.00    -0.053 C 
BRANCH   7   8
ATOM      8  C   UNL     1      87.156  49.761  46.280  0.00  0.00    -0.053 C 
BRANCH   8  10
ATOM      9  C   UNL     1      86.854  50.914  48.536  0.00  0.00    -0.065 C 
ATOM     10  C   UNL     1      87.832  50.242  47.572  0.00  0.00    -0.056 C 
ENDBRANCH   8  10
ENDBRANCH   7   8
ENDBRANCH   6   7
ENDBRANCH   5   6
ENDBRANCH   4   5
ENDBRANCH   3   4
ENDBRANCH   1   3
BRANCH   2  11
ATOM     11  C   UNL     1      84.100  55.352  47.799  0.00  0.00    -0.035 C 
BRANCH  11  12
ATOM     12  C   UNL     1      83.842  56.612  46.960  0.00  0.00    -0.050 C 
BRANCH  12  13
ATOM     13  C   UNL     1      85.134  57.375  46.634  0.00  0.00    -0.053 C 
BRANCH  13  14
ATOM     14  C   UNL     1      84.949  58.399  45.501  0.00  0.00    -0.053 C 
BRANCH  14  15
ATOM     15  C   UNL     1      85.700  57.985  44.219  0.00  0.00    -0.053 C 
BRANCH  15  16
ATOM     16  C   UNL     1      86.665  56.800  44.418  0.00  0.00    -0.043 C 
BRANCH  16  17
ATOM     17  C   UNL     1      86.269  55.529  43.643  0.00  0.00    +0.045 C 
BRANCH  17  18
ATOM     18  C   UNL     1      84.951  55.662  42.938  0.00  0.00    +0.305 C 
ATOM     19  O   UNL     1      83.875  55.454  43.560  0.00  0.00    -0.251 OA
ATOM     20  O   UNL     1      84.918  55.963  41.580  0.00  0.00    -0.481 OA
ENDBRANCH  17  18
ENDBRANCH  16  17
ENDBRANCH  15  16
ENDBRANCH  14  15
ENDBRANCH  13  14
ENDBRANCH  12  13
ENDBRANCH  11  12
ENDBRANCH   2  11
TORSDOF 15
ENDMDL
MODEL 5
REMARK VINA RESULT:    -5.575      3.439      6.041
REMARK INTER + INTRA:         -12.507
REMARK INTER:                  -9.897
REMARK INTRA:                  -2.611
REMARK UNBOUND:                -2.043
REMARK  Name = 
REMARK  16 active torsions:
REMARK  status: ('A' for Active; 'I' for Inactive)
REMARK    1  A    between atoms: C_1  and  C_2
REMARK    2  A    between atoms: C_2  and  C_3
REMARK    3  A    between atoms: C_3  and  C_4
REMARK    4  A    between atoms: C_4  and  C_5
REMARK    5  A    between atoms: C_5  and  C_6
REMARK    6  A    between atoms: C_6  and  C_7
REMARK    7  A    between atoms: C_7  and  C_8
REMARK    8  A    between atoms: C_8  and  C_9
REMARK    9  A    between atoms: C_10  and  C_11
REMARK   10  A    between atoms: C_11  and  C_12
REMARK   11  A    between atoms: C_12  and  C_13
REMARK   12  A    between atoms: C_13  and  C_14
REMARK   13  A    between atoms: C_14  and  C_15
REMARK   14  A    between atoms: C_15  and  C_16
REMARK   15  A    between atoms: C_16  and  C_17
REMARK   16  A    between atoms: C_17  and  C_18
REMARK                            x       y       z     vdW  Elec       q    Type
REMARK                         _______ _______ _______ _____ _____    ______ ____
ROOT
ATOM      1  C   UNL     1      83.248  54.570  48.100  0.00  0.00    -0.088 C 
ATOM      2  C   UNL     1      83.783  53.368  48.383  0.00  0.00    -0.088 C 
ENDROOT
BRANCH   1   3
ATOM      3  C   UNL     1      83.970  55.887  48.246  0.00  0.00    -0.035 C 
BRANCH   3   4
ATOM      4  C   UNL     1      83.870  56.740  46.973  0.00  0.00    -0.050 C 
BRANCH   4   5
ATOM      5  C   UNL     1      85.251  57.136  46.430  0.00  0.00    -0.053 C 
BRANCH   5   6
ATOM      6  C   UNL     1      85.132  57.798  45.052  0.00  0.00    -0.053 C 
BRANCH   6   7
ATOM      7  C   UNL     1      85.373  56.782  43.930  0.00  0.00    -0.053 C 
BRANCH   7   8
ATOM      8  C   UNL     1      84.062  56.436  43.209  0.00  0.00    -0.053 C 
BRANCH   8  10
ATOM      9  C   UNL     1      83.108  54.768  41.530  0.00  0.00    -0.065 C 
ATOM     10  C   UNL     1      84.291  55.661  41.903  0.00  0.00    -0.056 C 
ENDBRANCH   8  10
ENDBRANCH   7   8
ENDBRANCH   6   7
ENDBRANCH   5   6
ENDBRANCH   4   5
ENDBRANCH   3   4
ENDBRANCH   1   3
BRANCH   2  11
ATOM     11  C   UNL     1      85.215  53.146  48.799  0.00  0.00    -0.035 C 
BRANCH  11  12
ATOM     12  C   UNL     1      86.024  52.535  47.646  0.00  0.00    -0.050 C 
BRANCH  12  13
ATOM     13  C   UNL     1      86.412  53.573  46.584  0.00  0.00    -0.053 C 
BRANCH  13  14
ATOM     14  C   UNL     1      86.067  53.119  45.155  0.00  0.00    -0.053 C 
BRANCH  14  15
ATOM     15  C   UNL     1      84.562  53.266  44.850  0.00  0.00    -0.053 C 
BRANCH  15  16
ATOM     16  C   UNL     1      83.988  52.130  43.982  0.00  0.00    -0.043 C 
BRANCH  16  17
ATOM     17  C   UNL     1      83.795  50.800  44.735  0.00  0.00    +0.045 C 
BRANCH  17  18
ATOM     18  C   UNL     1      84.763  49.738  44.302  0.00  0.00    +0.305 C 
ATOM     19  O   UNL     1      84.755  48.606  44.856  0.00  0.00    -0.251 OA
ATOM     20  O   UNL     1      85.709  50.020  43.322  0.00  0.00    -0.481 OA
ENDBRANCH  17  18
ENDBRANCH  16  17
ENDBRANCH  15  16
ENDBRANCH  14  15
ENDBRANCH  13  14
ENDBRANCH  12  13
ENDBRANCH  11  12
ENDBRANCH   2  11
TORSDOF 15
ENDMDL
MODEL 6
REMARK VINA RESULT:    -5.497      2.794      5.369
REMARK INTER + INTRA:         -12.359
REMARK INTER:                  -9.611
REMARK INTRA:                  -2.748
REMARK UNBOUND:                -2.043
REMARK  Name = 
REMARK  16 active torsions:
REMARK  status: ('A' for Active; 'I' for Inactive)
REMARK    1  A    between atoms: C_1  and  C_2
REMARK    2  A    between atoms: C_2  and  C_3
REMARK    3  A    between atoms: C_3  and  C_4
REMARK    4  A    between atoms: C_4  and  C_5
REMARK    5  A    between atoms: C_5  and  C_6
REMARK    6  A    between atoms: C_6  and  C_7
REMARK    7  A    between atoms: C_7  and  C_8
REMARK    8  A    between atoms: C_8  and  C_9
REMARK    9  A    between atoms: C_10  and  C_11
REMARK   10  A    between atoms: C_11  and  C_12
REMARK   11  A    between atoms: C_12  and  C_13
REMARK   12  A    between atoms: C_13  and  C_14
REMARK   13  A    between atoms: C_14  and  C_15
REMARK   14  A    between atoms: C_15  and  C_16
REMARK   15  A    between atoms: C_16  and  C_17
REMARK   16  A    between atoms: C_17  and  C_18
REMARK                            x       y       z     vdW  Elec       q    Type
REMARK                         _______ _______ _______ _____ _____    ______ ____
ROOT
ATOM      1  C   UNL     1      85.932  57.191  44.589  0.00  0.00    -0.088 C 
ATOM      2  C   UNL     1      84.875  57.200  43.755  0.00  0.00    -0.088 C 
ENDROOT
BRANCH   1   3
ATOM      3  C   UNL     1      86.457  55.965  45.295  0.00  0.00    -0.035 C 
BRANCH   3   4
ATOM      4  C   UNL     1      85.987  55.898  46.755  0.00  0.00    -0.050 C 
BRANCH   4   5
ATOM      5  C   UNL     1      84.792  54.951  46.937  0.00  0.00    -0.053 C 
BRANCH   5   6
ATOM      6  C   UNL     1      85.086  53.572  46.332  0.00  0.00    -0.053 C 
BRANCH   6   7
ATOM      7  C   UNL     1      86.056  52.778  47.216  0.00  0.00    -0.053 C 
BRANCH   7   8
ATOM      8  C   UNL     1      87.222  52.218  46.388  0.00  0.00    -0.053 C 
BRANCH   8  10
ATOM      9  C   UNL     1      87.388  49.937  45.254  0.00  0.00    -0.065 C 
ATOM     10  C   UNL     1      87.408  50.705  46.577  0.00  0.00    -0.056 C 
ENDBRANCH   8  10
ENDBRANCH   7   8
ENDBRANCH   6   7
ENDBRANCH   5   6
ENDBRANCH   4   5
ENDBRANCH   3   4
ENDBRANCH   1   3
BRANCH   2  11
ATOM     11  C   UNL     1      84.114  55.972  43.325  0.00  0.00    -0.035 C 
BRANCH  11  12
ATOM     12  C   UNL     1      84.297  55.720  41.822  0.00  0.00    -0.050 C 
BRANCH  12  13
ATOM     13  C   UNL     1      84.718  54.276  41.514  0.00  0.00    -0.053 C 
BRANCH  13  14
ATOM     14  C   UNL     1      84.548  53.338  42.722  0.00  0.00    -0.053 C 
BRANCH  14  15
ATOM     15  C   UNL     1      85.779  52.432  42.927  0.00  0.00    -0.053 C 
BRANCH  15  16
ATOM     16  C   UNL     1      87.123  53.184  42.874  0.00  0.00    -0.043 C 
BRANCH  16  17
ATOM     17  C   UNL     1      88.313  52.317  42.421  0.00  0.00    +0.045 C 
BRANCH  17  18
ATOM     18  C   UNL     1      88.824  52.693  41.061  0.00  0.00    +0.305 C 
ATOM     19  O   UNL     1      88.018  52.888  40.111  0.00  0.00    -0.251 OA
ATOM     20  O   UNL     1      90.193  52.774  40.832  0.00  0.00    -0.481 OA
ENDBRANCH  17  18
ENDBRANCH  16  17
ENDBRANCH  15  16
ENDBRANCH  14  15
ENDBRANCH  13  14
ENDBRANCH  12  13
ENDBRANCH  11  12
ENDBRANCH   2  11
TORSDOF 15
ENDMDL
MODEL 7
REMARK VINA RESULT:    -5.492      4.990      7.702
REMARK INTER + INTRA:         -12.351
REMARK INTER:                 -10.486
REMARK INTRA:                  -1.865
REMARK UNBOUND:                -2.043
REMARK  Name = 
REMARK  16 active torsions:
REMARK  status: ('A' for Active; 'I' for Inactive)
REMARK    1  A    between atoms: C_1  and  C_2
REMARK    2  A    between atoms: C_2  and  C_3
REMARK    3  A    between atoms: C_3  and  C_4
REMARK    4  A    between atoms: C_4  and  C_5
REMARK    5  A    between atoms: C_5  and  C_6
REMARK    6  A    between atoms: C_6  and  C_7
REMARK    7  A    between atoms: C_7  and  C_8
REMARK    8  A    between atoms: C_8  and  C_9
REMARK    9  A    between atoms: C_10  and  C_11
REMARK   10  A    between atoms: C_11  and  C_12
REMARK   11  A    between atoms: C_12  and  C_13
REMARK   12  A    between atoms: C_13  and  C_14
REMARK   13  A    between atoms: C_14  and  C_15
REMARK   14  A    between atoms: C_15  and  C_16
REMARK   15  A    between atoms: C_16  and  C_17
REMARK   16  A    between atoms: C_17  and  C_18
REMARK                            x       y       z     vdW  Elec       q    Type
REMARK                         _______ _______ _______ _____ _____    ______ ____
ROOT
ATOM      1  C   UNL     1      86.380  52.928  45.211  0.00  0.00    -0.088 C 
ATOM      2  C   UNL     1      85.640  51.805  45.209  0.00  0.00    -0.088 C 
ENDROOT
BRANCH   1   3
ATOM      3  C   UNL     1      85.860  54.299  44.853  0.00  0.00    -0.035 C 
BRANCH   3   4
ATOM      4  C   UNL     1      86.521  55.401  45.694  0.00  0.00    -0.050 C 
BRANCH   4   5
ATOM      5  C   UNL     1      85.927  55.486  47.108  0.00  0.00    -0.053 C 
BRANCH   5   6
ATOM      6  C   UNL     1      84.420  55.765  47.055  0.00  0.00    -0.053 C 
BRANCH   6   7
ATOM      7  C   UNL     1      83.684  55.032  48.183  0.00  0.00    -0.053 C 
BRANCH   7   8
ATOM      8  C   UNL     1      84.662  54.215  49.039  0.00  0.00    -0.053 C 
BRANCH   8  10
ATOM      9  C   UNL     1      85.996  52.045  48.892  0.00  0.00    -0.065 C 
ATOM     10  C   UNL     1      84.637  52.717  48.700  0.00  0.00    -0.056 C 
ENDBRANCH   8  10
ENDBRANCH   7   8
ENDBRANCH   6   7
ENDBRANCH   5   6
ENDBRANCH   4   5
ENDBRANCH   3   4
ENDBRANCH   1   3
BRANCH   2  11
ATOM     11  C   UNL     1      84.157  51.758  44.940  0.00  0.00    -0.035 C 
BRANCH  11  12
ATOM     12  C   UNL     1      83.876  51.146  43.560  0.00  0.00    -0.050 C 
BRANCH  12  13
ATOM     13  C   UNL     1      82.834  51.945  42.764  0.00  0.00    -0.053 C 
BRANCH  13  14
ATOM     14  C   UNL     1      81.727  51.054  42.174  0.00  0.00    -0.053 C 
BRANCH  14  15
ATOM     15  C   UNL     1      80.722  50.593  43.249  0.00  0.00    -0.053 C 
BRANCH  15  16
ATOM     16  C   UNL     1      80.750  49.077  43.518  0.00  0.00    -0.043 C 
BRANCH  16  17
ATOM     17  C   UNL     1      80.527  48.695  44.994  0.00  0.00    +0.045 C 
BRANCH  17  18
ATOM     18  C   UNL     1      80.165  47.250  45.175  0.00  0.00    +0.305 C 
ATOM     19  O   UNL     1      78.964  46.879  45.083  0.00  0.00    -0.251 OA
ATOM     20  O   UNL     1      81.151  46.323  45.498  0.00  0.00    -0.481 OA
ENDBRANCH  17  18
ENDBRANCH  16  17
ENDBRANCH  15  16
ENDBRANCH  14  15
ENDBRANCH  13  14
ENDBRANCH  12  13
ENDBRANCH  11  12
ENDBRANCH   2  11
TORSDOF 15
ENDMDL
MODEL 8
REMARK VINA RESULT:    -5.358      3.181      6.679
REMARK INTER + INTRA:         -12.100
REMARK INTER:                 -10.426
REMARK INTRA:                  -1.674
REMARK UNBOUND:                -2.043
REMARK  Name = 
REMARK  16 active torsions:
REMARK  status: ('A' for Active; 'I' for Inactive)
REMARK    1  A    between atoms: C_1  and  C_2
REMARK    2  A    between atoms: C_2  and  C_3
REMARK    3  A    between atoms: C_3  and  C_4
REMARK    4  A    between atoms: C_4  and  C_5
REMARK    5  A    between atoms: C_5  and  C_6
REMARK    6  A    between atoms: C_6  and  C_7
REMARK    7  A    between atoms: C_7  and  C_8
REMARK    8  A    between atoms: C_8  and  C_9
REMARK    9  A    between atoms: C_10  and  C_11
REMARK   10  A    between atoms: C_11  and  C_12
REMARK   11  A    between atoms: C_12  and  C_13
REMARK   12  A    between atoms: C_13  and  C_14
REMARK   13  A    between atoms: C_14  and  C_15
REMARK   14  A    between atoms: C_15  and  C_16
REMARK   15  A    between atoms: C_16  and  C_17
REMARK   16  A    between atoms: C_17  and  C_18
REMARK                            x       y       z     vdW  Elec       q    Type
REMARK                         _______ _______ _______ _____ _____    ______ ____
ROOT
ATOM      1  C   UNL     1      84.521  57.233  43.637  0.00  0.00    -0.088 C 
ATOM      2  C   UNL     1      84.365  55.912  43.426  0.00  0.00    -0.088 C 
ENDROOT
BRANCH   1   3
ATOM      3  C   UNL     1      85.600  57.842  44.497  0.00  0.00    -0.035 C 
BRANCH   3   4
ATOM      4  C   UNL     1      85.109  58.114  45.927  0.00  0.00    -0.050 C 
BRANCH   4   5
ATOM      5  C   UNL     1      85.439  56.957  46.882  0.00  0.00    -0.053 C 
BRANCH   5   6
ATOM      6  C   UNL     1      84.159  56.318  47.434  0.00  0.00    -0.053 C 
BRANCH   6   7
ATOM      7  C   UNL     1      84.276  54.790  47.468  0.00  0.00    -0.053 C 
BRANCH   7   8
ATOM      8  C   UNL     1      85.721  54.355  47.755  0.00  0.00    -0.053 C 
BRANCH   8  10
ATOM      9  C   UNL     1      85.949  52.083  48.895  0.00  0.00    -0.065 C 
ATOM     10  C   UNL     1      85.932  52.845  47.569  0.00  0.00    -0.056 C 
ENDBRANCH   8  10
ENDBRANCH   7   8
ENDBRANCH   6   7
ENDBRANCH   5   6
ENDBRANCH   4   5
ENDBRANCH   3   4
ENDBRANCH   1   3
BRANCH   2  11
ATOM     11  C   UNL     1      85.300  54.848  43.940  0.00  0.00    -0.035 C 
BRANCH  11  12
ATOM     12  C   UNL     1      84.890  53.466  43.410  0.00  0.00    -0.050 C 
BRANCH  12  13
ATOM     13  C   UNL     1      84.962  53.378  41.879  0.00  0.00    -0.053 C 
BRANCH  13  14
ATOM     14  C   UNL     1      86.158  52.545  41.387  0.00  0.00    -0.053 C 
BRANCH  14  15
ATOM     15  C   UNL     1      87.222  52.356  42.487  0.00  0.00    -0.053 C 
BRANCH  15  16
ATOM     16  C   UNL     1      88.581  53.002  42.157  0.00  0.00    -0.043 C 
BRANCH  16  17
ATOM     17  C   UNL     1      89.550  52.077  41.396  0.00  0.00    +0.045 C 
BRANCH  17  18
ATOM     18  C   UNL     1      89.464  52.240  39.907  0.00  0.00    +0.305 C 
ATOM     19  O   UNL     1      88.848  51.390  39.210  0.00  0.00    -0.251 OA
ATOM     20  O   UNL     1      90.112  53.303  39.287  0.00  0.00    -0.481 OA
ENDBRANCH  17  18
ENDBRANCH  16  17
ENDBRANCH  15  16
ENDBRANCH  14  15
ENDBRANCH  13  14
ENDBRANCH  12  13
ENDBRANCH  11  12
ENDBRANCH   2  11
TORSDOF 15
ENDMDL
MODEL 9
REMARK VINA RESULT:    -5.337      1.452      2.681
REMARK INTER + INTRA:         -12.061
REMARK INTER:                 -10.018
REMARK INTRA:                  -2.043
REMARK UNBOUND:                -2.043
REMARK  Name = 
REMARK  16 active torsions:
REMARK  status: ('A' for Active; 'I' for Inactive)
REMARK    1  A    between atoms: C_1  and  C_2
REMARK    2  A    between atoms: C_2  and  C_3
REMARK    3  A    between atoms: C_3  and  C_4
REMARK    4  A    between atoms: C_4  and  C_5
REMARK    5  A    between atoms: C_5  and  C_6
REMARK    6  A    between atoms: C_6  and  C_7
REMARK    7  A    between atoms: C_7  and  C_8
REMARK    8  A    between atoms: C_8  and  C_9
REMARK    9  A    between atoms: C_10  and  C_11
REMARK   10  A    between atoms: C_11  and  C_12
REMARK   11  A    between atoms: C_12  and  C_13
REMARK   12  A    between atoms: C_13  and  C_14
REMARK   13  A    between atoms: C_14  and  C_15
REMARK   14  A    between atoms: C_15  and  C_16
REMARK   15  A    between atoms: C_16  and  C_17
REMARK   16  A    between atoms: C_17  and  C_18
REMARK                            x       y       z     vdW  Elec       q    Type
REMARK                         _______ _______ _______ _____ _____    ______ ____
ROOT
ATOM      1  C   UNL     1      87.032  50.153  45.589  0.00  0.00    -0.088 C 
ATOM      2  C   UNL     1      86.857  49.987  46.913  0.00  0.00    -0.088 C 
ENDROOT
BRANCH   1   3
ATOM      3  C   UNL     1      87.626  51.384  44.949  0.00  0.00    -0.035 C 
BRANCH   3   4
ATOM      4  C   UNL     1      86.784  51.877  43.764  0.00  0.00    -0.050 C 
BRANCH   4   5
ATOM      5  C   UNL     1      87.609  52.715  42.775  0.00  0.00    -0.053 C 
BRANCH   5   6
ATOM      6  C   UNL     1      88.519  51.822  41.924  0.00  0.00    -0.053 C 
BRANCH   6   7
ATOM      7  C   UNL     1      87.732  50.658  41.311  0.00  0.00    -0.053 C 
BRANCH   7   8
ATOM      8  C   UNL     1      88.425  49.317  41.591  0.00  0.00    -0.053 C 
BRANCH   8  10
ATOM      9  C   UNL     1      90.043  48.841  43.507  0.00  0.00    -0.065 C 
ATOM     10  C   UNL     1      89.851  49.490  42.136  0.00  0.00    -0.056 C 
ENDBRANCH   8  10
ENDBRANCH   7   8
ENDBRANCH   6   7
ENDBRANCH   5   6
ENDBRANCH   4   5
ENDBRANCH   3   4
ENDBRANCH   1   3
BRANCH   2  11
ATOM     11  C   UNL     1      87.315  50.966  47.965  0.00  0.00    -0.035 C 
BRANCH  11  12
ATOM     12  C   UNL     1      86.140  51.388  48.859  0.00  0.00    -0.050 C 
BRANCH  12  13
ATOM     13  C   UNL     1      85.485  52.695  48.391  0.00  0.00    -0.053 C 
BRANCH  13  14
ATOM     14  C   UNL     1      86.381  53.498  47.432  0.00  0.00    -0.053 C 
BRANCH  14  15
ATOM     15  C   UNL     1      85.570  54.500  46.586  0.00  0.00    -0.053 C 
BRANCH  15  16
ATOM     16  C   UNL     1      86.436  55.541  45.851  0.00  0.00    -0.043 C 
BRANCH  16  17
ATOM     17  C   UNL     1      85.700  56.853  45.521  0.00  0.00    +0.045 C 
BRANCH  17  18
ATOM     18  C   UNL     1      85.684  57.159  44.052  0.00  0.00    +0.305 C 
ATOM     19  O   UNL     1      85.660  56.223  43.208  0.00  0.00    -0.251 OA
ATOM     20  O   UNL     1      85.749  58.479  43.618  0.00  0.00    -0.481 OA
ENDBRANCH  17  18
ENDBRANCH  16  17
ENDBRANCH  15  16
ENDBRANCH  14  15
ENDBRANCH  13  14
ENDBRANCH  12  13
ENDBRANCH  11  12
ENDBRANCH   2  11
TORSDOF 15
ENDMDL
