MODEL 1
REMARK VINA RESULT:    -8.163      0.000      0.000
REMARK INTER + INTRA:         -26.068
REMARK INTER:                 -21.817
REMARK INTRA:                  -4.252
REMARK UNBOUND:                -5.259
REMARK  Name = 
REMARK  30 active torsions:
REMARK  status: ('A' for Active; 'I' for Inactive)
REMARK    1  A    between atoms: C_1  and  C_2
REMARK    2  A    between atoms: C_2  and  C_3
REMARK    3  A    between atoms: C_3  and  C_4
REMARK    4  A    between atoms: C_4  and  C_5
REMARK    5  A    between atoms: C_5  and  C_6
REMARK    6  A    between atoms: C_6  and  C_7
REMARK    7  A    between atoms: C_7  and  C_8
REMARK    8  A    between atoms: C_7  and  O_44
REMARK    9  A    between atoms: C_8  and  C_9
REMARK   10  A    between atoms: C_9  and  C_10
REMARK   11  A    between atoms: C_10  and  C_11
REMARK   12  A    between atoms: C_11  and  C_12
REMARK   13  A    between atoms: C_11  and  O_43
REMARK   14  A    between atoms: C_15  and  C_17
REMARK   15  A    between atoms: C_20  and  C_22
REMARK   16  A    between atoms: C_22  and  C_23
REMARK   17  A    between atoms: C_22  and  O_42
REMARK   18  A    between atoms: C_23  and  C_24
REMARK   19  A    between atoms: C_24  and  C_25
REMARK   20  A    between atoms: C_25  and  C_26
REMARK   21  A    between atoms: C_26  and  C_27
REMARK   22  A    between atoms: C_27  and  C_28
REMARK   23  A    between atoms: C_28  and  C_29
REMARK   24  A    between atoms: C_29  and  C_30
REMARK   25  A    between atoms: C_30  and  C_31
REMARK   26  A    between atoms: C_31  and  C_32
REMARK   27  A    between atoms: C_32  and  C_33
REMARK   28  A    between atoms: C_33  and  C_34
REMARK   29  A    between atoms: C_34  and  C_35
REMARK   30  A    between atoms: C_37  and  C_41
REMARK                            x       y       z     vdW  Elec       q    Type
REMARK                         _______ _______ _______ _____ _____    ______ ____
ROOT
ATOM      1  C   UNL     1      86.185  54.302  43.783  0.00  0.00    +0.085 C 
ATOM      2  C   UNL     1      86.105  54.171  45.306  0.00  0.00    -0.022 C 
ATOM      3  C   UNL     1      86.818  55.391  45.806  0.00  0.00    -0.022 C 
ATOM      4  C   UNL     1      86.706  56.359  44.636  0.00  0.00    +0.085 C 
ATOM      5  O   UNL     1      86.656  55.593  43.453  0.00  0.00    -0.368 OA
ENDROOT
BRANCH   1   9
ATOM      6  C   UNL     1      86.827  52.821  40.921  0.00  0.00    +0.085 C 
ATOM      7  C   UNL     1      85.932  51.828  41.667  0.00  0.00    -0.022 C 
ATOM      8  C   UNL     1      86.450  51.871  43.072  0.00  0.00    -0.022 C 
ATOM      9  C   UNL     1      87.117  53.238  43.159  0.00  0.00    +0.085 C 
ATOM     10  O   UNL     1      87.495  53.639  41.859  0.00  0.00    -0.368 OA
BRANCH   6  11
ATOM     11  C   UNL     1      87.881  52.138  40.015  0.00  0.00    +0.081 C 
BRANCH  11  12
ATOM     12  O   UNL     1      88.311  53.047  39.034  0.00  0.00    -0.389 OA
ATOM     13  H   UNL     1      88.426  53.923  39.433  0.00  0.00    +0.000 HD
ENDBRANCH  11  12
BRANCH  11  14
ATOM     14  C   UNL     1      89.108  51.599  40.796  0.00  0.00    -0.024 C 
BRANCH  14  15
ATOM     15  C   UNL     1      89.103  50.079  41.067  0.00  0.00    -0.048 C 
BRANCH  15  16
ATOM     16  C   UNL     1      89.377  49.656  42.528  0.00  0.00    -0.027 C 
BRANCH  16  17
ATOM     17  C   UNL     1      90.550  48.666  42.751  0.00  0.00    +0.055 C 
BRANCH  17  18
ATOM     18  O   UNL     1      90.813  48.522  44.124  0.00  0.00    -0.392 OA
ATOM     19  H   UNL     1      90.721  49.382  44.563  0.00  0.00    +0.000 HD
ENDBRANCH  17  18
BRANCH  17  20
ATOM     20  C   UNL     1      90.337  47.268  42.135  0.00  0.00    -0.027 C 
BRANCH  20  21
ATOM     21  C   UNL     1      88.926  46.709  42.393  0.00  0.00    -0.051 C 
BRANCH  21  22
ATOM     22  C   UNL     1      88.924  45.201  42.706  0.00  0.00    -0.053 C 
BRANCH  22  23
ATOM     23  C   UNL     1      87.556  44.616  43.106  0.00  0.00    -0.053 C 
BRANCH  23  25
ATOM     24  C   UNL     1      88.145  42.585  44.481  0.00  0.00    -0.065 C 
ATOM     25  C   UNL     1      87.553  43.081  43.166  0.00  0.00    -0.056 C 
ENDBRANCH  23  25
ENDBRANCH  22  23
ENDBRANCH  21  22
ENDBRANCH  20  21
ENDBRANCH  17  20
ENDBRANCH  16  17
ENDBRANCH  15  16
ENDBRANCH  14  15
ENDBRANCH  11  14
ENDBRANCH   6  11
ENDBRANCH   1   9
BRANCH   4  26
ATOM     26  C   UNL     1      85.450  57.269  44.730  0.00  0.00    +0.081 C 
BRANCH  26  27
ATOM     27  O   UNL     1      85.668  58.487  44.061  0.00  0.00    -0.389 OA
ATOM     28  H   UNL     1      84.884  58.712  43.537  0.00  0.00    +0.000 HD
ENDBRANCH  26  27
BRANCH  26  29
ATOM     29  C   UNL     1      85.042  57.536  46.196  0.00  0.00    -0.024 C 
BRANCH  29  30
ATOM     30  C   UNL     1      83.836  56.676  46.607  0.00  0.00    -0.051 C 
BRANCH  30  31
ATOM     31  C   UNL     1      84.006  56.043  48.005  0.00  0.00    -0.053 C 
BRANCH  31  32
ATOM     32  C   UNL     1      83.709  54.530  48.046  0.00  0.00    -0.053 C 
BRANCH  32  33
ATOM     33  C   UNL     1      84.544  53.726  49.058  0.00  0.00    -0.053 C 
BRANCH  33  34
ATOM     34  C   UNL     1      85.719  52.980  48.399  0.00  0.00    -0.053 C 
BRANCH  34  35
ATOM     35  C   UNL     1      85.993  51.613  49.058  0.00  0.00    -0.053 C 
BRANCH  35  36
ATOM     36  C   UNL     1      87.121  50.807  48.384  0.00  0.00    -0.053 C 
BRANCH  36  37
ATOM     37  C   UNL     1      87.473  51.286  46.962  0.00  0.00    -0.053 C 
BRANCH  37  38
ATOM     38  C   UNL     1      87.536  50.131  45.948  0.00  0.00    -0.053 C 
BRANCH  38  39
ATOM     39  C   UNL     1      86.229  49.316  45.888  0.00  0.00    -0.049 C 
BRANCH  39  40
ATOM     40  C   UNL     1      86.064  48.491  44.601  0.00  0.00    -0.021 C 
BRANCH  40  41
ATOM     41  C   UNL     1      84.637  48.399  44.142  0.00  0.00    +0.036 C 
ATOM     42  C   UNL     1      83.766  49.400  44.108  0.00  0.00    -0.034 C 
ATOM     43  C   UNL     1      82.448  48.938  43.540  0.00  0.00    +0.120 C 
ATOM     44  O   UNL     1      82.668  47.557  43.258  0.00  0.00    -0.454 OA
ATOM     45  C   UNL     1      83.966  47.236  43.606  0.00  0.00    +0.336 C 
ATOM     46  O   UNL     1      84.471  46.092  43.462  0.00  0.00    -0.245 OA
ATOM     47  C   UNL     1      81.315  49.102  44.548  0.00  0.00    -0.024 C 
ENDBRANCH  40  41
ENDBRANCH  39  40
ENDBRANCH  38  39
ENDBRANCH  37  38
ENDBRANCH  36  37
ENDBRANCH  35  36
ENDBRANCH  34  35
ENDBRANCH  33  34
ENDBRANCH  32  33
ENDBRANCH  31  32
ENDBRANCH  30  31
ENDBRANCH  29  30
ENDBRANCH  26  29
ENDBRANCH   4  26
TORSDOF 28
ENDMDL
MODEL 2
REMARK VINA RESULT:    -7.979      1.884      5.252
REMARK INTER + INTRA:         -25.599
REMARK INTER:                 -19.577
REMARK INTRA:                  -6.022
REMARK UNBOUND:                -5.259
REMARK  Name = 
REMARK  30 active torsions:
REMARK  status: ('A' for Active; 'I' for Inactive)
REMARK    1  A    between atoms: C_1  and  C_2
REMARK    2  A    between atoms: C_2  and  C_3
REMARK    3  A    between atoms: C_3  and  C_4
REMARK    4  A    between atoms: C_4  and  C_5
REMARK    5  A    between atoms: C_5  and  C_6
REMARK    6  A    between atoms: C_6  and  C_7
REMARK    7  A    between atoms: C_7  and  C_8
REMARK    8  A    between atoms: C_7  and  O_44
REMARK    9  A    between atoms: C_8  and  C_9
REMARK   10  A    between atoms: C_9  and  C_10
REMARK   11  A    between atoms: C_10  and  C_11
REMARK   12  A    between atoms: C_11  and  C_12
REMARK   13  A    between atoms: C_11  and  O_43
REMARK   14  A    between atoms: C_15  and  C_17
REMARK   15  A    between atoms: C_20  and  C_22
REMARK   16  A    between atoms: C_22  and  C_23
REMARK   17  A    between atoms: C_22  and  O_42
REMARK   18  A    between atoms: C_23  and  C_24
REMARK   19  A    between atoms: C_24  and  C_25
REMARK   20  A    between atoms: C_25  and  C_26
REMARK   21  A    between atoms: C_26  and  C_27
REMARK   22  A    between atoms: C_27  and  C_28
REMARK   23  A    between atoms: C_28  and  C_29
REMARK   24  A    between atoms: C_29  and  C_30
REMARK   25  A    between atoms: C_30  and  C_31
REMARK   26  A    between atoms: C_31  and  C_32
REMARK   27  A    between atoms: C_32  and  C_33
REMARK   28  A    between atoms: C_33  and  C_34
REMARK   29  A    between atoms: C_34  and  C_35
REMARK   30  A    between atoms: C_37  and  C_41
REMARK                            x       y       z     vdW  Elec       q    Type
REMARK                         _______ _______ _______ _____ _____    ______ ____
ROOT
ATOM      1  C   UNL     1      87.749  50.625  41.495  0.00  0.00    +0.085 C 
ATOM      2  C   UNL     1      87.906  51.519  42.729  0.00  0.00    -0.022 C 
ATOM      3  C   UNL     1      88.140  52.882  42.152  0.00  0.00    -0.022 C 
ATOM      4  C   UNL     1      87.521  52.780  40.764  0.00  0.00    +0.085 C 
ATOM      5  O   UNL     1      87.635  51.438  40.345  0.00  0.00    -0.368 OA
ENDROOT
BRANCH   1   9
ATOM      6  C   UNL     1      88.985  47.846  42.738  0.00  0.00    +0.085 C 
ATOM      7  C   UNL     1      89.780  48.956  43.431  0.00  0.00    -0.022 C 
ATOM      8  C   UNL     1      90.053  49.936  42.331  0.00  0.00    -0.022 C 
ATOM      9  C   UNL     1      88.942  49.657  41.328  0.00  0.00    +0.085 C 
ATOM     10  O   UNL     1      88.502  48.326  41.500  0.00  0.00    -0.368 OA
BRANCH   6  11
ATOM     11  C   UNL     1      89.813  46.562  42.486  0.00  0.00    +0.081 C 
BRANCH  11  12
ATOM     12  O   UNL     1      91.000  46.619  43.238  0.00  0.00    -0.389 OA
ATOM     13  H   UNL     1      90.792  46.866  44.152  0.00  0.00    +0.000 HD
ENDBRANCH  11  12
BRANCH  11  14
ATOM     14  C   UNL     1      89.046  45.258  42.827  0.00  0.00    -0.024 C 
BRANCH  14  15
ATOM     15  C   UNL     1      87.612  45.168  42.264  0.00  0.00    -0.048 C 
BRANCH  15  16
ATOM     16  C   UNL     1      86.473  45.341  43.294  0.00  0.00    -0.027 C 
BRANCH  16  17
ATOM     17  C   UNL     1      85.417  46.432  42.976  0.00  0.00    +0.055 C 
BRANCH  17  18
ATOM     18  O   UNL     1      84.217  45.840  42.548  0.00  0.00    -0.392 OA
ATOM     19  H   UNL     1      83.465  46.315  42.936  0.00  0.00    +0.000 HD
ENDBRANCH  17  18
BRANCH  17  20
ATOM     20  C   UNL     1      85.109  47.390  44.145  0.00  0.00    -0.027 C 
BRANCH  20  21
ATOM     21  C   UNL     1      86.170  48.494  44.310  0.00  0.00    -0.051 C 
BRANCH  21  22
ATOM     22  C   UNL     1      86.213  49.080  45.733  0.00  0.00    -0.053 C 
BRANCH  22  23
ATOM     23  C   UNL     1      87.252  50.196  45.951  0.00  0.00    -0.053 C 
BRANCH  23  25
ATOM     24  C   UNL     1      87.198  50.760  48.410  0.00  0.00    -0.065 C 
ATOM     25  C   UNL     1      87.986  50.079  47.295  0.00  0.00    -0.056 C 
ENDBRANCH  23  25
ENDBRANCH  22  23
ENDBRANCH  21  22
ENDBRANCH  20  21
ENDBRANCH  17  20
ENDBRANCH  16  17
ENDBRANCH  15  16
ENDBRANCH  14  15
ENDBRANCH  11  14
ENDBRANCH   6  11
ENDBRANCH   1   9
BRANCH   4  26
ATOM     26  C   UNL     1      86.031  53.216  40.739  0.00  0.00    +0.081 C 
BRANCH  26  27
ATOM     27  O   UNL     1      85.720  53.856  39.526  0.00  0.00    -0.389 OA
ATOM     28  H   UNL     1      86.247  54.666  39.444  0.00  0.00    +0.000 HD
ENDBRANCH  26  27
BRANCH  26  29
ATOM     29  C   UNL     1      85.681  54.139  41.929  0.00  0.00    -0.024 C 
BRANCH  29  30
ATOM     30  C   UNL     1      84.538  55.104  41.573  0.00  0.00    -0.051 C 
BRANCH  30  31
ATOM     31  C   UNL     1      83.905  55.761  42.817  0.00  0.00    -0.053 C 
BRANCH  31  32
ATOM     32  C   UNL     1      84.922  56.466  43.738  0.00  0.00    -0.053 C 
BRANCH  32  33
ATOM     33  C   UNL     1      84.379  56.884  45.115  0.00  0.00    -0.053 C 
BRANCH  33  34
ATOM     34  C   UNL     1      85.300  56.457  46.272  0.00  0.00    -0.053 C 
BRANCH  34  35
ATOM     35  C   UNL     1      86.516  55.642  45.788  0.00  0.00    -0.053 C 
BRANCH  35  36
ATOM     36  C   UNL     1      86.629  54.244  46.429  0.00  0.00    -0.053 C 
BRANCH  36  37
ATOM     37  C   UNL     1      85.380  53.814  47.224  0.00  0.00    -0.053 C 
BRANCH  37  38
ATOM     38  C   UNL     1      84.619  52.659  46.549  0.00  0.00    -0.053 C 
BRANCH  38  39
ATOM     39  C   UNL     1      84.216  52.977  45.096  0.00  0.00    -0.049 C 
BRANCH  39  40
ATOM     40  C   UNL     1      84.509  51.842  44.101  0.00  0.00    -0.021 C 
BRANCH  40  41
ATOM     41  C   UNL     1      83.283  51.063  43.721  0.00  0.00    +0.036 C 
ATOM     42  C   UNL     1      82.744  50.071  44.421  0.00  0.00    -0.034 C 
ATOM     43  C   UNL     1      81.492  49.566  43.750  0.00  0.00    +0.120 C 
ATOM     44  O   UNL     1      81.382  50.383  42.585  0.00  0.00    -0.454 OA
ATOM     45  C   UNL     1      82.437  51.275  42.569  0.00  0.00    +0.336 C 
ATOM     46  O   UNL     1      82.611  52.142  41.673  0.00  0.00    -0.245 OA
ATOM     47  C   UNL     1      81.618  48.097  43.362  0.00  0.00    -0.024 C 
ENDBRANCH  40  41
ENDBRANCH  39  40
ENDBRANCH  38  39
ENDBRANCH  37  38
ENDBRANCH  36  37
ENDBRANCH  35  36
ENDBRANCH  34  35
ENDBRANCH  33  34
ENDBRANCH  32  33
ENDBRANCH  31  32
ENDBRANCH  30  31
ENDBRANCH  29  30
ENDBRANCH  26  29
ENDBRANCH   4  26
TORSDOF 28
ENDMDL
MODEL 3
REMARK VINA RESULT:    -7.847      2.183      6.508
REMARK INTER + INTRA:         -25.263
REMARK INTER:                 -20.091
REMARK INTRA:                  -5.172
REMARK UNBOUND:                -5.259
REMARK  Name = 
REMARK  30 active torsions:
REMARK  status: ('A' for Active; 'I' for Inactive)
REMARK    1  A    between atoms: C_1  and  C_2
REMARK    2  A    between atoms: C_2  and  C_3
REMARK    3  A    between atoms: C_3  and  C_4
REMARK    4  A    between atoms: C_4  and  C_5
REMARK    5  A    between atoms: C_5  and  C_6
REMARK    6  A    between atoms: C_6  and  C_7
REMARK    7  A    between atoms: C_7  and  C_8
REMARK    8  A    between atoms: C_7  and  O_44
REMARK    9  A    between atoms: C_8  and  C_9
REMARK   10  A    between atoms: C_9  and  C_10
REMARK   11  A    between atoms: C_10  and  C_11
REMARK   12  A    between atoms: C_11  and  C_12
REMARK   13  A    between atoms: C_11  and  O_43
REMARK   14  A    between atoms: C_15  and  C_17
REMARK   15  A    between atoms: C_20  and  C_22
REMARK   16  A    between atoms: C_22  and  C_23
REMARK   17  A    between atoms: C_22  and  O_42
REMARK   18  A    between atoms: C_23  and  C_24
REMARK   19  A    between atoms: C_24  and  C_25
REMARK   20  A    between atoms: C_25  and  C_26
REMARK   21  A    between atoms: C_26  and  C_27
REMARK   22  A    between atoms: C_27  and  C_28
REMARK   23  A    between atoms: C_28  and  C_29
REMARK   24  A    between atoms: C_29  and  C_30
REMARK   25  A    between atoms: C_30  and  C_31
REMARK   26  A    between atoms: C_31  and  C_32
REMARK   27  A    between atoms: C_32  and  C_33
REMARK   28  A    between atoms: C_33  and  C_34
REMARK   29  A    between atoms: C_34  and  C_35
REMARK   30  A    between atoms: C_37  and  C_41
REMARK                            x       y       z     vdW  Elec       q    Type
REMARK                         _______ _______ _______ _____ _____    ______ ____
ROOT
ATOM      1  C   UNL     1      88.662  50.141  41.782  0.00  0.00    +0.085 C 
ATOM      2  C   UNL     1      89.380  51.080  40.808  0.00  0.00    -0.022 C 
ATOM      3  C   UNL     1      88.273  51.908  40.232  0.00  0.00    -0.022 C 
ATOM      4  C   UNL     1      87.186  51.817  41.294  0.00  0.00    +0.085 C 
ATOM      5  O   UNL     1      87.326  50.572  41.942  0.00  0.00    -0.368 OA
ENDROOT
BRANCH   1   9
ATOM      6  C   UNL     1      88.022  47.086  42.810  0.00  0.00    +0.085 C 
ATOM      7  C   UNL     1      89.541  47.220  42.947  0.00  0.00    -0.022 C 
ATOM      8  C   UNL     1      89.947  47.944  41.700  0.00  0.00    -0.022 C 
ATOM      9  C   UNL     1      88.676  48.676  41.289  0.00  0.00    +0.085 C 
ATOM     10  O   UNL     1      87.565  47.984  41.819  0.00  0.00    -0.368 OA
BRANCH   6  11
ATOM     11  C   UNL     1      87.563  45.656  42.437  0.00  0.00    +0.081 C 
BRANCH  11  12
ATOM     12  O   UNL     1      88.675  44.796  42.431  0.00  0.00    -0.389 OA
ATOM     13  H   UNL     1      88.809  44.435  43.321  0.00  0.00    +0.000 HD
ENDBRANCH  11  12
BRANCH  11  14
ATOM     14  C   UNL     1      86.475  45.090  43.386  0.00  0.00    -0.024 C 
BRANCH  14  15
ATOM     15  C   UNL     1      85.026  45.503  43.052  0.00  0.00    -0.048 C 
BRANCH  15  16
ATOM     16  C   UNL     1      84.053  45.573  44.251  0.00  0.00    -0.027 C 
BRANCH  16  17
ATOM     17  C   UNL     1      82.604  46.028  43.936  0.00  0.00    +0.055 C 
BRANCH  17  18
ATOM     18  O   UNL     1      81.860  46.145  45.123  0.00  0.00    -0.392 OA
ATOM     19  H   UNL     1      82.240  46.846  45.675  0.00  0.00    +0.000 HD
ENDBRANCH  17  18
BRANCH  17  20
ATOM     20  C   UNL     1      82.501  47.352  43.152  0.00  0.00    -0.027 C 
BRANCH  20  21
ATOM     21  C   UNL     1      81.956  48.512  44.006  0.00  0.00    -0.051 C 
BRANCH  21  22
ATOM     22  C   UNL     1      82.706  49.836  43.770  0.00  0.00    -0.053 C 
BRANCH  22  23
ATOM     23  C   UNL     1      83.960  50.044  44.640  0.00  0.00    -0.053 C 
BRANCH  23  25
ATOM     24  C   UNL     1      86.241  49.183  45.291  0.00  0.00    -0.065 C 
ATOM     25  C   UNL     1      85.113  49.100  44.267  0.00  0.00    -0.056 C 
ENDBRANCH  23  25
ENDBRANCH  22  23
ENDBRANCH  21  22
ENDBRANCH  20  21
ENDBRANCH  17  20
ENDBRANCH  16  17
ENDBRANCH  15  16
ENDBRANCH  14  15
ENDBRANCH  11  14
ENDBRANCH   6  11
ENDBRANCH   1   9
BRANCH   4  26
ATOM     26  C   UNL     1      87.268  52.967  42.335  0.00  0.00    +0.081 C 
BRANCH  26  27
ATOM     27  O   UNL     1      88.361  53.808  42.061  0.00  0.00    -0.389 OA
ATOM     28  H   UNL     1      88.038  54.673  41.764  0.00  0.00    +0.000 HD
ENDBRANCH  26  27
BRANCH  26  29
ATOM     29  C   UNL     1      87.362  52.429  43.781  0.00  0.00    -0.024 C 
BRANCH  29  30
ATOM     30  C   UNL     1      86.287  53.057  44.683  0.00  0.00    -0.051 C 
BRANCH  30  31
ATOM     31  C   UNL     1      86.682  53.045  46.175  0.00  0.00    -0.053 C 
BRANCH  31  32
ATOM     32  C   UNL     1      85.608  52.437  47.101  0.00  0.00    -0.053 C 
BRANCH  32  33
ATOM     33  C   UNL     1      84.215  53.081  47.000  0.00  0.00    -0.053 C 
BRANCH  33  34
ATOM     34  C   UNL     1      83.718  53.636  48.348  0.00  0.00    -0.053 C 
BRANCH  34  35
ATOM     35  C   UNL     1      83.890  55.164  48.457  0.00  0.00    -0.053 C 
BRANCH  35  36
ATOM     36  C   UNL     1      84.091  55.871  47.102  0.00  0.00    -0.053 C 
BRANCH  36  37
ATOM     37  C   UNL     1      85.486  56.502  46.924  0.00  0.00    -0.053 C 
BRANCH  37  38
ATOM     38  C   UNL     1      85.781  56.879  45.461  0.00  0.00    -0.053 C 
BRANCH  38  39
ATOM     39  C   UNL     1      84.662  56.444  44.495  0.00  0.00    -0.049 C 
BRANCH  39  40
ATOM     40  C   UNL     1      85.160  56.071  43.088  0.00  0.00    -0.021 C 
BRANCH  40  41
ATOM     41  C   UNL     1      84.112  55.391  42.255  0.00  0.00    +0.036 C 
ATOM     42  C   UNL     1      83.009  54.813  42.716  0.00  0.00    -0.034 C 
ATOM     43  C   UNL     1      82.173  54.282  41.578  0.00  0.00    +0.120 C 
ATOM     44  O   UNL     1      82.930  54.622  40.418  0.00  0.00    -0.454 OA
ATOM     45  C   UNL     1      84.075  55.286  40.814  0.00  0.00    +0.336 C 
ATOM     46  O   UNL     1      84.942  55.730  40.018  0.00  0.00    -0.245 OA
ATOM     47  C   UNL     1      81.993  52.770  41.673  0.00  0.00    -0.024 C 
ENDBRANCH  40  41
ENDBRANCH  39  40
ENDBRANCH  38  39
ENDBRANCH  37  38
ENDBRANCH  36  37
ENDBRANCH  35  36
ENDBRANCH  34  35
ENDBRANCH  33  34
ENDBRANCH  32  33
ENDBRANCH  31  32
ENDBRANCH  30  31
ENDBRANCH  29  30
ENDBRANCH  26  29
ENDBRANCH   4  26
TORSDOF 28
ENDMDL
MODEL 4
REMARK VINA RESULT:    -7.835      1.996      3.827
REMARK INTER + INTRA:         -25.232
REMARK INTER:                 -21.216
REMARK INTRA:                  -4.015
REMARK UNBOUND:                -5.259
REMARK  Name = 
REMARK  30 active torsions:
REMARK  status: ('A' for Active; 'I' for Inactive)
REMARK    1  A    between atoms: C_1  and  C_2
REMARK    2  A    between atoms: C_2  and  C_3
REMARK    3  A    between atoms: C_3  and  C_4
REMARK    4  A    between atoms: C_4  and  C_5
REMARK    5  A    between atoms: C_5  and  C_6
REMARK    6  A    between atoms: C_6  and  C_7
REMARK    7  A    between atoms: C_7  and  C_8
REMARK    8  A    between atoms: C_7  and  O_44
REMARK    9  A    between atoms: C_8  and  C_9
REMARK   10  A    between atoms: C_9  and  C_10
REMARK   11  A    between atoms: C_10  and  C_11
REMARK   12  A    between atoms: C_11  and  C_12
REMARK   13  A    between atoms: C_11  and  O_43
REMARK   14  A    between atoms: C_15  and  C_17
REMARK   15  A    between atoms: C_20  and  C_22
REMARK   16  A    between atoms: C_22  and  C_23
REMARK   17  A    between atoms: C_22  and  O_42
REMARK   18  A    between atoms: C_23  and  C_24
REMARK   19  A    between atoms: C_24  and  C_25
REMARK   20  A    between atoms: C_25  and  C_26
REMARK   21  A    between atoms: C_26  and  C_27
REMARK   22  A    between atoms: C_27  and  C_28
REMARK   23  A    between atoms: C_28  and  C_29
REMARK   24  A    between atoms: C_29  and  C_30
REMARK   25  A    between atoms: C_30  and  C_31
REMARK   26  A    between atoms: C_31  and  C_32
REMARK   27  A    between atoms: C_32  and  C_33
REMARK   28  A    between atoms: C_33  and  C_34
REMARK   29  A    between atoms: C_34  and  C_35
REMARK   30  A    between atoms: C_37  and  C_41
REMARK                            x       y       z     vdW  Elec       q    Type
REMARK                         _______ _______ _______ _____ _____    ______ ____
ROOT
ATOM      1  C   UNL     1      86.360  53.031  44.688  0.00  0.00    +0.085 C 
ATOM      2  C   UNL     1      84.829  53.004  44.666  0.00  0.00    -0.022 C 
ATOM      3  C   UNL     1      84.466  52.371  45.976  0.00  0.00    -0.022 C 
ATOM      4  C   UNL     1      85.691  52.642  46.839  0.00  0.00    +0.085 C 
ATOM      5  O   UNL     1      86.811  52.698  45.985  0.00  0.00    -0.368 OA
ENDROOT
BRANCH   1   9
ATOM      6  C   UNL     1      86.988  52.749  41.475  0.00  0.00    +0.085 C 
ATOM      7  C   UNL     1      85.681  51.976  41.673  0.00  0.00    -0.022 C 
ATOM      8  C   UNL     1      85.904  51.226  42.951  0.00  0.00    -0.022 C 
ATOM      9  C   UNL     1      86.970  52.049  43.661  0.00  0.00    +0.085 C 
ATOM     10  O   UNL     1      87.704  52.768  42.693  0.00  0.00    -0.368 OA
BRANCH   6  11
ATOM     11  C   UNL     1      87.896  52.149  40.373  0.00  0.00    +0.081 C 
BRANCH  11  12
ATOM     12  O   UNL     1      88.086  53.103  39.357  0.00  0.00    -0.389 OA
ATOM     13  H   UNL     1      87.446  52.950  38.646  0.00  0.00    +0.000 HD
ENDBRANCH  11  12
BRANCH  11  14
ATOM     14  C   UNL     1      89.274  51.672  40.900  0.00  0.00    -0.024 C 
BRANCH  14  15
ATOM     15  C   UNL     1      89.453  50.141  40.990  0.00  0.00    -0.048 C 
BRANCH  15  16
ATOM     16  C   UNL     1      89.586  49.562  42.416  0.00  0.00    -0.027 C 
BRANCH  16  17
ATOM     17  C   UNL     1      90.635  48.435  42.607  0.00  0.00    +0.055 C 
BRANCH  17  18
ATOM     18  O   UNL     1      90.892  48.234  43.974  0.00  0.00    -0.392 OA
ATOM     19  H   UNL     1      90.295  48.788  44.501  0.00  0.00    +0.000 HD
ENDBRANCH  17  18
BRANCH  17  20
ATOM     20  C   UNL     1      90.251  47.084  41.970  0.00  0.00    -0.027 C 
BRANCH  20  21
ATOM     21  C   UNL     1      89.382  46.212  42.894  0.00  0.00    -0.051 C 
BRANCH  21  22
ATOM     22  C   UNL     1      88.068  45.756  42.231  0.00  0.00    -0.053 C 
BRANCH  22  23
ATOM     23  C   UNL     1      87.539  44.387  42.696  0.00  0.00    -0.053 C 
BRANCH  23  25
ATOM     24  C   UNL     1      87.930  42.693  44.524  0.00  0.00    -0.065 C 
ATOM     25  C   UNL     1      88.588  43.565  43.459  0.00  0.00    -0.056 C 
ENDBRANCH  23  25
ENDBRANCH  22  23
ENDBRANCH  21  22
ENDBRANCH  20  21
ENDBRANCH  17  20
ENDBRANCH  16  17
ENDBRANCH  15  16
ENDBRANCH  14  15
ENDBRANCH  11  14
ENDBRANCH   6  11
ENDBRANCH   1   9
BRANCH   4  26
ATOM     26  C   UNL     1      85.574  53.965  47.646  0.00  0.00    +0.081 C 
BRANCH  26  27
ATOM     27  O   UNL     1      85.997  53.776  48.974  0.00  0.00    -0.389 OA
ATOM     28  H   UNL     1      85.449  54.313  49.567  0.00  0.00    +0.000 HD
ENDBRANCH  26  27
BRANCH  26  29
ATOM     29  C   UNL     1      84.135  54.528  47.622  0.00  0.00    -0.024 C 
BRANCH  29  30
ATOM     30  C   UNL     1      84.129  56.034  47.310  0.00  0.00    -0.051 C 
BRANCH  30  31
ATOM     31  C   UNL     1      85.405  56.494  46.574  0.00  0.00    -0.053 C 
BRANCH  31  32
ATOM     32  C   UNL     1      85.258  57.850  45.855  0.00  0.00    -0.053 C 
BRANCH  32  33
ATOM     33  C   UNL     1      85.634  57.845  44.363  0.00  0.00    -0.053 C 
BRANCH  33  34
ATOM     34  C   UNL     1      85.400  56.477  43.696  0.00  0.00    -0.053 C 
BRANCH  34  35
ATOM     35  C   UNL     1      83.997  56.359  43.067  0.00  0.00    -0.053 C 
BRANCH  35  36
ATOM     36  C   UNL     1      83.877  55.250  42.003  0.00  0.00    -0.053 C 
BRANCH  36  37
ATOM     37  C   UNL     1      82.452  54.685  41.842  0.00  0.00    -0.053 C 
BRANCH  37  38
ATOM     38  C   UNL     1      82.448  53.193  41.465  0.00  0.00    -0.053 C 
BRANCH  38  39
ATOM     39  C   UNL     1      81.891  52.294  42.587  0.00  0.00    -0.049 C 
BRANCH  39  40
ATOM     40  C   UNL     1      81.723  50.820  42.183  0.00  0.00    -0.021 C 
BRANCH  40  41
ATOM     41  C   UNL     1      81.029  49.999  43.232  0.00  0.00    +0.036 C 
ATOM     42  C   UNL     1      79.721  49.780  43.307  0.00  0.00    -0.034 C 
ATOM     43  C   UNL     1      79.401  48.868  44.464  0.00  0.00    +0.120 C 
ATOM     44  O   UNL     1      80.677  48.597  45.042  0.00  0.00    -0.454 OA
ATOM     45  C   UNL     1      81.644  49.259  44.310  0.00  0.00    +0.336 C 
ATOM     46  O   UNL     1      82.876  49.205  44.561  0.00  0.00    -0.245 OA
ATOM     47  C   UNL     1      78.490  49.550  45.480  0.00  0.00    -0.024 C 
ENDBRANCH  40  41
ENDBRANCH  39  40
ENDBRANCH  38  39
ENDBRANCH  37  38
ENDBRANCH  36  37
ENDBRANCH  35  36
ENDBRANCH  34  35
ENDBRANCH  33  34
ENDBRANCH  32  33
ENDBRANCH  31  32
ENDBRANCH  30  31
ENDBRANCH  29  30
ENDBRANCH  26  29
ENDBRANCH   4  26
TORSDOF 28
ENDMDL
MODEL 5
REMARK VINA RESULT:    -7.799      2.005      7.009
REMARK INTER + INTRA:         -25.141
REMARK INTER:                 -20.470
REMARK INTRA:                  -4.671
REMARK UNBOUND:                -5.259
REMARK  Name = 
REMARK  30 active torsions:
REMARK  status: ('A' for Active; 'I' for Inactive)
REMARK    1  A    between atoms: C_1  and  C_2
REMARK    2  A    between atoms: C_2  and  C_3
REMARK    3  A    between atoms: C_3  and  C_4
REMARK    4  A    between atoms: C_4  and  C_5
REMARK    5  A    between atoms: C_5  and  C_6
REMARK    6  A    between atoms: C_6  and  C_7
REMARK    7  A    between atoms: C_7  and  C_8
REMARK    8  A    between atoms: C_7  and  O_44
REMARK    9  A    between atoms: C_8  and  C_9
REMARK   10  A    between atoms: C_9  and  C_10
REMARK   11  A    between atoms: C_10  and  C_11
REMARK   12  A    between atoms: C_11  and  C_12
REMARK   13  A    between atoms: C_11  and  O_43
REMARK   14  A    between atoms: C_15  and  C_17
REMARK   15  A    between atoms: C_20  and  C_22
REMARK   16  A    between atoms: C_22  and  C_23
REMARK   17  A    between atoms: C_22  and  O_42
REMARK   18  A    between atoms: C_23  and  C_24
REMARK   19  A    between atoms: C_24  and  C_25
REMARK   20  A    between atoms: C_25  and  C_26
REMARK   21  A    between atoms: C_26  and  C_27
REMARK   22  A    between atoms: C_27  and  C_28
REMARK   23  A    between atoms: C_28  and  C_29
REMARK   24  A    between atoms: C_29  and  C_30
REMARK   25  A    between atoms: C_30  and  C_31
REMARK   26  A    between atoms: C_31  and  C_32
REMARK   27  A    between atoms: C_32  and  C_33
REMARK   28  A    between atoms: C_33  and  C_34
REMARK   29  A    between atoms: C_34  and  C_35
REMARK   30  A    between atoms: C_37  and  C_41
REMARK                            x       y       z     vdW  Elec       q    Type
REMARK                         _______ _______ _______ _____ _____    ______ ____
ROOT
ATOM      1  C   UNL     1      88.037  49.330  41.789  0.00  0.00    +0.085 C 
ATOM      2  C   UNL     1      89.053  50.095  42.642  0.00  0.00    -0.022 C 
ATOM      3  C   UNL     1      89.488  51.220  41.753  0.00  0.00    -0.022 C 
ATOM      4  C   UNL     1      88.322  51.364  40.784  0.00  0.00    +0.085 C 
ATOM      5  O   UNL     1      87.728  50.093  40.641  0.00  0.00    -0.368 OA
ENDROOT
BRANCH   1   9
ATOM      6  C   UNL     1      88.285  46.235  42.866  0.00  0.00    +0.085 C 
ATOM      7  C   UNL     1      89.657  46.848  43.159  0.00  0.00    -0.022 C 
ATOM      8  C   UNL     1      89.952  47.658  41.933  0.00  0.00    -0.022 C 
ATOM      9  C   UNL     1      88.571  47.944  41.360  0.00  0.00    +0.085 C 
ATOM     10  O   UNL     1      87.683  46.936  41.796  0.00  0.00    -0.368 OA
BRANCH   6  11
ATOM     11  C   UNL     1      88.348  44.731  42.504  0.00  0.00    +0.081 C 
BRANCH  11  12
ATOM     12  O   UNL     1      88.959  44.025  43.554  0.00  0.00    -0.389 OA
ATOM     13  H   UNL     1      89.025  43.087  43.318  0.00  0.00    +0.000 HD
ENDBRANCH  11  12
BRANCH  11  14
ATOM     14  C   UNL     1      86.959  44.111  42.201  0.00  0.00    -0.024 C 
BRANCH  14  15
ATOM     15  C   UNL     1      85.933  44.195  43.352  0.00  0.00    -0.048 C 
BRANCH  15  16
ATOM     16  C   UNL     1      84.647  44.996  43.049  0.00  0.00    -0.027 C 
BRANCH  16  17
ATOM     17  C   UNL     1      84.135  45.931  44.176  0.00  0.00    +0.055 C 
BRANCH  17  18
ATOM     18  O   UNL     1      85.199  46.318  45.009  0.00  0.00    -0.392 OA
ATOM     19  H   UNL     1      84.994  47.173  45.419  0.00  0.00    +0.000 HD
ENDBRANCH  17  18
BRANCH  17  20
ATOM     20  C   UNL     1      83.406  47.197  43.680  0.00  0.00    -0.027 C 
BRANCH  20  21
ATOM     21  C   UNL     1      81.890  46.986  43.511  0.00  0.00    -0.051 C 
BRANCH  21  22
ATOM     22  C   UNL     1      81.069  48.255  43.805  0.00  0.00    -0.053 C 
BRANCH  22  23
ATOM     23  C   UNL     1      81.820  49.584  43.602  0.00  0.00    -0.053 C 
BRANCH  23  25
ATOM     24  C   UNL     1      81.897  51.573  42.052  0.00  0.00    -0.065 C 
ATOM     25  C   UNL     1      80.993  50.631  42.841  0.00  0.00    -0.056 C 
ENDBRANCH  23  25
ENDBRANCH  22  23
ENDBRANCH  21  22
ENDBRANCH  20  21
ENDBRANCH  17  20
ENDBRANCH  16  17
ENDBRANCH  15  16
ENDBRANCH  14  15
ENDBRANCH  11  14
ENDBRANCH   6  11
ENDBRANCH   1   9
BRANCH   4  26
ATOM     26  C   UNL     1      87.263  52.391  41.271  0.00  0.00    +0.081 C 
BRANCH  26  27
ATOM     27  O   UNL     1      86.831  53.202  40.206  0.00  0.00    -0.389 OA
ATOM     28  H   UNL     1      86.178  53.841  40.530  0.00  0.00    +0.000 HD
ENDBRANCH  26  27
BRANCH  26  29
ATOM     29  C   UNL     1      87.800  53.270  42.422  0.00  0.00    -0.024 C 
BRANCH  29  30
ATOM     30  C   UNL     1      86.660  53.765  43.327  0.00  0.00    -0.051 C 
BRANCH  30  31
ATOM     31  C   UNL     1      85.385  52.905  43.202  0.00  0.00    -0.053 C 
BRANCH  31  32
ATOM     32  C   UNL     1      84.552  52.830  44.498  0.00  0.00    -0.053 C 
BRANCH  32  33
ATOM     33  C   UNL     1      84.421  51.425  45.112  0.00  0.00    -0.053 C 
BRANCH  33  34
ATOM     34  C   UNL     1      85.483  50.443  44.582  0.00  0.00    -0.053 C 
BRANCH  34  35
ATOM     35  C   UNL     1      86.404  49.912  45.699  0.00  0.00    -0.053 C 
BRANCH  35  36
ATOM     36  C   UNL     1      87.020  51.016  46.582  0.00  0.00    -0.053 C 
BRANCH  36  37
ATOM     37  C   UNL     1      87.079  50.661  48.081  0.00  0.00    -0.053 C 
BRANCH  37  38
ATOM     38  C   UNL     1      86.238  51.615  48.948  0.00  0.00    -0.053 C 
BRANCH  38  39
ATOM     39  C   UNL     1      85.502  52.684  48.117  0.00  0.00    -0.049 C 
BRANCH  39  40
ATOM     40  C   UNL     1      85.843  54.130  48.514  0.00  0.00    -0.021 C 
BRANCH  40  41
ATOM     41  C   UNL     1      85.233  55.151  47.598  0.00  0.00    +0.036 C 
ATOM     42  C   UNL     1      85.853  55.767  46.598  0.00  0.00    -0.034 C 
ATOM     43  C   UNL     1      84.904  56.685  45.871  0.00  0.00    +0.120 C 
ATOM     44  O   UNL     1      83.673  56.524  46.574  0.00  0.00    -0.454 OA
ATOM     45  C   UNL     1      83.862  55.610  47.592  0.00  0.00    +0.336 C 
ATOM     46  O   UNL     1      82.956  55.241  48.384  0.00  0.00    -0.245 OA
ATOM     47  C   UNL     1      85.368  58.137  45.936  0.00  0.00    -0.024 C 
ENDBRANCH  40  41
ENDBRANCH  39  40
ENDBRANCH  38  39
ENDBRANCH  37  38
ENDBRANCH  36  37
ENDBRANCH  35  36
ENDBRANCH  34  35
ENDBRANCH  33  34
ENDBRANCH  32  33
ENDBRANCH  31  32
ENDBRANCH  30  31
ENDBRANCH  29  30
ENDBRANCH  26  29
ENDBRANCH   4  26
TORSDOF 28
ENDMDL
MODEL 6
REMARK VINA RESULT:    -7.634      2.039      7.762
REMARK INTER + INTRA:         -24.719
REMARK INTER:                 -20.370
REMARK INTRA:                  -4.349
REMARK UNBOUND:                -5.259
REMARK  Name = 
REMARK  30 active torsions:
REMARK  status: ('A' for Active; 'I' for Inactive)
REMARK    1  A    between atoms: C_1  and  C_2
REMARK    2  A    between atoms: C_2  and  C_3
REMARK    3  A    between atoms: C_3  and  C_4
REMARK    4  A    between atoms: C_4  and  C_5
REMARK    5  A    between atoms: C_5  and  C_6
REMARK    6  A    between atoms: C_6  and  C_7
REMARK    7  A    between atoms: C_7  and  C_8
REMARK    8  A    between atoms: C_7  and  O_44
REMARK    9  A    between atoms: C_8  and  C_9
REMARK   10  A    between atoms: C_9  and  C_10
REMARK   11  A    between atoms: C_10  and  C_11
REMARK   12  A    between atoms: C_11  and  C_12
REMARK   13  A    between atoms: C_11  and  O_43
REMARK   14  A    between atoms: C_15  and  C_17
REMARK   15  A    between atoms: C_20  and  C_22
REMARK   16  A    between atoms: C_22  and  C_23
REMARK   17  A    between atoms: C_22  and  O_42
REMARK   18  A    between atoms: C_23  and  C_24
REMARK   19  A    between atoms: C_24  and  C_25
REMARK   20  A    between atoms: C_25  and  C_26
REMARK   21  A    between atoms: C_26  and  C_27
REMARK   22  A    between atoms: C_27  and  C_28
REMARK   23  A    between atoms: C_28  and  C_29
REMARK   24  A    between atoms: C_29  and  C_30
REMARK   25  A    between atoms: C_30  and  C_31
REMARK   26  A    between atoms: C_31  and  C_32
REMARK   27  A    between atoms: C_32  and  C_33
REMARK   28  A    between atoms: C_33  and  C_34
REMARK   29  A    between atoms: C_34  and  C_35
REMARK   30  A    between atoms: C_37  and  C_41
REMARK                            x       y       z     vdW  Elec       q    Type
REMARK                         _______ _______ _______ _____ _____    ______ ____
ROOT
ATOM      1  C   UNL     1      86.556  51.685  44.286  0.00  0.00    +0.085 C 
ATOM      2  C   UNL     1      86.033  50.889  43.087  0.00  0.00    -0.022 C 
ATOM      3  C   UNL     1      85.977  51.902  41.984  0.00  0.00    -0.022 C 
ATOM      4  C   UNL     1      86.982  52.954  42.432  0.00  0.00    +0.085 C 
ATOM      5  O   UNL     1      87.004  52.950  43.842  0.00  0.00    -0.368 OA
ENDROOT
BRANCH   1   9
ATOM      6  C   UNL     1      85.553  53.836  46.558  0.00  0.00    +0.085 C 
ATOM      7  C   UNL     1      86.386  52.819  47.343  0.00  0.00    -0.022 C 
ATOM      8  C   UNL     1      85.977  51.501  46.759  0.00  0.00    -0.022 C 
ATOM      9  C   UNL     1      85.471  51.873  45.371  0.00  0.00    +0.085 C 
ATOM     10  O   UNL     1      85.047  53.220  45.392  0.00  0.00    -0.368 OA
BRANCH   6  11
ATOM     11  C   UNL     1      84.369  54.417  47.369  0.00  0.00    +0.081 C 
BRANCH  11  12
ATOM     12  O   UNL     1      84.540  54.107  48.730  0.00  0.00    -0.389 OA
ATOM     13  H   UNL     1      83.944  54.655  49.263  0.00  0.00    +0.000 HD
ENDBRANCH  11  12
BRANCH  11  14
ATOM     14  C   UNL     1      84.202  55.950  47.204  0.00  0.00    -0.024 C 
BRANCH  14  15
ATOM     15  C   UNL     1      85.424  56.689  46.617  0.00  0.00    -0.048 C 
BRANCH  15  16
ATOM     16  C   UNL     1      85.111  57.958  45.793  0.00  0.00    -0.027 C 
BRANCH  16  17
ATOM     17  C   UNL     1      85.126  57.799  44.250  0.00  0.00    +0.055 C 
BRANCH  17  18
ATOM     18  O   UNL     1      86.088  58.650  43.680  0.00  0.00    -0.392 OA
ATOM     19  H   UNL     1      85.677  59.501  43.461  0.00  0.00    +0.000 HD
ENDBRANCH  17  18
BRANCH  17  20
ATOM     20  C   UNL     1      85.378  56.360  43.754  0.00  0.00    -0.027 C 
BRANCH  20  21
ATOM     21  C   UNL     1      84.140  55.730  43.091  0.00  0.00    -0.051 C 
BRANCH  21  22
ATOM     22  C   UNL     1      84.238  55.684  41.554  0.00  0.00    -0.053 C 
BRANCH  22  23
ATOM     23  C   UNL     1      83.481  54.523  40.883  0.00  0.00    -0.053 C 
BRANCH  23  25
ATOM     24  C   UNL     1      81.832  52.816  41.740  0.00  0.00    -0.065 C 
ATOM     25  C   UNL     1      82.081  54.298  41.473  0.00  0.00    -0.056 C 
ENDBRANCH  23  25
ENDBRANCH  22  23
ENDBRANCH  21  22
ENDBRANCH  20  21
ENDBRANCH  17  20
ENDBRANCH  16  17
ENDBRANCH  15  16
ENDBRANCH  14  15
ENDBRANCH  11  14
ENDBRANCH   6  11
ENDBRANCH   1   9
BRANCH   4  26
ATOM     26  C   UNL     1      88.410  52.692  41.880  0.00  0.00    +0.081 C 
BRANCH  26  27
ATOM     27  O   UNL     1      89.102  53.902  41.694  0.00  0.00    -0.389 OA
ATOM     28  H   UNL     1      89.697  53.821  40.933  0.00  0.00    +0.000 HD
ENDBRANCH  26  27
BRANCH  26  29
ATOM     29  C   UNL     1      88.378  51.892  40.558  0.00  0.00    -0.024 C 
BRANCH  29  30
ATOM     30  C   UNL     1      89.404  50.747  40.572  0.00  0.00    -0.051 C 
BRANCH  30  31
ATOM     31  C   UNL     1      89.585  50.127  41.974  0.00  0.00    -0.053 C 
BRANCH  31  32
ATOM     32  C   UNL     1      90.541  48.917  42.004  0.00  0.00    -0.053 C 
BRANCH  32  33
ATOM     33  C   UNL     1      89.971  47.648  42.659  0.00  0.00    -0.053 C 
BRANCH  33  34
ATOM     34  C   UNL     1      88.849  47.001  41.826  0.00  0.00    -0.053 C 
BRANCH  34  35
ATOM     35  C   UNL     1      87.914  46.120  42.679  0.00  0.00    -0.053 C 
BRANCH  35  36
ATOM     36  C   UNL     1      88.174  44.607  42.536  0.00  0.00    -0.053 C 
BRANCH  36  37
ATOM     37  C   UNL     1      86.988  43.721  42.966  0.00  0.00    -0.053 C 
BRANCH  37  38
ATOM     38  C   UNL     1      86.158  44.355  44.097  0.00  0.00    -0.053 C 
BRANCH  38  39
ATOM     39  C   UNL     1      84.662  44.472  43.746  0.00  0.00    -0.049 C 
BRANCH  39  40
ATOM     40  C   UNL     1      84.344  45.571  42.719  0.00  0.00    -0.021 C 
BRANCH  40  41
ATOM     41  C   UNL     1      83.653  46.759  43.324  0.00  0.00    +0.036 C 
ATOM     42  C   UNL     1      82.370  47.069  43.181  0.00  0.00    -0.034 C 
ATOM     43  C   UNL     1      82.029  48.303  43.976  0.00  0.00    +0.120 C 
ATOM     44  O   UNL     1      83.268  48.663  44.586  0.00  0.00    -0.454 OA
ATOM     45  C   UNL     1      84.230  47.746  44.209  0.00  0.00    +0.336 C 
ATOM     46  O   UNL     1      85.427  47.783  44.597  0.00  0.00    -0.245 OA
ATOM     47  C   UNL     1      81.531  49.430  43.077  0.00  0.00    -0.024 C 
ENDBRANCH  40  41
ENDBRANCH  39  40
ENDBRANCH  38  39
ENDBRANCH  37  38
ENDBRANCH  36  37
ENDBRANCH  35  36
ENDBRANCH  34  35
ENDBRANCH  33  34
ENDBRANCH  32  33
ENDBRANCH  31  32
ENDBRANCH  30  31
ENDBRANCH  29  30
ENDBRANCH  26  29
ENDBRANCH   4  26
TORSDOF 28
ENDMDL
MODEL 7
REMARK VINA RESULT:    -7.598      2.437      5.319
REMARK INTER + INTRA:         -24.628
REMARK INTER:                 -19.753
REMARK INTRA:                  -4.876
REMARK UNBOUND:                -5.259
REMARK  Name = 
REMARK  30 active torsions:
REMARK  status: ('A' for Active; 'I' for Inactive)
REMARK    1  A    between atoms: C_1  and  C_2
REMARK    2  A    between atoms: C_2  and  C_3
REMARK    3  A    between atoms: C_3  and  C_4
REMARK    4  A    between atoms: C_4  and  C_5
REMARK    5  A    between atoms: C_5  and  C_6
REMARK    6  A    between atoms: C_6  and  C_7
REMARK    7  A    between atoms: C_7  and  C_8
REMARK    8  A    between atoms: C_7  and  O_44
REMARK    9  A    between atoms: C_8  and  C_9
REMARK   10  A    between atoms: C_9  and  C_10
REMARK   11  A    between atoms: C_10  and  C_11
REMARK   12  A    between atoms: C_11  and  C_12
REMARK   13  A    between atoms: C_11  and  O_43
REMARK   14  A    between atoms: C_15  and  C_17
REMARK   15  A    between atoms: C_20  and  C_22
REMARK   16  A    between atoms: C_22  and  C_23
REMARK   17  A    between atoms: C_22  and  O_42
REMARK   18  A    between atoms: C_23  and  C_24
REMARK   19  A    between atoms: C_24  and  C_25
REMARK   20  A    between atoms: C_25  and  C_26
REMARK   21  A    between atoms: C_26  and  C_27
REMARK   22  A    between atoms: C_27  and  C_28
REMARK   23  A    between atoms: C_28  and  C_29
REMARK   24  A    between atoms: C_29  and  C_30
REMARK   25  A    between atoms: C_30  and  C_31
REMARK   26  A    between atoms: C_31  and  C_32
REMARK   27  A    between atoms: C_32  and  C_33
REMARK   28  A    between atoms: C_33  and  C_34
REMARK   29  A    between atoms: C_34  and  C_35
REMARK   30  A    between atoms: C_37  and  C_41
REMARK                            x       y       z     vdW  Elec       q    Type
REMARK                         _______ _______ _______ _____ _____    ______ ____
ROOT
ATOM      1  C   UNL     1      86.825  52.926  46.360  0.00  0.00    +0.085 C 
ATOM      2  C   UNL     1      85.765  53.402  45.363  0.00  0.00    -0.022 C 
ATOM      3  C   UNL     1      84.471  53.181  46.086  0.00  0.00    -0.022 C 
ATOM      4  C   UNL     1      84.890  53.188  47.550  0.00  0.00    +0.085 C 
ATOM      5  O   UNL     1      86.215  52.710  47.616  0.00  0.00    -0.368 OA
ENDROOT
BRANCH   1   9
ATOM      6  C   UNL     1      86.197  49.747  45.811  0.00  0.00    +0.085 C 
ATOM      7  C   UNL     1      86.835  49.771  47.202  0.00  0.00    -0.022 C 
ATOM      8  C   UNL     1      87.956  50.755  47.061  0.00  0.00    -0.022 C 
ATOM      9  C   UNL     1      87.515  51.625  45.891  0.00  0.00    +0.085 C 
ATOM     10  O   UNL     1      86.629  50.879  45.083  0.00  0.00    -0.368 OA
BRANCH   6  11
ATOM     11  C   UNL     1      86.539  48.474  45.000  0.00  0.00    +0.081 C 
BRANCH  11  12
ATOM     12  O   UNL     1      85.444  47.592  45.034  0.00  0.00    -0.389 OA
ATOM     13  H   UNL     1      84.621  48.101  45.091  0.00  0.00    +0.000 HD
ENDBRANCH  11  12
BRANCH  11  14
ATOM     14  C   UNL     1      86.922  48.765  43.525  0.00  0.00    -0.024 C 
BRANCH  14  15
ATOM     15  C   UNL     1      87.512  47.569  42.747  0.00  0.00    -0.048 C 
BRANCH  15  16
ATOM     16  C   UNL     1      89.044  47.390  42.850  0.00  0.00    -0.027 C 
BRANCH  16  17
ATOM     17  C   UNL     1      89.847  48.613  43.365  0.00  0.00    +0.055 C 
BRANCH  17  18
ATOM     18  O   UNL     1      90.803  48.207  44.311  0.00  0.00    -0.392 OA
ATOM     19  H   UNL     1      90.768  47.243  44.413  0.00  0.00    +0.000 HD
ENDBRANCH  17  18
BRANCH  17  20
ATOM     20  C   UNL     1      90.553  49.430  42.263  0.00  0.00    -0.027 C 
BRANCH  20  21
ATOM     21  C   UNL     1      89.570  50.044  41.251  0.00  0.00    -0.051 C 
BRANCH  21  22
ATOM     22  C   UNL     1      89.496  51.580  41.338  0.00  0.00    -0.053 C 
BRANCH  22  23
ATOM     23  C   UNL     1      88.477  52.131  42.353  0.00  0.00    -0.053 C 
BRANCH  23  25
ATOM     24  C   UNL     1      87.129  52.654  40.286  0.00  0.00    -0.065 C 
ATOM     25  C   UNL     1      87.067  52.286  41.765  0.00  0.00    -0.056 C 
ENDBRANCH  23  25
ENDBRANCH  22  23
ENDBRANCH  21  22
ENDBRANCH  20  21
ENDBRANCH  17  20
ENDBRANCH  16  17
ENDBRANCH  15  16
ENDBRANCH  14  15
ENDBRANCH  11  14
ENDBRANCH   6  11
ENDBRANCH   1   9
BRANCH   4  26
ATOM     26  C   UNL     1      84.805  54.601  48.191  0.00  0.00    +0.081 C 
BRANCH  26  27
ATOM     27  O   UNL     1      84.072  54.559  49.390  0.00  0.00    -0.389 OA
ATOM     28  H   UNL     1      83.149  54.800  49.214  0.00  0.00    +0.000 HD
ENDBRANCH  26  27
BRANCH  26  29
ATOM     29  C   UNL     1      84.182  55.634  47.225  0.00  0.00    -0.024 C 
BRANCH  29  30
ATOM     30  C   UNL     1      85.204  56.707  46.818  0.00  0.00    -0.051 C 
BRANCH  30  31
ATOM     31  C   UNL     1      84.648  57.690  45.766  0.00  0.00    -0.053 C 
BRANCH  31  32
ATOM     32  C   UNL     1      85.047  57.347  44.316  0.00  0.00    -0.053 C 
BRANCH  32  33
ATOM     33  C   UNL     1      84.071  56.422  43.570  0.00  0.00    -0.053 C 
BRANCH  33  34
ATOM     34  C   UNL     1      84.762  55.586  42.476  0.00  0.00    -0.053 C 
BRANCH  34  35
ATOM     35  C   UNL     1      83.820  55.258  41.301  0.00  0.00    -0.053 C 
BRANCH  35  36
ATOM     36  C   UNL     1      83.702  53.752  40.992  0.00  0.00    -0.053 C 
BRANCH  36  37
ATOM     37  C   UNL     1      83.182  52.908  42.172  0.00  0.00    -0.053 C 
BRANCH  37  38
ATOM     38  C   UNL     1      81.676  52.610  42.067  0.00  0.00    -0.053 C 
BRANCH  38  39
ATOM     39  C   UNL     1      81.369  51.100  42.007  0.00  0.00    -0.049 C 
BRANCH  39  40
ATOM     40  C   UNL     1      80.561  50.578  43.206  0.00  0.00    -0.021 C 
BRANCH  40  41
ATOM     41  C   UNL     1      80.992  49.211  43.654  0.00  0.00    +0.036 C 
ATOM     42  C   UNL     1      80.229  48.124  43.676  0.00  0.00    -0.034 C 
ATOM     43  C   UNL     1      81.022  46.928  44.139  0.00  0.00    +0.120 C 
ATOM     44  O   UNL     1      82.324  47.460  44.380  0.00  0.00    -0.454 OA
ATOM     45  C   UNL     1      82.312  48.810  44.086  0.00  0.00    +0.336 C 
ATOM     46  O   UNL     1      83.317  49.561  44.184  0.00  0.00    -0.245 OA
ATOM     47  C   UNL     1      80.444  46.333  45.418  0.00  0.00    -0.024 C 
ENDBRANCH  40  41
ENDBRANCH  39  40
ENDBRANCH  38  39
ENDBRANCH  37  38
ENDBRANCH  36  37
ENDBRANCH  35  36
ENDBRANCH  34  35
ENDBRANCH  33  34
ENDBRANCH  32  33
ENDBRANCH  31  32
ENDBRANCH  30  31
ENDBRANCH  29  30
ENDBRANCH  26  29
ENDBRANCH   4  26
TORSDOF 28
ENDMDL
MODEL 8
REMARK VINA RESULT:    -7.586      2.576      6.889
REMARK INTER + INTRA:         -24.596
REMARK INTER:                 -19.795
REMARK INTRA:                  -4.802
REMARK UNBOUND:                -5.259
REMARK  Name = 
REMARK  30 active torsions:
REMARK  status: ('A' for Active; 'I' for Inactive)
REMARK    1  A    between atoms: C_1  and  C_2
REMARK    2  A    between atoms: C_2  and  C_3
REMARK    3  A    between atoms: C_3  and  C_4
REMARK    4  A    between atoms: C_4  and  C_5
REMARK    5  A    between atoms: C_5  and  C_6
REMARK    6  A    between atoms: C_6  and  C_7
REMARK    7  A    between atoms: C_7  and  C_8
REMARK    8  A    between atoms: C_7  and  O_44
REMARK    9  A    between atoms: C_8  and  C_9
REMARK   10  A    between atoms: C_9  and  C_10
REMARK   11  A    between atoms: C_10  and  C_11
REMARK   12  A    between atoms: C_11  and  C_12
REMARK   13  A    between atoms: C_11  and  O_43
REMARK   14  A    between atoms: C_15  and  C_17
REMARK   15  A    between atoms: C_20  and  C_22
REMARK   16  A    between atoms: C_22  and  C_23
REMARK   17  A    between atoms: C_22  and  O_42
REMARK   18  A    between atoms: C_23  and  C_24
REMARK   19  A    between atoms: C_24  and  C_25
REMARK   20  A    between atoms: C_25  and  C_26
REMARK   21  A    between atoms: C_26  and  C_27
REMARK   22  A    between atoms: C_27  and  C_28
REMARK   23  A    between atoms: C_28  and  C_29
REMARK   24  A    between atoms: C_29  and  C_30
REMARK   25  A    between atoms: C_30  and  C_31
REMARK   26  A    between atoms: C_31  and  C_32
REMARK   27  A    between atoms: C_32  and  C_33
REMARK   28  A    between atoms: C_33  and  C_34
REMARK   29  A    between atoms: C_34  and  C_35
REMARK   30  A    between atoms: C_37  and  C_41
REMARK                            x       y       z     vdW  Elec       q    Type
REMARK                         _______ _______ _______ _____ _____    ______ ____
ROOT
ATOM      1  C   UNL     1      83.759  47.572  43.547  0.00  0.00    +0.085 C 
ATOM      2  C   UNL     1      82.301  47.266  43.197  0.00  0.00    -0.022 C 
ATOM      3  C   UNL     1      81.520  48.144  44.128  0.00  0.00    -0.022 C 
ATOM      4  C   UNL     1      82.509  49.250  44.468  0.00  0.00    +0.085 C 
ATOM      5  O   UNL     1      83.806  48.700  44.397  0.00  0.00    -0.368 OA
ENDROOT
BRANCH   1   9
ATOM      6  C   UNL     1      86.135  45.355  43.061  0.00  0.00    +0.085 C 
ATOM      7  C   UNL     1      84.845  44.609  42.709  0.00  0.00    -0.022 C 
ATOM      8  C   UNL     1      83.885  45.039  43.776  0.00  0.00    -0.022 C 
ATOM      9  C   UNL     1      84.451  46.375  44.240  0.00  0.00    +0.085 C 
ATOM     10  O   UNL     1      85.835  46.400  43.963  0.00  0.00    -0.368 OA
BRANCH   6  11
ATOM     11  C   UNL     1      87.218  44.446  43.692  0.00  0.00    +0.081 C 
BRANCH  11  12
ATOM     12  O   UNL     1      86.856  43.099  43.515  0.00  0.00    -0.389 OA
ATOM     13  H   UNL     1      85.911  43.043  43.309  0.00  0.00    +0.000 HD
ENDBRANCH  11  12
BRANCH  11  14
ATOM     14  C   UNL     1      88.636  44.681  43.111  0.00  0.00    -0.024 C 
BRANCH  14  15
ATOM     15  C   UNL     1      88.843  46.037  42.401  0.00  0.00    -0.048 C 
BRANCH  15  16
ATOM     16  C   UNL     1      90.241  46.674  42.563  0.00  0.00    -0.027 C 
BRANCH  16  17
ATOM     17  C   UNL     1      90.290  48.062  43.254  0.00  0.00    +0.055 C 
BRANCH  17  18
ATOM     18  O   UNL     1      91.246  48.063  44.283  0.00  0.00    -0.392 OA
ATOM     19  H   UNL     1      92.017  47.542  44.009  0.00  0.00    +0.000 HD
ENDBRANCH  17  18
BRANCH  17  20
ATOM     20  C   UNL     1      90.580  49.243  42.305  0.00  0.00    -0.027 C 
BRANCH  20  21
ATOM     21  C   UNL     1      89.556  49.357  41.161  0.00  0.00    -0.051 C 
BRANCH  21  22
ATOM     22  C   UNL     1      88.223  49.985  41.606  0.00  0.00    -0.053 C 
BRANCH  22  23
ATOM     23  C   UNL     1      88.313  50.916  42.830  0.00  0.00    -0.053 C 
BRANCH  23  25
ATOM     24  C   UNL     1      89.126  53.011  41.684  0.00  0.00    -0.065 C 
ATOM     25  C   UNL     1      87.997  52.381  42.495  0.00  0.00    -0.056 C 
ENDBRANCH  23  25
ENDBRANCH  22  23
ENDBRANCH  21  22
ENDBRANCH  20  21
ENDBRANCH  17  20
ENDBRANCH  16  17
ENDBRANCH  15  16
ENDBRANCH  14  15
ENDBRANCH  11  14
ENDBRANCH   6  11
ENDBRANCH   1   9
BRANCH   4  26
ATOM     26  C   UNL     1      82.399  50.468  43.509  0.00  0.00    +0.081 C 
BRANCH  26  27
ATOM     27  O   UNL     1      81.609  50.148  42.389  0.00  0.00    -0.389 OA
ATOM     28  H   UNL     1      81.790  49.236  42.116  0.00  0.00    +0.000 HD
ENDBRANCH  26  27
BRANCH  26  29
ATOM     29  C   UNL     1      83.787  50.969  43.052  0.00  0.00    -0.024 C 
BRANCH  29  30
ATOM     30  C   UNL     1      84.326  52.058  43.993  0.00  0.00    -0.051 C 
BRANCH  30  31
ATOM     31  C   UNL     1      83.892  53.478  43.570  0.00  0.00    -0.053 C 
BRANCH  31  32
ATOM     32  C   UNL     1      84.892  54.183  42.631  0.00  0.00    -0.053 C 
BRANCH  32  33
ATOM     33  C   UNL     1      85.735  55.291  43.286  0.00  0.00    -0.053 C 
BRANCH  33  34
ATOM     34  C   UNL     1      84.955  56.607  43.461  0.00  0.00    -0.053 C 
BRANCH  34  35
ATOM     35  C   UNL     1      85.721  57.639  44.313  0.00  0.00    -0.053 C 
BRANCH  35  36
ATOM     36  C   UNL     1      85.103  57.888  45.703  0.00  0.00    -0.053 C 
BRANCH  36  37
ATOM     37  C   UNL     1      85.455  56.812  46.750  0.00  0.00    -0.053 C 
BRANCH  37  38
ATOM     38  C   UNL     1      84.273  55.874  47.053  0.00  0.00    -0.053 C 
BRANCH  38  39
ATOM     39  C   UNL     1      84.656  54.383  46.966  0.00  0.00    -0.049 C 
BRANCH  39  40
ATOM     40  C   UNL     1      86.168  54.132  46.837  0.00  0.00    -0.021 C 
BRANCH  40  41
ATOM     41  C   UNL     1      86.542  52.691  47.030  0.00  0.00    +0.036 C 
ATOM     42  C   UNL     1      87.235  51.947  46.176  0.00  0.00    -0.034 C 
ATOM     43  C   UNL     1      87.458  50.564  46.736  0.00  0.00    +0.120 C 
ATOM     44  O   UNL     1      86.808  50.606  48.005  0.00  0.00    -0.454 OA
ATOM     45  C   UNL     1      86.272  51.866  48.187  0.00  0.00    +0.336 C 
ATOM     46  O   UNL     1      85.647  52.223  49.219  0.00  0.00    -0.245 OA
ATOM     47  C   UNL     1      86.830  49.493  45.851  0.00  0.00    -0.024 C 
ENDBRANCH  40  41
ENDBRANCH  39  40
ENDBRANCH  38  39
ENDBRANCH  37  38
ENDBRANCH  36  37
ENDBRANCH  35  36
ENDBRANCH  34  35
ENDBRANCH  33  34
ENDBRANCH  32  33
ENDBRANCH  31  32
ENDBRANCH  30  31
ENDBRANCH  29  30
ENDBRANCH  26  29
ENDBRANCH   4  26
TORSDOF 28
ENDMDL
MODEL 9
REMARK VINA RESULT:    -7.479      1.597      6.473
REMARK INTER + INTRA:         -24.325
REMARK INTER:                 -19.066
REMARK INTRA:                  -5.259
REMARK UNBOUND:                -5.259
REMARK  Name = 
REMARK  30 active torsions:
REMARK  status: ('A' for Active; 'I' for Inactive)
REMARK    1  A    between atoms: C_1  and  C_2
REMARK    2  A    between atoms: C_2  and  C_3
REMARK    3  A    between atoms: C_3  and  C_4
REMARK    4  A    between atoms: C_4  and  C_5
REMARK    5  A    between atoms: C_5  and  C_6
REMARK    6  A    between atoms: C_6  and  C_7
REMARK    7  A    between atoms: C_7  and  C_8
REMARK    8  A    between atoms: C_7  and  O_44
REMARK    9  A    between atoms: C_8  and  C_9
REMARK   10  A    between atoms: C_9  and  C_10
REMARK   11  A    between atoms: C_10  and  C_11
REMARK   12  A    between atoms: C_11  and  C_12
REMARK   13  A    between atoms: C_11  and  O_43
REMARK   14  A    between atoms: C_15  and  C_17
REMARK   15  A    between atoms: C_20  and  C_22
REMARK   16  A    between atoms: C_22  and  C_23
REMARK   17  A    between atoms: C_22  and  O_42
REMARK   18  A    between atoms: C_23  and  C_24
REMARK   19  A    between atoms: C_24  and  C_25
REMARK   20  A    between atoms: C_25  and  C_26
REMARK   21  A    between atoms: C_26  and  C_27
REMARK   22  A    between atoms: C_27  and  C_28
REMARK   23  A    between atoms: C_28  and  C_29
REMARK   24  A    between atoms: C_29  and  C_30
REMARK   25  A    between atoms: C_30  and  C_31
REMARK   26  A    between atoms: C_31  and  C_32
REMARK   27  A    between atoms: C_32  and  C_33
REMARK   28  A    between atoms: C_33  and  C_34
REMARK   29  A    between atoms: C_34  and  C_35
REMARK   30  A    between atoms: C_37  and  C_41
REMARK                            x       y       z     vdW  Elec       q    Type
REMARK                         _______ _______ _______ _____ _____    ______ ____
ROOT
ATOM      1  C   UNL     1      88.154  50.768  41.902  0.00  0.00    +0.085 C 
ATOM      2  C   UNL     1      88.952  52.061  42.088  0.00  0.00    -0.022 C 
ATOM      3  C   UNL     1      88.558  52.895  40.907  0.00  0.00    -0.022 C 
ATOM      4  C   UNL     1      87.205  52.317  40.514  0.00  0.00    +0.085 C 
ATOM      5  O   UNL     1      87.204  50.953  40.873  0.00  0.00    -0.368 OA
ENDROOT
BRANCH   1   9
ATOM      6  C   UNL     1      88.821  47.693  42.850  0.00  0.00    +0.085 C 
ATOM      7  C   UNL     1      89.914  48.537  43.510  0.00  0.00    -0.022 C 
ATOM      8  C   UNL     1      90.303  49.512  42.441  0.00  0.00    -0.022 C 
ATOM      9  C   UNL     1      89.067  49.571  41.553  0.00  0.00    +0.085 C 
ATOM     10  O   UNL     1      88.348  48.364  41.700  0.00  0.00    -0.368 OA
BRANCH   6  11
ATOM     11  C   UNL     1      89.299  46.279  42.440  0.00  0.00    +0.081 C 
BRANCH  11  12
ATOM     12  O   UNL     1      90.517  45.995  43.083  0.00  0.00    -0.389 OA
ATOM     13  H   UNL     1      90.340  45.636  43.966  0.00  0.00    +0.000 HD
ENDBRANCH  11  12
BRANCH  11  14
ATOM     14  C   UNL     1      88.272  45.163  42.762  0.00  0.00    -0.024 C 
BRANCH  14  15
ATOM     15  C   UNL     1      86.798  45.620  42.826  0.00  0.00    -0.048 C 
BRANCH  15  16
ATOM     16  C   UNL     1      85.820  44.641  43.512  0.00  0.00    -0.027 C 
BRANCH  16  17
ATOM     17  C   UNL     1      84.827  45.260  44.531  0.00  0.00    +0.055 C 
BRANCH  17  18
ATOM     18  O   UNL     1      85.368  46.430  45.090  0.00  0.00    -0.392 OA
ATOM     19  H   UNL     1      85.193  46.443  46.044  0.00  0.00    +0.000 HD
ENDBRANCH  17  18
BRANCH  17  20
ATOM     20  C   UNL     1      83.432  45.582  43.956  0.00  0.00    -0.027 C 
BRANCH  20  21
ATOM     21  C   UNL     1      83.271  47.065  43.572  0.00  0.00    -0.051 C 
BRANCH  21  22
ATOM     22  C   UNL     1      81.879  47.627  43.915  0.00  0.00    -0.053 C 
BRANCH  22  23
ATOM     23  C   UNL     1      81.829  49.145  44.169  0.00  0.00    -0.053 C 
BRANCH  23  25
ATOM     24  C   UNL     1      81.580  51.135  42.638  0.00  0.00    -0.065 C 
ATOM     25  C   UNL     1      80.901  49.887  43.196  0.00  0.00    -0.056 C 
ENDBRANCH  23  25
ENDBRANCH  22  23
ENDBRANCH  21  22
ENDBRANCH  20  21
ENDBRANCH  17  20
ENDBRANCH  16  17
ENDBRANCH  15  16
ENDBRANCH  14  15
ENDBRANCH  11  14
ENDBRANCH   6  11
ENDBRANCH   1   9
BRANCH   4  26
ATOM     26  C   UNL     1      86.019  53.046  41.203  0.00  0.00    +0.081 C 
BRANCH  26  27
ATOM     27  O   UNL     1      86.486  54.075  42.039  0.00  0.00    -0.389 OA
ATOM     28  H   UNL     1      86.964  53.690  42.790  0.00  0.00    +0.000 HD
ENDBRANCH  26  27
BRANCH  26  29
ATOM     29  C   UNL     1      85.133  52.069  42.009  0.00  0.00    -0.024 C 
BRANCH  29  30
ATOM     30  C   UNL     1      84.927  52.560  43.451  0.00  0.00    -0.051 C 
BRANCH  30  31
ATOM     31  C   UNL     1      85.853  51.848  44.459  0.00  0.00    -0.053 C 
BRANCH  31  32
ATOM     32  C   UNL     1      85.498  50.365  44.694  0.00  0.00    -0.053 C 
BRANCH  32  33
ATOM     33  C   UNL     1      86.440  49.609  45.646  0.00  0.00    -0.053 C 
BRANCH  33  34
ATOM     34  C   UNL     1      87.659  50.450  46.069  0.00  0.00    -0.053 C 
BRANCH  34  35
ATOM     35  C   UNL     1      87.797  50.560  47.601  0.00  0.00    -0.053 C 
BRANCH  35  36
ATOM     36  C   UNL     1      86.465  50.819  48.333  0.00  0.00    -0.053 C 
BRANCH  36  37
ATOM     37  C   UNL     1      86.197  52.306  48.641  0.00  0.00    -0.053 C 
BRANCH  37  38
ATOM     38  C   UNL     1      85.033  52.879  47.814  0.00  0.00    -0.053 C 
BRANCH  38  39
ATOM     39  C   UNL     1      85.119  54.408  47.640  0.00  0.00    -0.049 C 
BRANCH  39  40
ATOM     40  C   UNL     1      86.221  54.866  46.669  0.00  0.00    -0.021 C 
BRANCH  40  41
ATOM     41  C   UNL     1      85.681  55.579  45.462  0.00  0.00    +0.036 C 
ATOM     42  C   UNL     1      84.398  55.796  45.198  0.00  0.00    -0.034 C 
ATOM     43  C   UNL     1      84.245  56.586  43.923  0.00  0.00    +0.120 C 
ATOM     44  O   UNL     1      85.588  56.790  43.490  0.00  0.00    -0.454 OA
ATOM     45  C   UNL     1      86.442  56.202  44.403  0.00  0.00    +0.336 C 
ATOM     46  O   UNL     1      87.697  56.223  44.309  0.00  0.00    -0.245 OA
ATOM     47  C   UNL     1      83.458  55.809  42.873  0.00  0.00    -0.024 C 
ENDBRANCH  40  41
ENDBRANCH  39  40
ENDBRANCH  38  39
ENDBRANCH  37  38
ENDBRANCH  36  37
ENDBRANCH  35  36
ENDBRANCH  34  35
ENDBRANCH  33  34
ENDBRANCH  32  33
ENDBRANCH  31  32
ENDBRANCH  30  31
ENDBRANCH  29  30
ENDBRANCH  26  29
ENDBRANCH   4  26
TORSDOF 28
ENDMDL
