MODEL 1
REMARK VINA RESULT:    -8.294      0.000      0.000
REMARK INTER + INTRA:         -25.368
REMARK INTER:                 -19.938
REMARK INTRA:                  -5.430
REMARK UNBOUND:                -4.224
REMARK  Name = 
REMARK  30 active torsions:
REMARK  status: ('A' for Active; 'I' for Inactive)
REMARK    1  A    between atoms: C_1  and  C_2
REMARK    2  A    between atoms: C_2  and  C_3
REMARK    3  A    between atoms: C_3  and  C_4
REMARK    4  A    between atoms: C_4  and  C_5
REMARK    5  A    between atoms: C_5  and  C_6
REMARK    6  A    between atoms: C_6  and  C_7
REMARK    7  A    between atoms: C_7  and  C_8
REMARK    8  A    between atoms: C_7  and  O_44
REMARK    9  A    between atoms: C_8  and  C_9
REMARK   10  A    between atoms: C_9  and  C_10
REMARK   11  A    between atoms: C_10  and  C_11
REMARK   12  A    between atoms: C_11  and  C_12
REMARK   13  A    between atoms: C_11  and  O_43
REMARK   14  A    between atoms: C_15  and  C_17
REMARK   15  A    between atoms: C_20  and  C_22
REMARK   16  A    between atoms: C_22  and  C_23
REMARK   17  A    between atoms: C_22  and  O_42
REMARK   18  A    between atoms: C_23  and  C_24
REMARK   19  A    between atoms: C_24  and  C_25
REMARK   20  A    between atoms: C_25  and  C_26
REMARK   21  A    between atoms: C_26  and  C_27
REMARK   22  A    between atoms: C_27  and  C_28
REMARK   23  A    between atoms: C_28  and  C_29
REMARK   24  A    between atoms: C_29  and  C_30
REMARK   25  A    between atoms: C_30  and  C_31
REMARK   26  A    between atoms: C_31  and  C_32
REMARK   27  A    between atoms: C_32  and  C_33
REMARK   28  A    between atoms: C_33  and  C_34
REMARK   29  A    between atoms: C_34  and  C_35
REMARK   30  A    between atoms: C_37  and  C_41
REMARK                            x       y       z     vdW  Elec       q    Type
REMARK                         _______ _______ _______ _____ _____    ______ ____
ROOT
ATOM      1  C   UNL     1      87.723  50.653  41.420  0.00  0.00    +0.085 C 
ATOM      2  C   UNL     1      87.962  51.661  42.548  0.00  0.00    -0.022 C 
ATOM      3  C   UNL     1      88.137  52.964  41.829  0.00  0.00    -0.022 C 
ATOM      4  C   UNL     1      87.418  52.727  40.507  0.00  0.00    +0.085 C 
ATOM      5  O   UNL     1      87.516  51.352  40.210  0.00  0.00    -0.368 OA
ENDROOT
BRANCH   1   9
ATOM      6  C   UNL     1      88.811  47.739  42.482  0.00  0.00    +0.085 C 
ATOM      7  C   UNL     1      89.562  48.759  43.342  0.00  0.00    -0.022 C 
ATOM      8  C   UNL     1      89.940  49.833  42.368  0.00  0.00    -0.022 C 
ATOM      9  C   UNL     1      88.911  49.677  41.256  0.00  0.00    +0.085 C 
ATOM     10  O   UNL     1      88.439  48.346  41.262  0.00  0.00    -0.368 OA
BRANCH   6  11
ATOM     11  C   UNL     1      89.637  46.467  42.175  0.00  0.00    +0.081 C 
BRANCH  11  12
ATOM     12  O   UNL     1      90.849  46.516  42.885  0.00  0.00    -0.389 OA
ATOM     13  H   UNL     1      91.299  45.660  42.817  0.00  0.00    +0.000 HD
ENDBRANCH  11  12
BRANCH  11  14
ATOM     14  C   UNL     1      88.891  45.150  42.515  0.00  0.00    -0.024 C 
BRANCH  14  15
ATOM     15  C   UNL     1      87.356  45.272  42.634  0.00  0.00    -0.048 C 
BRANCH  15  16
ATOM     16  C   UNL     1      86.699  44.422  43.744  0.00  0.00    -0.027 C 
BRANCH  16  17
ATOM     17  C   UNL     1      85.235  44.781  44.111  0.00  0.00    +0.055 C 
BRANCH  17  18
ATOM     18  O   UNL     1      85.209  45.786  45.092  0.00  0.00    -0.392 OA
ATOM     19  H   UNL     1      85.844  46.481  44.860  0.00  0.00    +0.000 HD
ENDBRANCH  17  18
BRANCH  17  20
ATOM     20  C   UNL     1      84.364  45.228  42.918  0.00  0.00    -0.027 C 
BRANCH  20  21
ATOM     21  C   UNL     1      84.020  46.728  42.958  0.00  0.00    -0.051 C 
BRANCH  21  22
ATOM     22  C   UNL     1      82.592  47.031  42.469  0.00  0.00    -0.053 C 
BRANCH  22  23
ATOM     23  C   UNL     1      81.800  48.029  43.335  0.00  0.00    -0.053 C 
BRANCH  23  25
ATOM     24  C   UNL     1      80.303  46.049  43.782  0.00  0.00    -0.065 C 
ATOM     25  C   UNL     1      80.877  47.342  44.352  0.00  0.00    -0.056 C 
ENDBRANCH  23  25
ENDBRANCH  22  23
ENDBRANCH  21  22
ENDBRANCH  20  21
ENDBRANCH  17  20
ENDBRANCH  16  17
ENDBRANCH  15  16
ENDBRANCH  14  15
ENDBRANCH  11  14
ENDBRANCH   6  11
ENDBRANCH   1   9
BRANCH   4  26
ATOM     26  C   UNL     1      85.925  53.153  40.553  0.00  0.00    +0.081 C 
BRANCH  26  27
ATOM     27  O   UNL     1      85.591  53.917  39.420  0.00  0.00    -0.389 OA
ATOM     28  H   UNL     1      85.371  54.821  39.693  0.00  0.00    +0.000 HD
ENDBRANCH  26  27
BRANCH  26  29
ATOM     29  C   UNL     1      85.590  53.941  41.840  0.00  0.00    -0.024 C 
BRANCH  29  30
ATOM     30  C   UNL     1      84.071  54.061  42.043  0.00  0.00    -0.051 C 
BRANCH  30  31
ATOM     31  C   UNL     1      83.357  52.694  42.013  0.00  0.00    -0.053 C 
BRANCH  31  32
ATOM     32  C   UNL     1      83.523  51.873  43.309  0.00  0.00    -0.053 C 
BRANCH  32  33
ATOM     33  C   UNL     1      84.575  50.752  43.243  0.00  0.00    -0.053 C 
BRANCH  33  34
ATOM     34  C   UNL     1      84.644  49.925  44.540  0.00  0.00    -0.053 C 
BRANCH  34  35
ATOM     35  C   UNL     1      86.037  49.307  44.772  0.00  0.00    -0.053 C 
BRANCH  35  36
ATOM     36  C   UNL     1      86.654  49.645  46.144  0.00  0.00    -0.053 C 
BRANCH  36  37
ATOM     37  C   UNL     1      87.700  50.777  46.101  0.00  0.00    -0.053 C 
BRANCH  37  38
ATOM     38  C   UNL     1      87.056  52.174  46.046  0.00  0.00    -0.053 C 
BRANCH  38  39
ATOM     39  C   UNL     1      86.074  52.425  47.206  0.00  0.00    -0.049 C 
BRANCH  39  40
ATOM     40  C   UNL     1      84.671  52.863  46.754  0.00  0.00    -0.021 C 
BRANCH  40  41
ATOM     41  C   UNL     1      84.558  54.346  46.542  0.00  0.00    +0.036 C 
ATOM     42  C   UNL     1      84.732  54.981  45.389  0.00  0.00    -0.034 C 
ATOM     43  C   UNL     1      84.488  56.460  45.556  0.00  0.00    +0.120 C 
ATOM     44  O   UNL     1      84.159  56.593  46.937  0.00  0.00    -0.454 OA
ATOM     45  C   UNL     1      84.191  55.342  47.523  0.00  0.00    +0.336 C 
ATOM     46  O   UNL     1      83.930  55.126  48.735  0.00  0.00    -0.245 OA
ATOM     47  C   UNL     1      85.734  57.274  45.223  0.00  0.00    -0.024 C 
ENDBRANCH  40  41
ENDBRANCH  39  40
ENDBRANCH  38  39
ENDBRANCH  37  38
ENDBRANCH  36  37
ENDBRANCH  35  36
ENDBRANCH  34  35
ENDBRANCH  33  34
ENDBRANCH  32  33
ENDBRANCH  31  32
ENDBRANCH  30  31
ENDBRANCH  29  30
ENDBRANCH  26  29
ENDBRANCH   4  26
TORSDOF 28
ENDMDL
MODEL 2
REMARK VINA RESULT:    -8.258      2.215      7.322
REMARK INTER + INTRA:         -25.276
REMARK INTER:                 -20.060
REMARK INTRA:                  -5.216
REMARK UNBOUND:                -4.224
REMARK  Name = 
REMARK  30 active torsions:
REMARK  status: ('A' for Active; 'I' for Inactive)
REMARK    1  A    between atoms: C_1  and  C_2
REMARK    2  A    between atoms: C_2  and  C_3
REMARK    3  A    between atoms: C_3  and  C_4
REMARK    4  A    between atoms: C_4  and  C_5
REMARK    5  A    between atoms: C_5  and  C_6
REMARK    6  A    between atoms: C_6  and  C_7
REMARK    7  A    between atoms: C_7  and  C_8
REMARK    8  A    between atoms: C_7  and  O_44
REMARK    9  A    between atoms: C_8  and  C_9
REMARK   10  A    between atoms: C_9  and  C_10
REMARK   11  A    between atoms: C_10  and  C_11
REMARK   12  A    between atoms: C_11  and  C_12
REMARK   13  A    between atoms: C_11  and  O_43
REMARK   14  A    between atoms: C_15  and  C_17
REMARK   15  A    between atoms: C_20  and  C_22
REMARK   16  A    between atoms: C_22  and  C_23
REMARK   17  A    between atoms: C_22  and  O_42
REMARK   18  A    between atoms: C_23  and  C_24
REMARK   19  A    between atoms: C_24  and  C_25
REMARK   20  A    between atoms: C_25  and  C_26
REMARK   21  A    between atoms: C_26  and  C_27
REMARK   22  A    between atoms: C_27  and  C_28
REMARK   23  A    between atoms: C_28  and  C_29
REMARK   24  A    between atoms: C_29  and  C_30
REMARK   25  A    between atoms: C_30  and  C_31
REMARK   26  A    between atoms: C_31  and  C_32
REMARK   27  A    between atoms: C_32  and  C_33
REMARK   28  A    between atoms: C_33  and  C_34
REMARK   29  A    between atoms: C_34  and  C_35
REMARK   30  A    between atoms: C_37  and  C_41
REMARK                            x       y       z     vdW  Elec       q    Type
REMARK                         _______ _______ _______ _____ _____    ______ ____
ROOT
ATOM      1  C   UNL     1      85.845  54.152  47.004  0.00  0.00    +0.085 C 
ATOM      2  C   UNL     1      85.594  54.103  48.514  0.00  0.00    -0.022 C 
ATOM      3  C   UNL     1      84.787  52.854  48.700  0.00  0.00    -0.022 C 
ATOM      4  C   UNL     1      85.147  52.026  47.474  0.00  0.00    +0.085 C 
ATOM      5  O   UNL     1      85.453  52.923  46.429  0.00  0.00    -0.368 OA
ENDROOT
BRANCH   1   9
ATOM      6  C   UNL     1      85.484  55.634  44.093  0.00  0.00    +0.085 C 
ATOM      7  C   UNL     1      86.470  56.527  44.851  0.00  0.00    -0.022 C 
ATOM      8  C   UNL     1      85.905  56.580  46.238  0.00  0.00    -0.022 C 
ATOM      9  C   UNL     1      85.072  55.308  46.328  0.00  0.00    +0.085 C 
ATOM     10  O   UNL     1      84.690  54.926  45.023  0.00  0.00    -0.368 OA
BRANCH   6  11
ATOM     11  C   UNL     1      84.553  56.419  43.138  0.00  0.00    +0.081 C 
BRANCH  11  12
ATOM     12  O   UNL     1      85.127  57.670  42.852  0.00  0.00    -0.389 OA
ATOM     13  H   UNL     1      84.497  58.207  42.348  0.00  0.00    +0.000 HD
ENDBRANCH  11  12
BRANCH  11  14
ATOM     14  C   UNL     1      84.255  55.670  41.812  0.00  0.00    -0.024 C 
BRANCH  14  15
ATOM     15  C   UNL     1      85.112  54.411  41.558  0.00  0.00    -0.048 C 
BRANCH  15  16
ATOM     16  C   UNL     1      84.342  53.158  41.086  0.00  0.00    -0.027 C 
BRANCH  16  17
ATOM     17  C   UNL     1      83.985  52.117  42.179  0.00  0.00    +0.055 C 
BRANCH  17  18
ATOM     18  O   UNL     1      84.626  52.438  43.388  0.00  0.00    -0.392 OA
ATOM     19  H   UNL     1      85.060  53.301  43.304  0.00  0.00    +0.000 HD
ENDBRANCH  17  18
BRANCH  17  20
ATOM     20  C   UNL     1      82.474  51.955  42.445  0.00  0.00    -0.027 C 
BRANCH  20  21
ATOM     21  C   UNL     1      81.971  50.523  42.188  0.00  0.00    -0.051 C 
BRANCH  21  22
ATOM     22  C   UNL     1      82.497  49.506  43.219  0.00  0.00    -0.053 C 
BRANCH  22  23
ATOM     23  C   UNL     1      82.311  48.027  42.835  0.00  0.00    -0.053 C 
BRANCH  23  25
ATOM     24  C   UNL     1      80.196  47.551  44.125  0.00  0.00    -0.065 C 
ATOM     25  C   UNL     1      81.668  47.192  43.953  0.00  0.00    -0.056 C 
ENDBRANCH  23  25
ENDBRANCH  22  23
ENDBRANCH  21  22
ENDBRANCH  20  21
ENDBRANCH  17  20
ENDBRANCH  16  17
ENDBRANCH  15  16
ENDBRANCH  14  15
ENDBRANCH  11  14
ENDBRANCH   6  11
ENDBRANCH   1   9
BRANCH   4  26
ATOM     26  C   UNL     1      86.351  51.076  47.725  0.00  0.00    +0.081 C 
BRANCH  26  27
ATOM     27  O   UNL     1      86.937  51.338  48.976  0.00  0.00    -0.389 OA
ATOM     28  H   UNL     1      86.631  52.197  49.304  0.00  0.00    +0.000 HD
ENDBRANCH  26  27
BRANCH  26  29
ATOM     29  C   UNL     1      87.413  51.186  46.608  0.00  0.00    -0.024 C 
BRANCH  29  30
ATOM     30  C   UNL     1      87.406  49.943  45.704  0.00  0.00    -0.051 C 
BRANCH  30  31
ATOM     31  C   UNL     1      86.011  49.644  45.115  0.00  0.00    -0.053 C 
BRANCH  31  32
ATOM     32  C   UNL     1      86.049  48.953  43.737  0.00  0.00    -0.053 C 
BRANCH  32  33
ATOM     33  C   UNL     1      85.883  47.424  43.766  0.00  0.00    -0.053 C 
BRANCH  33  34
ATOM     34  C   UNL     1      86.284  46.756  42.438  0.00  0.00    -0.053 C 
BRANCH  34  35
ATOM     35  C   UNL     1      87.269  45.587  42.639  0.00  0.00    -0.053 C 
BRANCH  35  36
ATOM     36  C   UNL     1      88.725  45.920  42.256  0.00  0.00    -0.053 C 
BRANCH  36  37
ATOM     37  C   UNL     1      88.906  47.316  41.628  0.00  0.00    -0.053 C 
BRANCH  37  38
ATOM     38  C   UNL     1      90.377  47.767  41.607  0.00  0.00    -0.053 C 
BRANCH  38  39
ATOM     39  C   UNL     1      90.597  49.123  42.307  0.00  0.00    -0.049 C 
BRANCH  39  40
ATOM     40  C   UNL     1      89.298  49.890  42.608  0.00  0.00    -0.021 C 
BRANCH  40  41
ATOM     41  C   UNL     1      89.159  51.148  41.801  0.00  0.00    +0.036 C 
ATOM     42  C   UNL     1      89.750  51.394  40.637  0.00  0.00    -0.034 C 
ATOM     43  C   UNL     1      89.332  52.741  40.104  0.00  0.00    +0.120 C 
ATOM     44  O   UNL     1      88.437  53.234  41.100  0.00  0.00    -0.454 OA
ATOM     45  C   UNL     1      88.326  52.290  42.102  0.00  0.00    +0.336 C 
ATOM     46  O   UNL     1      87.596  52.425  43.118  0.00  0.00    -0.245 OA
ATOM     47  C   UNL     1      90.525  53.677  39.948  0.00  0.00    -0.024 C 
ENDBRANCH  40  41
ENDBRANCH  39  40
ENDBRANCH  38  39
ENDBRANCH  37  38
ENDBRANCH  36  37
ENDBRANCH  35  36
ENDBRANCH  34  35
ENDBRANCH  33  34
ENDBRANCH  32  33
ENDBRANCH  31  32
ENDBRANCH  30  31
ENDBRANCH  29  30
ENDBRANCH  26  29
ENDBRANCH   4  26
TORSDOF 28
ENDMDL
MODEL 3
REMARK VINA RESULT:    -8.231      1.809      3.384
REMARK INTER + INTRA:         -25.206
REMARK INTER:                 -20.027
REMARK INTRA:                  -5.179
REMARK UNBOUND:                -4.224
REMARK  Name = 
REMARK  30 active torsions:
REMARK  status: ('A' for Active; 'I' for Inactive)
REMARK    1  A    between atoms: C_1  and  C_2
REMARK    2  A    between atoms: C_2  and  C_3
REMARK    3  A    between atoms: C_3  and  C_4
REMARK    4  A    between atoms: C_4  and  C_5
REMARK    5  A    between atoms: C_5  and  C_6
REMARK    6  A    between atoms: C_6  and  C_7
REMARK    7  A    between atoms: C_7  and  C_8
REMARK    8  A    between atoms: C_7  and  O_44
REMARK    9  A    between atoms: C_8  and  C_9
REMARK   10  A    between atoms: C_9  and  C_10
REMARK   11  A    between atoms: C_10  and  C_11
REMARK   12  A    between atoms: C_11  and  C_12
REMARK   13  A    between atoms: C_11  and  O_43
REMARK   14  A    between atoms: C_15  and  C_17
REMARK   15  A    between atoms: C_20  and  C_22
REMARK   16  A    between atoms: C_22  and  C_23
REMARK   17  A    between atoms: C_22  and  O_42
REMARK   18  A    between atoms: C_23  and  C_24
REMARK   19  A    between atoms: C_24  and  C_25
REMARK   20  A    between atoms: C_25  and  C_26
REMARK   21  A    between atoms: C_26  and  C_27
REMARK   22  A    between atoms: C_27  and  C_28
REMARK   23  A    between atoms: C_28  and  C_29
REMARK   24  A    between atoms: C_29  and  C_30
REMARK   25  A    between atoms: C_30  and  C_31
REMARK   26  A    between atoms: C_31  and  C_32
REMARK   27  A    between atoms: C_32  and  C_33
REMARK   28  A    between atoms: C_33  and  C_34
REMARK   29  A    between atoms: C_34  and  C_35
REMARK   30  A    between atoms: C_37  and  C_41
REMARK                            x       y       z     vdW  Elec       q    Type
REMARK                         _______ _______ _______ _____ _____    ______ ____
ROOT
ATOM      1  C   UNL     1      87.776  50.621  41.525  0.00  0.00    +0.085 C 
ATOM      2  C   UNL     1      88.259  51.683  42.517  0.00  0.00    -0.022 C 
ATOM      3  C   UNL     1      88.378  52.921  41.681  0.00  0.00    -0.022 C 
ATOM      4  C   UNL     1      87.432  52.646  40.521  0.00  0.00    +0.085 C 
ATOM      5  O   UNL     1      87.402  51.250  40.317  0.00  0.00    -0.368 OA
ENDROOT
BRANCH   1   9
ATOM      6  C   UNL     1      88.786  47.657  42.521  0.00  0.00    +0.085 C 
ATOM      7  C   UNL     1      89.709  48.635  43.252  0.00  0.00    -0.022 C 
ATOM      8  C   UNL     1      90.033  49.662  42.210  0.00  0.00    -0.022 C 
ATOM      9  C   UNL     1      88.863  49.560  41.240  0.00  0.00    +0.085 C 
ATOM     10  O   UNL     1      88.305  48.266  41.341  0.00  0.00    -0.368 OA
BRANCH   6  11
ATOM     11  C   UNL     1      89.477  46.323  42.148  0.00  0.00    +0.081 C 
BRANCH  11  12
ATOM     12  O   UNL     1      90.738  46.262  42.767  0.00  0.00    -0.389 OA
ATOM     13  H   UNL     1      91.298  46.977  42.431  0.00  0.00    +0.000 HD
ENDBRANCH  11  12
BRANCH  11  14
ATOM     14  C   UNL     1      88.649  45.070  42.534  0.00  0.00    -0.024 C 
BRANCH  14  15
ATOM     15  C   UNL     1      87.120  45.280  42.592  0.00  0.00    -0.048 C 
BRANCH  15  16
ATOM     16  C   UNL     1      86.410  44.711  43.841  0.00  0.00    -0.027 C 
BRANCH  16  17
ATOM     17  C   UNL     1      85.201  45.523  44.376  0.00  0.00    +0.055 C 
BRANCH  17  18
ATOM     18  O   UNL     1      85.584  46.848  44.645  0.00  0.00    -0.392 OA
ATOM     19  H   UNL     1      85.182  47.440  43.990  0.00  0.00    +0.000 HD
ENDBRANCH  17  18
BRANCH  17  20
ATOM     20  C   UNL     1      83.973  45.540  43.442  0.00  0.00    -0.027 C 
BRANCH  20  21
ATOM     21  C   UNL     1      83.518  46.965  43.079  0.00  0.00    -0.051 C 
BRANCH  21  22
ATOM     22  C   UNL     1      82.107  47.297  43.599  0.00  0.00    -0.053 C 
BRANCH  22  23
ATOM     23  C   UNL     1      81.233  46.078  43.948  0.00  0.00    -0.053 C 
BRANCH  23  25
ATOM     24  C   UNL     1      79.555  47.954  44.114  0.00  0.00    -0.065 C 
ATOM     25  C   UNL     1      79.781  46.454  44.278  0.00  0.00    -0.056 C 
ENDBRANCH  23  25
ENDBRANCH  22  23
ENDBRANCH  21  22
ENDBRANCH  20  21
ENDBRANCH  17  20
ENDBRANCH  16  17
ENDBRANCH  15  16
ENDBRANCH  14  15
ENDBRANCH  11  14
ENDBRANCH   6  11
ENDBRANCH   1   9
BRANCH   4  26
ATOM     26  C   UNL     1      85.994  53.172  40.782  0.00  0.00    +0.081 C 
BRANCH  26  27
ATOM     27  O   UNL     1      85.502  53.855  39.656  0.00  0.00    -0.389 OA
ATOM     28  H   UNL     1      84.789  54.454  39.926  0.00  0.00    +0.000 HD
ENDBRANCH  26  27
BRANCH  26  29
ATOM     29  C   UNL     1      85.934  54.089  42.025  0.00  0.00    -0.024 C 
BRANCH  29  30
ATOM     30  C   UNL     1      84.590  54.831  42.109  0.00  0.00    -0.051 C 
BRANCH  30  31
ATOM     31  C   UNL     1      84.498  55.756  43.341  0.00  0.00    -0.053 C 
BRANCH  31  32
ATOM     32  C   UNL     1      85.868  56.200  43.893  0.00  0.00    -0.053 C 
BRANCH  32  33
ATOM     33  C   UNL     1      86.135  55.826  45.361  0.00  0.00    -0.053 C 
BRANCH  33  34
ATOM     34  C   UNL     1      85.088  56.416  46.325  0.00  0.00    -0.053 C 
BRANCH  34  35
ATOM     35  C   UNL     1      84.909  55.561  47.595  0.00  0.00    -0.053 C 
BRANCH  35  36
ATOM     36  C   UNL     1      83.644  54.678  47.584  0.00  0.00    -0.053 C 
BRANCH  36  37
ATOM     37  C   UNL     1      83.830  53.306  48.262  0.00  0.00    -0.053 C 
BRANCH  37  38
ATOM     38  C   UNL     1      85.265  53.090  48.774  0.00  0.00    -0.053 C 
BRANCH  38  39
ATOM     39  C   UNL     1      85.996  51.949  48.038  0.00  0.00    -0.049 C 
BRANCH  39  40
ATOM     40  C   UNL     1      86.528  52.340  46.649  0.00  0.00    -0.021 C 
BRANCH  40  41
ATOM     41  C   UNL     1      85.857  51.592  45.532  0.00  0.00    +0.036 C 
ATOM     42  C   UNL     1      84.958  52.093  44.692  0.00  0.00    -0.034 C 
ATOM     43  C   UNL     1      84.549  51.057  43.675  0.00  0.00    +0.120 C 
ATOM     44  O   UNL     1      85.315  49.910  44.036  0.00  0.00    -0.454 OA
ATOM     45  C   UNL     1      86.097  50.225  45.130  0.00  0.00    +0.336 C 
ATOM     46  O   UNL     1      86.898  49.423  45.677  0.00  0.00    -0.245 OA
ATOM     47  C   UNL     1      83.057  50.751  43.758  0.00  0.00    -0.024 C 
ENDBRANCH  40  41
ENDBRANCH  39  40
ENDBRANCH  38  39
ENDBRANCH  37  38
ENDBRANCH  36  37
ENDBRANCH  35  36
ENDBRANCH  34  35
ENDBRANCH  33  34
ENDBRANCH  32  33
ENDBRANCH  31  32
ENDBRANCH  30  31
ENDBRANCH  29  30
ENDBRANCH  26  29
ENDBRANCH   4  26
TORSDOF 28
ENDMDL
MODEL 4
REMARK VINA RESULT:    -8.154      1.692      7.523
REMARK INTER + INTRA:         -25.011
REMARK INTER:                 -20.110
REMARK INTRA:                  -4.901
REMARK UNBOUND:                -4.224
REMARK  Name = 
REMARK  30 active torsions:
REMARK  status: ('A' for Active; 'I' for Inactive)
REMARK    1  A    between atoms: C_1  and  C_2
REMARK    2  A    between atoms: C_2  and  C_3
REMARK    3  A    between atoms: C_3  and  C_4
REMARK    4  A    between atoms: C_4  and  C_5
REMARK    5  A    between atoms: C_5  and  C_6
REMARK    6  A    between atoms: C_6  and  C_7
REMARK    7  A    between atoms: C_7  and  C_8
REMARK    8  A    between atoms: C_7  and  O_44
REMARK    9  A    between atoms: C_8  and  C_9
REMARK   10  A    between atoms: C_9  and  C_10
REMARK   11  A    between atoms: C_10  and  C_11
REMARK   12  A    between atoms: C_11  and  C_12
REMARK   13  A    between atoms: C_11  and  O_43
REMARK   14  A    between atoms: C_15  and  C_17
REMARK   15  A    between atoms: C_20  and  C_22
REMARK   16  A    between atoms: C_22  and  C_23
REMARK   17  A    between atoms: C_22  and  O_42
REMARK   18  A    between atoms: C_23  and  C_24
REMARK   19  A    between atoms: C_24  and  C_25
REMARK   20  A    between atoms: C_25  and  C_26
REMARK   21  A    between atoms: C_26  and  C_27
REMARK   22  A    between atoms: C_27  and  C_28
REMARK   23  A    between atoms: C_28  and  C_29
REMARK   24  A    between atoms: C_29  and  C_30
REMARK   25  A    between atoms: C_30  and  C_31
REMARK   26  A    between atoms: C_31  and  C_32
REMARK   27  A    between atoms: C_32  and  C_33
REMARK   28  A    between atoms: C_33  and  C_34
REMARK   29  A    between atoms: C_34  and  C_35
REMARK   30  A    between atoms: C_37  and  C_41
REMARK                            x       y       z     vdW  Elec       q    Type
REMARK                         _______ _______ _______ _____ _____    ______ ____
ROOT
ATOM      1  C   UNL     1      89.457  49.734  41.688  0.00  0.00    +0.085 C 
ATOM      2  C   UNL     1      90.880  49.318  42.073  0.00  0.00    -0.022 C 
ATOM      3  C   UNL     1      90.674  48.324  43.175  0.00  0.00    -0.022 C 
ATOM      4  C   UNL     1      89.259  47.821  42.925  0.00  0.00    +0.085 C 
ATOM      5  O   UNL     1      88.535  48.869  42.318  0.00  0.00    -0.368 OA
ENDROOT
BRANCH   1   9
ATOM      6  C   UNL     1      87.040  51.959  41.622  0.00  0.00    +0.085 C 
ATOM      7  C   UNL     1      87.907  52.308  40.409  0.00  0.00    -0.022 C 
ATOM      8  C   UNL     1      89.308  52.157  40.920  0.00  0.00    -0.022 C 
ATOM      9  C   UNL     1      89.153  51.195  42.090  0.00  0.00    +0.085 C 
ATOM     10  O   UNL     1      87.832  51.289  42.581  0.00  0.00    -0.368 OA
BRANCH   6  11
ATOM     11  C   UNL     1      86.390  53.196  42.288  0.00  0.00    +0.081 C 
BRANCH  11  12
ATOM     12  O   UNL     1      87.360  54.200  42.452  0.00  0.00    -0.389 OA
ATOM     13  H   UNL     1      87.455  54.696  41.625  0.00  0.00    +0.000 HD
ENDBRANCH  11  12
BRANCH  11  14
ATOM     14  C   UNL     1      85.186  53.763  41.492  0.00  0.00    -0.024 C 
BRANCH  14  15
ATOM     15  C   UNL     1      84.157  54.557  42.327  0.00  0.00    -0.048 C 
BRANCH  15  16
ATOM     16  C   UNL     1      84.398  56.080  42.420  0.00  0.00    -0.027 C 
BRANCH  16  17
ATOM     17  C   UNL     1      85.081  56.591  43.715  0.00  0.00    +0.055 C 
BRANCH  17  18
ATOM     18  O   UNL     1      84.465  57.774  44.159  0.00  0.00    -0.392 OA
ATOM     19  H   UNL     1      84.141  58.276  43.394  0.00  0.00    +0.000 HD
ENDBRANCH  17  18
BRANCH  17  20
ATOM     20  C   UNL     1      85.101  55.576  44.876  0.00  0.00    -0.027 C 
BRANCH  20  21
ATOM     21  C   UNL     1      86.332  55.733  45.788  0.00  0.00    -0.051 C 
BRANCH  21  22
ATOM     22  C   UNL     1      85.973  55.765  47.285  0.00  0.00    -0.053 C 
BRANCH  22  23
ATOM     23  C   UNL     1      84.471  55.637  47.602  0.00  0.00    -0.053 C 
BRANCH  23  25
ATOM     24  C   UNL     1      85.406  53.627  48.808  0.00  0.00    -0.065 C 
ATOM     25  C   UNL     1      84.139  54.398  48.448  0.00  0.00    -0.056 C 
ENDBRANCH  23  25
ENDBRANCH  22  23
ENDBRANCH  21  22
ENDBRANCH  20  21
ENDBRANCH  17  20
ENDBRANCH  16  17
ENDBRANCH  15  16
ENDBRANCH  14  15
ENDBRANCH  11  14
ENDBRANCH   6  11
ENDBRANCH   1   9
BRANCH   4  26
ATOM     26  C   UNL     1      89.223  46.560  42.018  0.00  0.00    +0.081 C 
BRANCH  26  27
ATOM     27  O   UNL     1      88.046  46.533  41.250  0.00  0.00    -0.389 OA
ATOM     28  H   UNL     1      87.563  47.366  41.368  0.00  0.00    +0.000 HD
ENDBRANCH  26  27
BRANCH  26  29
ATOM     29  C   UNL     1      89.350  45.257  42.840  0.00  0.00    -0.024 C 
BRANCH  29  30
ATOM     30  C   UNL     1      88.201  44.284  42.526  0.00  0.00    -0.051 C 
BRANCH  30  31
ATOM     31  C   UNL     1      87.383  43.906  43.779  0.00  0.00    -0.053 C 
BRANCH  31  32
ATOM     32  C   UNL     1      85.987  44.560  43.834  0.00  0.00    -0.053 C 
BRANCH  32  33
ATOM     33  C   UNL     1      85.293  44.739  42.472  0.00  0.00    -0.053 C 
BRANCH  33  34
ATOM     34  C   UNL     1      84.244  45.866  42.483  0.00  0.00    -0.053 C 
BRANCH  34  35
ATOM     35  C   UNL     1      83.425  45.897  43.789  0.00  0.00    -0.053 C 
BRANCH  35  36
ATOM     36  C   UNL     1      82.051  46.584  43.652  0.00  0.00    -0.053 C 
BRANCH  36  37
ATOM     37  C   UNL     1      82.100  47.948  42.936  0.00  0.00    -0.053 C 
BRANCH  37  38
ATOM     38  C   UNL     1      81.797  49.123  43.883  0.00  0.00    -0.053 C 
BRANCH  38  39
ATOM     39  C   UNL     1      82.672  50.359  43.600  0.00  0.00    -0.049 C 
BRANCH  39  40
ATOM     40  C   UNL     1      84.136  50.027  43.265  0.00  0.00    -0.021 C 
BRANCH  40  41
ATOM     41  C   UNL     1      85.063  50.218  44.432  0.00  0.00    +0.036 C 
ATOM     42  C   UNL     1      85.245  51.349  45.103  0.00  0.00    -0.034 C 
ATOM     43  C   UNL     1      86.213  51.142  46.240  0.00  0.00    +0.120 C 
ATOM     44  O   UNL     1      86.564  49.763  46.136  0.00  0.00    -0.454 OA
ATOM     45  C   UNL     1      85.879  49.211  45.071  0.00  0.00    +0.336 C 
ATOM     46  O   UNL     1      85.965  48.002  44.730  0.00  0.00    -0.245 OA
ATOM     47  C   UNL     1      87.451  52.020  46.089  0.00  0.00    -0.024 C 
ENDBRANCH  40  41
ENDBRANCH  39  40
ENDBRANCH  38  39
ENDBRANCH  37  38
ENDBRANCH  36  37
ENDBRANCH  35  36
ENDBRANCH  34  35
ENDBRANCH  33  34
ENDBRANCH  32  33
ENDBRANCH  31  32
ENDBRANCH  30  31
ENDBRANCH  29  30
ENDBRANCH  26  29
ENDBRANCH   4  26
TORSDOF 28
ENDMDL
MODEL 5
REMARK VINA RESULT:    -8.116      2.080      8.813
REMARK INTER + INTRA:         -24.914
REMARK INTER:                 -21.270
REMARK INTRA:                  -3.643
REMARK UNBOUND:                -4.224
REMARK  Name = 
REMARK  30 active torsions:
REMARK  status: ('A' for Active; 'I' for Inactive)
REMARK    1  A    between atoms: C_1  and  C_2
REMARK    2  A    between atoms: C_2  and  C_3
REMARK    3  A    between atoms: C_3  and  C_4
REMARK    4  A    between atoms: C_4  and  C_5
REMARK    5  A    between atoms: C_5  and  C_6
REMARK    6  A    between atoms: C_6  and  C_7
REMARK    7  A    between atoms: C_7  and  C_8
REMARK    8  A    between atoms: C_7  and  O_44
REMARK    9  A    between atoms: C_8  and  C_9
REMARK   10  A    between atoms: C_9  and  C_10
REMARK   11  A    between atoms: C_10  and  C_11
REMARK   12  A    between atoms: C_11  and  C_12
REMARK   13  A    between atoms: C_11  and  O_43
REMARK   14  A    between atoms: C_15  and  C_17
REMARK   15  A    between atoms: C_20  and  C_22
REMARK   16  A    between atoms: C_22  and  C_23
REMARK   17  A    between atoms: C_22  and  O_42
REMARK   18  A    between atoms: C_23  and  C_24
REMARK   19  A    between atoms: C_24  and  C_25
REMARK   20  A    between atoms: C_25  and  C_26
REMARK   21  A    between atoms: C_26  and  C_27
REMARK   22  A    between atoms: C_27  and  C_28
REMARK   23  A    between atoms: C_28  and  C_29
REMARK   24  A    between atoms: C_29  and  C_30
REMARK   25  A    between atoms: C_30  and  C_31
REMARK   26  A    between atoms: C_31  and  C_32
REMARK   27  A    between atoms: C_32  and  C_33
REMARK   28  A    between atoms: C_33  and  C_34
REMARK   29  A    between atoms: C_34  and  C_35
REMARK   30  A    between atoms: C_37  and  C_41
REMARK                            x       y       z     vdW  Elec       q    Type
REMARK                         _______ _______ _______ _____ _____    ______ ____
ROOT
ATOM      1  C   UNL     1      86.588  51.567  46.315  0.00  0.00    +0.085 C 
ATOM      2  C   UNL     1      86.635  50.036  46.340  0.00  0.00    -0.022 C 
ATOM      3  C   UNL     1      86.360  49.649  44.919  0.00  0.00    -0.022 C 
ATOM      4  C   UNL     1      86.769  50.890  44.138  0.00  0.00    +0.085 C 
ATOM      5  O   UNL     1      86.558  52.007  44.973  0.00  0.00    -0.368 OA
ENDROOT
BRANCH   1   9
ATOM      6  C   UNL     1      85.143  54.404  47.126  0.00  0.00    +0.085 C 
ATOM      7  C   UNL     1      85.928  54.009  48.379  0.00  0.00    -0.022 C 
ATOM      8  C   UNL     1      85.693  52.534  48.494  0.00  0.00    -0.022 C 
ATOM      9  C   UNL     1      85.356  52.119  47.067  0.00  0.00    +0.085 C 
ATOM     10  O   UNL     1      84.842  53.242  46.381  0.00  0.00    -0.368 OA
BRANCH   6  11
ATOM     11  C   UNL     1      83.823  55.151  47.437  0.00  0.00    +0.081 C 
BRANCH  11  12
ATOM     12  O   UNL     1      83.772  55.453  48.810  0.00  0.00    -0.389 OA
ATOM     13  H   UNL     1      83.999  56.385  48.944  0.00  0.00    +0.000 HD
ENDBRANCH  11  12
BRANCH  11  14
ATOM     14  C   UNL     1      83.642  56.453  46.614  0.00  0.00    -0.024 C 
BRANCH  14  15
ATOM     15  C   UNL     1      84.890  57.356  46.523  0.00  0.00    -0.048 C 
BRANCH  15  16
ATOM     16  C   UNL     1      84.936  58.321  45.317  0.00  0.00    -0.027 C 
BRANCH  16  17
ATOM     17  C   UNL     1      85.483  57.737  43.988  0.00  0.00    +0.055 C 
BRANCH  17  18
ATOM     18  O   UNL     1      86.137  58.737  43.248  0.00  0.00    -0.392 OA
ATOM     19  H   UNL     1      85.489  59.210  42.702  0.00  0.00    +0.000 HD
ENDBRANCH  17  18
BRANCH  17  20
ATOM     20  C   UNL     1      86.440  56.539  44.157  0.00  0.00    -0.027 C 
BRANCH  20  21
ATOM     21  C   UNL     1      85.916  55.256  43.486  0.00  0.00    -0.051 C 
BRANCH  21  22
ATOM     22  C   UNL     1      84.530  55.438  42.839  0.00  0.00    -0.053 C 
BRANCH  22  23
ATOM     23  C   UNL     1      84.510  55.370  41.301  0.00  0.00    -0.053 C 
BRANCH  23  25
ATOM     24  C   UNL     1      82.822  53.503  41.472  0.00  0.00    -0.065 C 
ATOM     25  C   UNL     1      83.204  54.788  40.742  0.00  0.00    -0.056 C 
ENDBRANCH  23  25
ENDBRANCH  22  23
ENDBRANCH  21  22
ENDBRANCH  20  21
ENDBRANCH  17  20
ENDBRANCH  16  17
ENDBRANCH  15  16
ENDBRANCH  14  15
ENDBRANCH  11  14
ENDBRANCH   6  11
ENDBRANCH   1   9
BRANCH   4  26
ATOM     26  C   UNL     1      88.253  50.847  43.679  0.00  0.00    +0.081 C 
BRANCH  26  27
ATOM     27  O   UNL     1      88.438  51.626  42.522  0.00  0.00    -0.389 OA
ATOM     28  H   UNL     1      88.059  52.507  42.662  0.00  0.00    +0.000 HD
ENDBRANCH  26  27
BRANCH  26  29
ATOM     29  C   UNL     1      88.735  49.400  43.426  0.00  0.00    -0.024 C 
BRANCH  29  30
ATOM     30  C   UNL     1      90.003  49.377  42.557  0.00  0.00    -0.051 C 
BRANCH  30  31
ATOM     31  C   UNL     1      91.134  48.531  43.178  0.00  0.00    -0.053 C 
BRANCH  31  32
ATOM     32  C   UNL     1      90.828  47.019  43.230  0.00  0.00    -0.053 C 
BRANCH  32  33
ATOM     33  C   UNL     1      90.169  46.441  41.966  0.00  0.00    -0.053 C 
BRANCH  33  34
ATOM     34  C   UNL     1      88.738  45.931  42.222  0.00  0.00    -0.053 C 
BRANCH  34  35
ATOM     35  C   UNL     1      88.716  44.510  42.818  0.00  0.00    -0.053 C 
BRANCH  35  36
ATOM     36  C   UNL     1      87.462  43.693  42.446  0.00  0.00    -0.053 C 
BRANCH  36  37
ATOM     37  C   UNL     1      86.148  44.497  42.507  0.00  0.00    -0.053 C 
BRANCH  37  38
ATOM     38  C   UNL     1      85.526  44.507  43.915  0.00  0.00    -0.053 C 
BRANCH  38  39
ATOM     39  C   UNL     1      84.940  45.880  44.299  0.00  0.00    -0.049 C 
BRANCH  39  40
ATOM     40  C   UNL     1      84.148  46.560  43.170  0.00  0.00    -0.021 C 
BRANCH  40  41
ATOM     41  C   UNL     1      82.799  47.050  43.612  0.00  0.00    +0.036 C 
ATOM     42  C   UNL     1      81.852  46.312  44.179  0.00  0.00    -0.034 C 
ATOM     43  C   UNL     1      80.656  47.161  44.530  0.00  0.00    +0.120 C 
ATOM     44  O   UNL     1      81.030  48.466  44.093  0.00  0.00    -0.454 OA
ATOM     45  C   UNL     1      82.301  48.406  43.556  0.00  0.00    +0.336 C 
ATOM     46  O   UNL     1      82.919  49.402  43.097  0.00  0.00    -0.245 OA
ATOM     47  C   UNL     1      79.402  46.692  43.798  0.00  0.00    -0.024 C 
ENDBRANCH  40  41
ENDBRANCH  39  40
ENDBRANCH  38  39
ENDBRANCH  37  38
ENDBRANCH  36  37
ENDBRANCH  35  36
ENDBRANCH  34  35
ENDBRANCH  33  34
ENDBRANCH  32  33
ENDBRANCH  31  32
ENDBRANCH  30  31
ENDBRANCH  29  30
ENDBRANCH  26  29
ENDBRANCH   4  26
TORSDOF 28
ENDMDL
MODEL 6
REMARK VINA RESULT:    -8.113      1.544      2.642
REMARK INTER + INTRA:         -24.905
REMARK INTER:                 -19.503
REMARK INTRA:                  -5.402
REMARK UNBOUND:                -4.224
REMARK  Name = 
REMARK  30 active torsions:
REMARK  status: ('A' for Active; 'I' for Inactive)
REMARK    1  A    between atoms: C_1  and  C_2
REMARK    2  A    between atoms: C_2  and  C_3
REMARK    3  A    between atoms: C_3  and  C_4
REMARK    4  A    between atoms: C_4  and  C_5
REMARK    5  A    between atoms: C_5  and  C_6
REMARK    6  A    between atoms: C_6  and  C_7
REMARK    7  A    between atoms: C_7  and  C_8
REMARK    8  A    between atoms: C_7  and  O_44
REMARK    9  A    between atoms: C_8  and  C_9
REMARK   10  A    between atoms: C_9  and  C_10
REMARK   11  A    between atoms: C_10  and  C_11
REMARK   12  A    between atoms: C_11  and  C_12
REMARK   13  A    between atoms: C_11  and  O_43
REMARK   14  A    between atoms: C_15  and  C_17
REMARK   15  A    between atoms: C_20  and  C_22
REMARK   16  A    between atoms: C_22  and  C_23
REMARK   17  A    between atoms: C_22  and  O_42
REMARK   18  A    between atoms: C_23  and  C_24
REMARK   19  A    between atoms: C_24  and  C_25
REMARK   20  A    between atoms: C_25  and  C_26
REMARK   21  A    between atoms: C_26  and  C_27
REMARK   22  A    between atoms: C_27  and  C_28
REMARK   23  A    between atoms: C_28  and  C_29
REMARK   24  A    between atoms: C_29  and  C_30
REMARK   25  A    between atoms: C_30  and  C_31
REMARK   26  A    between atoms: C_31  and  C_32
REMARK   27  A    between atoms: C_32  and  C_33
REMARK   28  A    between atoms: C_33  and  C_34
REMARK   29  A    between atoms: C_34  and  C_35
REMARK   30  A    between atoms: C_37  and  C_41
REMARK                            x       y       z     vdW  Elec       q    Type
REMARK                         _______ _______ _______ _____ _____    ______ ____
ROOT
ATOM      1  C   UNL     1      86.714  52.065  40.704  0.00  0.00    +0.085 C 
ATOM      2  C   UNL     1      86.120  52.347  42.087  0.00  0.00    -0.022 C 
ATOM      3  C   UNL     1      85.776  53.804  42.036  0.00  0.00    -0.022 C 
ATOM      4  C   UNL     1      85.628  54.071  40.545  0.00  0.00    +0.085 C 
ATOM      5  O   UNL     1      86.482  53.178  39.865  0.00  0.00    -0.368 OA
ENDROOT
BRANCH   1   9
ATOM      6  C   UNL     1      88.837  49.711  41.569  0.00  0.00    +0.085 C 
ATOM      7  C   UNL     1      88.799  50.648  42.779  0.00  0.00    -0.022 C 
ATOM      8  C   UNL     1      88.797  52.016  42.167  0.00  0.00    -0.022 C 
ATOM      9  C   UNL     1      88.231  51.778  40.774  0.00  0.00    +0.085 C 
ATOM     10  O   UNL     1      88.479  50.436  40.410  0.00  0.00    -0.368 OA
BRANCH   6  11
ATOM     11  C   UNL     1      90.222  49.058  41.340  0.00  0.00    +0.081 C 
BRANCH  11  12
ATOM     12  O   UNL     1      91.136  49.563  42.281  0.00  0.00    -0.389 OA
ATOM     13  H   UNL     1      91.981  49.749  41.844  0.00  0.00    +0.000 HD
ENDBRANCH  11  12
BRANCH  11  14
ATOM     14  C   UNL     1      90.195  47.510  41.424  0.00  0.00    -0.024 C 
BRANCH  14  15
ATOM     15  C   UNL     1      89.028  46.912  42.238  0.00  0.00    -0.048 C 
BRANCH  15  16
ATOM     16  C   UNL     1      89.092  45.388  42.486  0.00  0.00    -0.027 C 
BRANCH  16  17
ATOM     17  C   UNL     1      87.739  44.630  42.465  0.00  0.00    +0.055 C 
BRANCH  17  18
ATOM     18  O   UNL     1      87.712  43.650  43.472  0.00  0.00    -0.392 OA
ATOM     19  H   UNL     1      87.323  44.025  44.277  0.00  0.00    +0.000 HD
ENDBRANCH  17  18
BRANCH  17  20
ATOM     20  C   UNL     1      86.494  45.529  42.612  0.00  0.00    -0.027 C 
BRANCH  20  21
ATOM     21  C   UNL     1      85.809  45.381  43.983  0.00  0.00    -0.051 C 
BRANCH  21  22
ATOM     22  C   UNL     1      84.272  45.430  43.896  0.00  0.00    -0.053 C 
BRANCH  22  23
ATOM     23  C   UNL     1      83.708  46.083  42.620  0.00  0.00    -0.053 C 
BRANCH  23  25
ATOM     24  C   UNL     1      81.769  46.463  44.189  0.00  0.00    -0.065 C 
ATOM     25  C   UNL     1      82.418  46.879  42.873  0.00  0.00    -0.056 C 
ENDBRANCH  23  25
ENDBRANCH  22  23
ENDBRANCH  21  22
ENDBRANCH  20  21
ENDBRANCH  17  20
ENDBRANCH  16  17
ENDBRANCH  15  16
ENDBRANCH  14  15
ENDBRANCH  11  14
ENDBRANCH   6  11
ENDBRANCH   1   9
BRANCH   4  26
ATOM     26  C   UNL     1      84.168  53.888  40.046  0.00  0.00    +0.081 C 
BRANCH  26  27
ATOM     27  O   UNL     1      84.040  54.319  38.713  0.00  0.00    -0.389 OA
ATOM     28  H   UNL     1      83.873  53.555  38.141  0.00  0.00    +0.000 HD
ENDBRANCH  26  27
BRANCH  26  29
ATOM     29  C   UNL     1      83.155  54.635  40.943  0.00  0.00    -0.024 C 
BRANCH  29  30
ATOM     30  C   UNL     1      81.957  53.740  41.299  0.00  0.00    -0.051 C 
BRANCH  30  31
ATOM     31  C   UNL     1      82.315  52.239  41.301  0.00  0.00    -0.053 C 
BRANCH  31  32
ATOM     32  C   UNL     1      81.350  51.366  42.129  0.00  0.00    -0.053 C 
BRANCH  32  33
ATOM     33  C   UNL     1      82.026  50.362  43.078  0.00  0.00    -0.053 C 
BRANCH  33  34
ATOM     34  C   UNL     1      83.492  50.725  43.382  0.00  0.00    -0.053 C 
BRANCH  34  35
ATOM     35  C   UNL     1      84.175  49.696  44.305  0.00  0.00    -0.053 C 
BRANCH  35  36
ATOM     36  C   UNL     1      85.503  49.141  43.753  0.00  0.00    -0.053 C 
BRANCH  36  37
ATOM     37  C   UNL     1      86.565  48.860  44.834  0.00  0.00    -0.053 C 
BRANCH  37  38
ATOM     38  C   UNL     1      86.350  49.702  46.105  0.00  0.00    -0.053 C 
BRANCH  38  39
ATOM     39  C   UNL     1      87.415  50.802  46.279  0.00  0.00    -0.049 C 
BRANCH  39  40
ATOM     40  C   UNL     1      87.054  52.136  45.603  0.00  0.00    -0.021 C 
BRANCH  40  41
ATOM     41  C   UNL     1      86.453  53.132  46.553  0.00  0.00    +0.036 C 
ATOM     42  C   UNL     1      85.938  52.855  47.746  0.00  0.00    -0.034 C 
ATOM     43  C   UNL     1      85.478  54.117  48.431  0.00  0.00    +0.120 C 
ATOM     44  O   UNL     1      85.787  55.143  47.489  0.00  0.00    -0.454 OA
ATOM     45  C   UNL     1      86.372  54.564  46.380  0.00  0.00    +0.336 C 
ATOM     46  O   UNL     1      86.774  55.212  45.378  0.00  0.00    -0.245 OA
ATOM     47  C   UNL     1      83.979  54.087  48.713  0.00  0.00    -0.024 C 
ENDBRANCH  40  41
ENDBRANCH  39  40
ENDBRANCH  38  39
ENDBRANCH  37  38
ENDBRANCH  36  37
ENDBRANCH  35  36
ENDBRANCH  34  35
ENDBRANCH  33  34
ENDBRANCH  32  33
ENDBRANCH  31  32
ENDBRANCH  30  31
ENDBRANCH  29  30
ENDBRANCH  26  29
ENDBRANCH   4  26
TORSDOF 28
ENDMDL
MODEL 7
REMARK VINA RESULT:    -8.082      2.245      7.098
REMARK INTER + INTRA:         -24.826
REMARK INTER:                 -20.585
REMARK INTRA:                  -4.240
REMARK UNBOUND:                -4.224
REMARK  Name = 
REMARK  30 active torsions:
REMARK  status: ('A' for Active; 'I' for Inactive)
REMARK    1  A    between atoms: C_1  and  C_2
REMARK    2  A    between atoms: C_2  and  C_3
REMARK    3  A    between atoms: C_3  and  C_4
REMARK    4  A    between atoms: C_4  and  C_5
REMARK    5  A    between atoms: C_5  and  C_6
REMARK    6  A    between atoms: C_6  and  C_7
REMARK    7  A    between atoms: C_7  and  C_8
REMARK    8  A    between atoms: C_7  and  O_44
REMARK    9  A    between atoms: C_8  and  C_9
REMARK   10  A    between atoms: C_9  and  C_10
REMARK   11  A    between atoms: C_10  and  C_11
REMARK   12  A    between atoms: C_11  and  C_12
REMARK   13  A    between atoms: C_11  and  O_43
REMARK   14  A    between atoms: C_15  and  C_17
REMARK   15  A    between atoms: C_20  and  C_22
REMARK   16  A    between atoms: C_22  and  C_23
REMARK   17  A    between atoms: C_22  and  O_42
REMARK   18  A    between atoms: C_23  and  C_24
REMARK   19  A    between atoms: C_24  and  C_25
REMARK   20  A    between atoms: C_25  and  C_26
REMARK   21  A    between atoms: C_26  and  C_27
REMARK   22  A    between atoms: C_27  and  C_28
REMARK   23  A    between atoms: C_28  and  C_29
REMARK   24  A    between atoms: C_29  and  C_30
REMARK   25  A    between atoms: C_30  and  C_31
REMARK   26  A    between atoms: C_31  and  C_32
REMARK   27  A    between atoms: C_32  and  C_33
REMARK   28  A    between atoms: C_33  and  C_34
REMARK   29  A    between atoms: C_34  and  C_35
REMARK   30  A    between atoms: C_37  and  C_41
REMARK                            x       y       z     vdW  Elec       q    Type
REMARK                         _______ _______ _______ _____ _____    ______ ____
ROOT
ATOM      1  C   UNL     1      86.855  53.056  46.199  0.00  0.00    +0.085 C 
ATOM      2  C   UNL     1      85.873  53.586  45.150  0.00  0.00    -0.022 C 
ATOM      3  C   UNL     1      84.537  53.457  45.816  0.00  0.00    -0.022 C 
ATOM      4  C   UNL     1      84.890  53.456  47.297  0.00  0.00    +0.085 C 
ATOM      5  O   UNL     1      86.177  52.896  47.428  0.00  0.00    -0.368 OA
ENDROOT
BRANCH   1   9
ATOM      6  C   UNL     1      86.016  49.981  45.401  0.00  0.00    +0.085 C 
ATOM      7  C   UNL     1      86.428  49.890  46.872  0.00  0.00    -0.022 C 
ATOM      8  C   UNL     1      87.648  50.757  46.952  0.00  0.00    -0.022 C 
ATOM      9  C   UNL     1      87.481  51.708  45.775  0.00  0.00    +0.085 C 
ATOM     10  O   UNL     1      86.663  51.086  44.805  0.00  0.00    -0.368 OA
BRANCH   6  11
ATOM     11  C   UNL     1      86.355  48.708  44.587  0.00  0.00    +0.081 C 
BRANCH  11  12
ATOM     12  O   UNL     1      85.273  47.812  44.652  0.00  0.00    -0.389 OA
ATOM     13  H   UNL     1      85.239  47.286  43.839  0.00  0.00    +0.000 HD
ENDBRANCH  11  12
BRANCH  11  14
ATOM     14  C   UNL     1      86.698  48.997  43.103  0.00  0.00    -0.024 C 
BRANCH  14  15
ATOM     15  C   UNL     1      87.095  47.763  42.264  0.00  0.00    -0.048 C 
BRANCH  15  16
ATOM     16  C   UNL     1      88.464  47.846  41.553  0.00  0.00    -0.027 C 
BRANCH  16  17
ATOM     17  C   UNL     1      89.695  48.116  42.457  0.00  0.00    +0.055 C 
BRANCH  17  18
ATOM     18  O   UNL     1      90.552  47.003  42.461  0.00  0.00    -0.392 OA
ATOM     19  H   UNL     1      90.033  46.195  42.600  0.00  0.00    +0.000 HD
ENDBRANCH  17  18
BRANCH  17  20
ATOM     20  C   UNL     1      90.509  49.370  42.078  0.00  0.00    -0.027 C 
BRANCH  20  21
ATOM     21  C   UNL     1      89.716  50.355  41.200  0.00  0.00    -0.051 C 
BRANCH  21  22
ATOM     22  C   UNL     1      89.132  51.536  41.998  0.00  0.00    -0.053 C 
BRANCH  22  23
ATOM     23  C   UNL     1      89.097  52.881  41.248  0.00  0.00    -0.053 C 
BRANCH  23  25
ATOM     24  C   UNL     1      90.811  53.941  39.730  0.00  0.00    -0.065 C 
ATOM     25  C   UNL     1      89.784  52.822  39.876  0.00  0.00    -0.056 C 
ENDBRANCH  23  25
ENDBRANCH  22  23
ENDBRANCH  21  22
ENDBRANCH  20  21
ENDBRANCH  17  20
ENDBRANCH  16  17
ENDBRANCH  15  16
ENDBRANCH  14  15
ENDBRANCH  11  14
ENDBRANCH   6  11
ENDBRANCH   1   9
BRANCH   4  26
ATOM     26  C   UNL     1      84.867  54.880  47.919  0.00  0.00    +0.081 C 
BRANCH  26  27
ATOM     27  O   UNL     1      84.068  54.903  49.077  0.00  0.00    -0.389 OA
ATOM     28  H   UNL     1      84.575  55.282  49.811  0.00  0.00    +0.000 HD
ENDBRANCH  26  27
BRANCH  26  29
ATOM     29  C   UNL     1      84.370  55.940  46.911  0.00  0.00    -0.024 C 
BRANCH  29  30
ATOM     30  C   UNL     1      85.516  56.854  46.449  0.00  0.00    -0.051 C 
BRANCH  30  31
ATOM     31  C   UNL     1      85.064  57.893  45.401  0.00  0.00    -0.053 C 
BRANCH  31  32
ATOM     32  C   UNL     1      85.262  57.436  43.941  0.00  0.00    -0.053 C 
BRANCH  32  33
ATOM     33  C   UNL     1      84.135  56.557  43.372  0.00  0.00    -0.053 C 
BRANCH  33  34
ATOM     34  C   UNL     1      84.599  55.689  42.187  0.00  0.00    -0.053 C 
BRANCH  34  35
ATOM     35  C   UNL     1      83.725  54.433  41.998  0.00  0.00    -0.053 C 
BRANCH  35  36
ATOM     36  C   UNL     1      84.321  53.395  41.026  0.00  0.00    -0.053 C 
BRANCH  36  37
ATOM     37  C   UNL     1      84.561  52.008  41.657  0.00  0.00    -0.053 C 
BRANCH  37  38
ATOM     38  C   UNL     1      83.776  51.812  42.967  0.00  0.00    -0.053 C 
BRANCH  38  39
ATOM     39  C   UNL     1      83.115  50.423  43.064  0.00  0.00    -0.049 C 
BRANCH  39  40
ATOM     40  C   UNL     1      81.597  50.434  42.817  0.00  0.00    -0.021 C 
BRANCH  40  41
ATOM     41  C   UNL     1      80.874  49.347  43.560  0.00  0.00    +0.036 C 
ATOM     42  C   UNL     1      81.398  48.191  43.949  0.00  0.00    -0.034 C 
ATOM     43  C   UNL     1      80.382  47.378  44.712  0.00  0.00    +0.120 C 
ATOM     44  O   UNL     1      79.218  48.204  44.708  0.00  0.00    -0.454 OA
ATOM     45  C   UNL     1      79.508  49.374  44.034  0.00  0.00    +0.336 C 
ATOM     46  O   UNL     1      78.688  50.315  43.873  0.00  0.00    -0.245 OA
ATOM     47  C   UNL     1      80.095  46.049  44.021  0.00  0.00    -0.024 C 
ENDBRANCH  40  41
ENDBRANCH  39  40
ENDBRANCH  38  39
ENDBRANCH  37  38
ENDBRANCH  36  37
ENDBRANCH  35  36
ENDBRANCH  34  35
ENDBRANCH  33  34
ENDBRANCH  32  33
ENDBRANCH  31  32
ENDBRANCH  30  31
ENDBRANCH  29  30
ENDBRANCH  26  29
ENDBRANCH   4  26
TORSDOF 28
ENDMDL
MODEL 8
REMARK VINA RESULT:    -8.012      1.977      8.190
REMARK INTER + INTRA:         -24.647
REMARK INTER:                 -20.099
REMARK INTRA:                  -4.548
REMARK UNBOUND:                -4.224
REMARK  Name = 
REMARK  30 active torsions:
REMARK  status: ('A' for Active; 'I' for Inactive)
REMARK    1  A    between atoms: C_1  and  C_2
REMARK    2  A    between atoms: C_2  and  C_3
REMARK    3  A    between atoms: C_3  and  C_4
REMARK    4  A    between atoms: C_4  and  C_5
REMARK    5  A    between atoms: C_5  and  C_6
REMARK    6  A    between atoms: C_6  and  C_7
REMARK    7  A    between atoms: C_7  and  C_8
REMARK    8  A    between atoms: C_7  and  O_44
REMARK    9  A    between atoms: C_8  and  C_9
REMARK   10  A    between atoms: C_9  and  C_10
REMARK   11  A    between atoms: C_10  and  C_11
REMARK   12  A    between atoms: C_11  and  C_12
REMARK   13  A    between atoms: C_11  and  O_43
REMARK   14  A    between atoms: C_15  and  C_17
REMARK   15  A    between atoms: C_20  and  C_22
REMARK   16  A    between atoms: C_22  and  C_23
REMARK   17  A    between atoms: C_22  and  O_42
REMARK   18  A    between atoms: C_23  and  C_24
REMARK   19  A    between atoms: C_24  and  C_25
REMARK   20  A    between atoms: C_25  and  C_26
REMARK   21  A    between atoms: C_26  and  C_27
REMARK   22  A    between atoms: C_27  and  C_28
REMARK   23  A    between atoms: C_28  and  C_29
REMARK   24  A    between atoms: C_29  and  C_30
REMARK   25  A    between atoms: C_30  and  C_31
REMARK   26  A    between atoms: C_31  and  C_32
REMARK   27  A    between atoms: C_32  and  C_33
REMARK   28  A    between atoms: C_33  and  C_34
REMARK   29  A    between atoms: C_34  and  C_35
REMARK   30  A    between atoms: C_37  and  C_41
REMARK                            x       y       z     vdW  Elec       q    Type
REMARK                         _______ _______ _______ _____ _____    ______ ____
ROOT
ATOM      1  C   UNL     1      85.937  53.474  46.915  0.00  0.00    +0.085 C 
ATOM      2  C   UNL     1      86.060  53.341  48.436  0.00  0.00    -0.022 C 
ATOM      3  C   UNL     1      85.474  51.992  48.723  0.00  0.00    -0.022 C 
ATOM      4  C   UNL     1      85.628  51.260  47.397  0.00  0.00    +0.085 C 
ATOM      5  O   UNL     1      85.569  52.224  46.369  0.00  0.00    -0.368 OA
ENDROOT
BRANCH   1   9
ATOM      6  C   UNL     1      85.611  56.154  45.043  0.00  0.00    +0.085 C 
ATOM      7  C   UNL     1      85.862  56.705  46.449  0.00  0.00    -0.022 C 
ATOM      8  C   UNL     1      85.035  55.819  47.329  0.00  0.00    -0.022 C 
ATOM      9  C   UNL     1      84.895  54.542  46.511  0.00  0.00    +0.085 C 
ATOM     10  O   UNL     1      85.047  54.863  45.144  0.00  0.00    -0.368 OA
BRANCH   6  11
ATOM     11  C   UNL     1      84.669  57.043  44.194  0.00  0.00    +0.081 C 
BRANCH  11  12
ATOM     12  O   UNL     1      85.410  58.094  43.624  0.00  0.00    -0.389 OA
ATOM     13  H   UNL     1      85.855  57.778  42.823  0.00  0.00    +0.000 HD
ENDBRANCH  11  12
BRANCH  11  14
ATOM     14  C   UNL     1      83.929  56.265  43.075  0.00  0.00    -0.024 C 
BRANCH  14  15
ATOM     15  C   UNL     1      84.827  55.728  41.939  0.00  0.00    -0.048 C 
BRANCH  15  16
ATOM     16  C   UNL     1      84.088  55.055  40.761  0.00  0.00    -0.027 C 
BRANCH  16  17
ATOM     17  C   UNL     1      84.850  53.919  40.030  0.00  0.00    +0.055 C 
BRANCH  17  18
ATOM     18  O   UNL     1      85.374  54.386  38.812  0.00  0.00    -0.392 OA
ATOM     19  H   UNL     1      85.488  55.348  38.857  0.00  0.00    +0.000 HD
ENDBRANCH  17  18
BRANCH  17  20
ATOM     20  C   UNL     1      85.991  53.278  40.848  0.00  0.00    -0.027 C 
BRANCH  20  21
ATOM     21  C   UNL     1      85.576  51.956  41.519  0.00  0.00    -0.051 C 
BRANCH  21  22
ATOM     22  C   UNL     1      85.105  52.141  42.974  0.00  0.00    -0.053 C 
BRANCH  22  23
ATOM     23  C   UNL     1      83.583  52.294  43.156  0.00  0.00    -0.053 C 
BRANCH  23  25
ATOM     24  C   UNL     1      81.527  52.520  41.712  0.00  0.00    -0.065 C 
ATOM     25  C   UNL     1      82.775  51.691  41.997  0.00  0.00    -0.056 C 
ENDBRANCH  23  25
ENDBRANCH  22  23
ENDBRANCH  21  22
ENDBRANCH  20  21
ENDBRANCH  17  20
ENDBRANCH  16  17
ENDBRANCH  15  16
ENDBRANCH  14  15
ENDBRANCH  11  14
ENDBRANCH   6  11
ENDBRANCH   1   9
BRANCH   4  26
ATOM     26  C   UNL     1      86.960  50.467  47.302  0.00  0.00    +0.081 C 
BRANCH  26  27
ATOM     27  O   UNL     1      87.695  50.584  48.495  0.00  0.00    -0.389 OA
ATOM     28  H   UNL     1      87.086  50.598  49.249  0.00  0.00    +0.000 HD
ENDBRANCH  26  27
BRANCH  26  29
ATOM     29  C   UNL     1      87.820  50.927  46.103  0.00  0.00    -0.024 C 
BRANCH  29  30
ATOM     30  C   UNL     1      87.861  49.857  45.000  0.00  0.00    -0.051 C 
BRANCH  30  31
ATOM     31  C   UNL     1      88.316  50.423  43.638  0.00  0.00    -0.053 C 
BRANCH  31  32
ATOM     32  C   UNL     1      88.417  49.363  42.522  0.00  0.00    -0.053 C 
BRANCH  32  33
ATOM     33  C   UNL     1      89.644  48.439  42.607  0.00  0.00    -0.053 C 
BRANCH  33  34
ATOM     34  C   UNL     1      89.404  47.070  41.943  0.00  0.00    -0.053 C 
BRANCH  34  35
ATOM     35  C   UNL     1      87.969  46.551  42.161  0.00  0.00    -0.053 C 
BRANCH  35  36
ATOM     36  C   UNL     1      87.843  45.015  42.116  0.00  0.00    -0.053 C 
BRANCH  36  37
ATOM     37  C   UNL     1      87.108  44.409  43.328  0.00  0.00    -0.053 C 
BRANCH  37  38
ATOM     38  C   UNL     1      85.620  44.139  43.042  0.00  0.00    -0.053 C 
BRANCH  38  39
ATOM     39  C   UNL     1      84.693  45.221  43.628  0.00  0.00    -0.049 C 
BRANCH  39  40
ATOM     40  C   UNL     1      84.012  46.103  42.569  0.00  0.00    -0.021 C 
BRANCH  40  41
ATOM     41  C   UNL     1      83.161  47.187  43.166  0.00  0.00    +0.036 C 
ATOM     42  C   UNL     1      81.851  47.122  43.372  0.00  0.00    -0.034 C 
ATOM     43  C   UNL     1      81.355  48.382  44.035  0.00  0.00    +0.120 C 
ATOM     44  O   UNL     1      82.533  49.173  44.180  0.00  0.00    -0.454 OA
ATOM     45  C   UNL     1      83.606  48.465  43.674  0.00  0.00    +0.336 C 
ATOM     46  O   UNL     1      84.791  48.890  43.671  0.00  0.00    -0.245 OA
ATOM     47  C   UNL     1      80.330  49.106  43.168  0.00  0.00    -0.024 C 
ENDBRANCH  40  41
ENDBRANCH  39  40
ENDBRANCH  38  39
ENDBRANCH  37  38
ENDBRANCH  36  37
ENDBRANCH  35  36
ENDBRANCH  34  35
ENDBRANCH  33  34
ENDBRANCH  32  33
ENDBRANCH  31  32
ENDBRANCH  30  31
ENDBRANCH  29  30
ENDBRANCH  26  29
ENDBRANCH   4  26
TORSDOF 28
ENDMDL
MODEL 9
REMARK VINA RESULT:    -7.919      2.080      7.629
REMARK INTER + INTRA:         -24.411
REMARK INTER:                 -20.187
REMARK INTRA:                  -4.224
REMARK UNBOUND:                -4.224
REMARK  Name = 
REMARK  30 active torsions:
REMARK  status: ('A' for Active; 'I' for Inactive)
REMARK    1  A    between atoms: C_1  and  C_2
REMARK    2  A    between atoms: C_2  and  C_3
REMARK    3  A    between atoms: C_3  and  C_4
REMARK    4  A    between atoms: C_4  and  C_5
REMARK    5  A    between atoms: C_5  and  C_6
REMARK    6  A    between atoms: C_6  and  C_7
REMARK    7  A    between atoms: C_7  and  C_8
REMARK    8  A    between atoms: C_7  and  O_44
REMARK    9  A    between atoms: C_8  and  C_9
REMARK   10  A    between atoms: C_9  and  C_10
REMARK   11  A    between atoms: C_10  and  C_11
REMARK   12  A    between atoms: C_11  and  C_12
REMARK   13  A    between atoms: C_11  and  O_43
REMARK   14  A    between atoms: C_15  and  C_17
REMARK   15  A    between atoms: C_20  and  C_22
REMARK   16  A    between atoms: C_22  and  C_23
REMARK   17  A    between atoms: C_22  and  O_42
REMARK   18  A    between atoms: C_23  and  C_24
REMARK   19  A    between atoms: C_24  and  C_25
REMARK   20  A    between atoms: C_25  and  C_26
REMARK   21  A    between atoms: C_26  and  C_27
REMARK   22  A    between atoms: C_27  and  C_28
REMARK   23  A    between atoms: C_28  and  C_29
REMARK   24  A    between atoms: C_29  and  C_30
REMARK   25  A    between atoms: C_30  and  C_31
REMARK   26  A    between atoms: C_31  and  C_32
REMARK   27  A    between atoms: C_32  and  C_33
REMARK   28  A    between atoms: C_33  and  C_34
REMARK   29  A    between atoms: C_34  and  C_35
REMARK   30  A    between atoms: C_37  and  C_41
REMARK                            x       y       z     vdW  Elec       q    Type
REMARK                         _______ _______ _______ _____ _____    ______ ____
ROOT
ATOM      1  C   UNL     1      84.847  55.953  45.779  0.00  0.00    +0.085 C 
ATOM      2  C   UNL     1      85.495  57.310  45.490  0.00  0.00    -0.022 C 
ATOM      3  C   UNL     1      86.287  57.066  44.241  0.00  0.00    -0.022 C 
ATOM      4  C   UNL     1      85.586  55.868  43.617  0.00  0.00    +0.085 C 
ATOM      5  O   UNL     1      85.033  55.104  44.666  0.00  0.00    -0.368 OA
ENDROOT
BRANCH   1   9
ATOM      6  C   UNL     1      85.160  53.016  47.218  0.00  0.00    +0.085 C 
ATOM      7  C   UNL     1      83.963  53.657  47.926  0.00  0.00    -0.022 C 
ATOM      8  C   UNL     1      84.391  55.079  48.127  0.00  0.00    -0.022 C 
ATOM      9  C   UNL     1      85.439  55.287  47.042  0.00  0.00    +0.085 C 
ATOM     10  O   UNL     1      85.994  54.033  46.704  0.00  0.00    -0.368 OA
BRANCH   6  11
ATOM     11  C   UNL     1      86.001  52.100  48.141  0.00  0.00    +0.081 C 
BRANCH  11  12
ATOM     12  O   UNL     1      85.241  51.755  49.272  0.00  0.00    -0.389 OA
ATOM     13  H   UNL     1      84.306  51.684  49.025  0.00  0.00    +0.000 HD
ENDBRANCH  11  12
BRANCH  11  14
ATOM     14  C   UNL     1      86.501  50.811  47.440  0.00  0.00    -0.024 C 
BRANCH  14  15
ATOM     15  C   UNL     1      87.756  50.984  46.556  0.00  0.00    -0.048 C 
BRANCH  15  16
ATOM     16  C   UNL     1      87.636  50.458  45.108  0.00  0.00    -0.027 C 
BRANCH  16  17
ATOM     17  C   UNL     1      86.756  51.294  44.142  0.00  0.00    +0.055 C 
BRANCH  17  18
ATOM     18  O   UNL     1      86.938  52.667  44.380  0.00  0.00    -0.392 OA
ATOM     19  H   UNL     1      86.840  53.155  43.548  0.00  0.00    +0.000 HD
ENDBRANCH  17  18
BRANCH  17  20
ATOM     20  C   UNL     1      86.997  51.012  42.645  0.00  0.00    -0.027 C 
BRANCH  20  21
ATOM     21  C   UNL     1      88.150  50.021  42.401  0.00  0.00    -0.051 C 
BRANCH  21  22
ATOM     22  C   UNL     1      89.012  50.390  41.179  0.00  0.00    -0.053 C 
BRANCH  22  23
ATOM     23  C   UNL     1      89.953  51.592  41.380  0.00  0.00    -0.053 C 
BRANCH  23  25
ATOM     24  C   UNL     1      88.542  52.391  39.447  0.00  0.00    -0.065 C 
ATOM     25  C   UNL     1      89.734  52.707  40.346  0.00  0.00    -0.056 C 
ENDBRANCH  23  25
ENDBRANCH  22  23
ENDBRANCH  21  22
ENDBRANCH  20  21
ENDBRANCH  17  20
ENDBRANCH  16  17
ENDBRANCH  15  16
ENDBRANCH  14  15
ENDBRANCH  11  14
ENDBRANCH   6  11
ENDBRANCH   1   9
BRANCH   4  26
ATOM     26  C   UNL     1      84.469  56.281  42.619  0.00  0.00    +0.081 C 
BRANCH  26  27
ATOM     27  O   UNL     1      83.204  56.206  43.229  0.00  0.00    -0.389 OA
ATOM     28  H   UNL     1      82.570  55.811  42.611  0.00  0.00    +0.000 HD
ENDBRANCH  26  27
BRANCH  26  29
ATOM     29  C   UNL     1      84.492  55.414  41.339  0.00  0.00    -0.024 C 
BRANCH  29  30
ATOM     30  C   UNL     1      83.369  54.365  41.354  0.00  0.00    -0.051 C 
BRANCH  30  31
ATOM     31  C   UNL     1      83.902  52.925  41.510  0.00  0.00    -0.053 C 
BRANCH  31  32
ATOM     32  C   UNL     1      83.137  52.085  42.554  0.00  0.00    -0.053 C 
BRANCH  32  33
ATOM     33  C   UNL     1      81.804  51.493  42.068  0.00  0.00    -0.053 C 
BRANCH  33  34
ATOM     34  C   UNL     1      81.373  50.255  42.877  0.00  0.00    -0.053 C 
BRANCH  34  35
ATOM     35  C   UNL     1      79.844  50.059  42.886  0.00  0.00    -0.053 C 
BRANCH  35  36
ATOM     36  C   UNL     1      79.319  49.278  44.108  0.00  0.00    -0.053 C 
BRANCH  36  37
ATOM     37  C   UNL     1      80.406  48.489  44.864  0.00  0.00    -0.053 C 
BRANCH  37  38
ATOM     38  C   UNL     1      80.315  46.973  44.616  0.00  0.00    -0.053 C 
BRANCH  38  39
ATOM     39  C   UNL     1      81.683  46.337  44.298  0.00  0.00    -0.049 C 
BRANCH  39  40
ATOM     40  C   UNL     1      82.322  46.846  42.995  0.00  0.00    -0.021 C 
BRANCH  40  41
ATOM     41  C   UNL     1      83.819  46.728  42.990  0.00  0.00    +0.036 C 
ATOM     42  C   UNL     1      84.520  45.764  42.405  0.00  0.00    -0.034 C 
ATOM     43  C   UNL     1      85.999  46.009  42.571  0.00  0.00    +0.120 C 
ATOM     44  O   UNL     1      86.058  47.221  43.321  0.00  0.00    -0.454 OA
ATOM     45  C   UNL     1      84.769  47.654  43.564  0.00  0.00    +0.336 C 
ATOM     46  O   UNL     1      84.488  48.708  44.192  0.00  0.00    -0.245 OA
ATOM     47  C   UNL     1      86.672  44.874  43.337  0.00  0.00    -0.024 C 
ENDBRANCH  40  41
ENDBRANCH  39  40
ENDBRANCH  38  39
ENDBRANCH  37  38
ENDBRANCH  36  37
ENDBRANCH  35  36
ENDBRANCH  34  35
ENDBRANCH  33  34
ENDBRANCH  32  33
ENDBRANCH  31  32
ENDBRANCH  30  31
ENDBRANCH  29  30
ENDBRANCH  26  29
ENDBRANCH   4  26
TORSDOF 28
ENDMDL
