MODEL 1
REMARK VINA RESULT:    -9.010      0.000      0.000
REMARK INTER + INTRA:         -11.237
REMARK INTER:                 -11.066
REMARK INTRA:                  -0.171
REMARK UNBOUND:                -0.120
REMARK  Name = 
REMARK  7 active torsions:
REMARK  status: ('A' for Active; 'I' for Inactive)
REMARK    1  A    between atoms: C_1  and  O_2
REMARK    2  A    between atoms: O_2  and  C_3
REMARK    3  A    between atoms: C_6  and  C_7
REMARK    4  A    between atoms: C_24  and  O_28
REMARK    5  A    between atoms: C_25  and  O_26
REMARK    6  A    between atoms: O_26  and  C_27
REMARK    7  A    between atoms: O_28  and  C_29
REMARK                            x       y       z     vdW  Elec       q    Type
REMARK                         _______ _______ _______ _____ _____    ______ ____
ROOT
ATOM      1  C   UNL     1      83.162  50.201  44.083  0.00  0.00    +0.165 A 
ATOM      2  C   UNL     1      84.072  51.270  44.132  0.00  0.00    -0.012 A 
ATOM      3  C   UNL     1      85.440  51.047  44.330  0.00  0.00    -0.029 A 
ATOM      4  C   UNL     1      86.473  52.166  44.416  0.00  0.00    +0.023 C 
ATOM      5  C   UNL     1      87.174  52.056  45.801  0.00  0.00    +0.073 C 
ATOM      6  C   UNL     1      86.234  52.158  46.959  0.00  0.00    +0.312 C 
ATOM      7  O   UNL     1      85.384  53.073  47.119  0.00  0.00    -0.250 OA
ATOM      8  O   UNL     1      86.369  51.124  47.854  0.00  0.00    -0.464 OA
ATOM      9  C   UNL     1      87.386  50.224  47.465  0.00  0.00    +0.096 C 
ATOM     10  C   UNL     1      87.799  50.640  46.030  0.00  0.00    +0.011 C 
ATOM     11  C   UNL     1      87.351  49.575  44.986  0.00  0.00    -0.017 C 
ATOM     12  C   UNL     1      85.891  49.746  44.607  0.00  0.00    +0.002 A 
ATOM     13  C   UNL     1      85.005  48.651  44.556  0.00  0.00    +0.169 A 
ATOM     14  C   UNL     1      83.628  48.873  44.271  0.00  0.00    +0.204 A 
ENDROOT
BRANCH   4  15
ATOM     15  C   UNL     1      86.002  53.555  43.975  0.00  0.00    -0.035 A 
ATOM     16  C   UNL     1      84.905  53.762  43.088  0.00  0.00    -0.054 A 
ATOM     17  C   UNL     1      84.481  55.061  42.754  0.00  0.00    -0.016 A 
ATOM     18  C   UNL     1      85.141  56.132  43.342  0.00  0.00    +0.166 A 
ATOM     19  C   UNL     1      86.154  55.953  44.221  0.00  0.00    +0.167 A 
ATOM     20  C   UNL     1      86.605  54.688  44.579  0.00  0.00    -0.012 A 
ATOM     21  O   UNL     1      86.608  57.183  44.658  0.00  0.00    -0.453 OA
ATOM     22  C   UNL     1      85.830  58.198  44.008  0.00  0.00    +0.233 C 
ATOM     23  O   UNL     1      84.904  57.484  43.178  0.00  0.00    -0.453 OA
ENDBRANCH   4  15
BRANCH   1  25
ATOM     24  C   UNL     1      81.220  50.793  42.601  0.00  0.00    +0.079 C 
ATOM     25  O   UNL     1      81.796  50.440  43.856  0.00  0.00    -0.491 OA
ENDBRANCH   1  25
BRANCH  14  26
ATOM     26  O   UNL     1      82.775  47.755  44.194  0.00  0.00    -0.488 OA
ATOM     27  C   UNL     1      82.352  47.069  43.020  0.00  0.00    +0.079 C 
ENDBRANCH  14  26
BRANCH  13  28
ATOM     28  O   UNL     1      85.551  47.374  44.798  0.00  0.00    -0.491 OA
ATOM     29  C   UNL     1      85.940  46.405  43.830  0.00  0.00    +0.079 C 
ENDBRANCH  13  28
TORSDOF 4
ENDMDL
MODEL 2
REMARK VINA RESULT:    -8.967      2.881      4.001
REMARK INTER + INTRA:         -11.183
REMARK INTER:                 -10.928
REMARK INTRA:                  -0.256
REMARK UNBOUND:                -0.120
REMARK  Name = 
REMARK  7 active torsions:
REMARK  status: ('A' for Active; 'I' for Inactive)
REMARK    1  A    between atoms: C_1  and  O_2
REMARK    2  A    between atoms: O_2  and  C_3
REMARK    3  A    between atoms: C_6  and  C_7
REMARK    4  A    between atoms: C_24  and  O_28
REMARK    5  A    between atoms: C_25  and  O_26
REMARK    6  A    between atoms: O_26  and  C_27
REMARK    7  A    between atoms: O_28  and  C_29
REMARK                            x       y       z     vdW  Elec       q    Type
REMARK                         _______ _______ _______ _____ _____    ______ ____
ROOT
ATOM      1  C   UNL     1      86.930  52.607  41.646  0.00  0.00    +0.165 A 
ATOM      2  C   UNL     1      86.559  52.850  42.979  0.00  0.00    -0.012 A 
ATOM      3  C   UNL     1      87.055  52.059  44.022  0.00  0.00    -0.029 A 
ATOM      4  C   UNL     1      86.671  52.257  45.486  0.00  0.00    +0.023 C 
ATOM      5  C   UNL     1      86.031  50.931  45.990  0.00  0.00    +0.073 C 
ATOM      6  C   UNL     1      84.825  50.514  45.213  0.00  0.00    +0.312 C 
ATOM      7  O   UNL     1      83.837  51.254  44.962  0.00  0.00    -0.250 OA
ATOM      8  O   UNL     1      84.895  49.217  44.765  0.00  0.00    -0.464 OA
ATOM      9  C   UNL     1      86.094  48.587  45.171  0.00  0.00    +0.096 C 
ATOM     10  C   UNL     1      86.980  49.705  45.777  0.00  0.00    +0.011 C 
ATOM     11  C   UNL     1      88.206  50.006  44.865  0.00  0.00    -0.017 C 
ATOM     12  C   UNL     1      87.835  50.931  43.720  0.00  0.00    +0.002 A 
ATOM     13  C   UNL     1      88.232  50.666  42.394  0.00  0.00    +0.169 A 
ATOM     14  C   UNL     1      87.795  51.521  41.344  0.00  0.00    +0.204 A 
ENDROOT
BRANCH   4  15
ATOM     15  C   UNL     1      85.942  53.562  45.822  0.00  0.00    -0.035 A 
ATOM     16  C   UNL     1      84.919  53.652  46.811  0.00  0.00    -0.054 A 
ATOM     17  C   UNL     1      84.316  54.887  47.116  0.00  0.00    -0.016 A 
ATOM     18  C   UNL     1      84.774  56.017  46.450  0.00  0.00    +0.166 A 
ATOM     19  C   UNL     1      85.775  55.955  45.542  0.00  0.00    +0.167 A 
ATOM     20  C   UNL     1      86.398  54.758  45.210  0.00  0.00    -0.012 A 
ATOM     21  O   UNL     1      86.035  57.222  45.056  0.00  0.00    -0.453 OA
ATOM     22  C   UNL     1      85.135  58.136  45.699  0.00  0.00    +0.233 C 
ATOM     23  O   UNL     1      84.349  57.325  46.583  0.00  0.00    -0.453 OA
ENDBRANCH   4  15
BRANCH   1  25
ATOM     24  C   UNL     1      85.083  53.799  40.428  0.00  0.00    +0.079 C 
ATOM     25  O   UNL     1      86.446  53.427  40.612  0.00  0.00    -0.491 OA
ENDBRANCH   1  25
BRANCH  14  26
ATOM     26  O   UNL     1      88.236  51.250  40.035  0.00  0.00    -0.488 OA
ATOM     27  C   UNL     1      89.441  51.692  39.418  0.00  0.00    +0.079 C 
ENDBRANCH  14  26
BRANCH  13  28
ATOM     28  O   UNL     1      89.057  49.542  42.185  0.00  0.00    -0.491 OA
ATOM     29  C   UNL     1      88.665  48.261  41.703  0.00  0.00    +0.079 C 
ENDBRANCH  13  28
TORSDOF 4
ENDMDL
MODEL 3
REMARK VINA RESULT:    -8.653      2.604      7.006
REMARK INTER + INTRA:         -10.797
REMARK INTER:                 -10.673
REMARK INTRA:                  -0.124
REMARK UNBOUND:                -0.120
REMARK  Name = 
REMARK  7 active torsions:
REMARK  status: ('A' for Active; 'I' for Inactive)
REMARK    1  A    between atoms: C_1  and  O_2
REMARK    2  A    between atoms: O_2  and  C_3
REMARK    3  A    between atoms: C_6  and  C_7
REMARK    4  A    between atoms: C_24  and  O_28
REMARK    5  A    between atoms: C_25  and  O_26
REMARK    6  A    between atoms: O_26  and  C_27
REMARK    7  A    between atoms: O_28  and  C_29
REMARK                            x       y       z     vdW  Elec       q    Type
REMARK                         _______ _______ _______ _____ _____    ______ ____
ROOT
ATOM      1  C   UNL     1      85.792  53.556  46.923  0.00  0.00    +0.165 A 
ATOM      2  C   UNL     1      86.299  52.998  45.737  0.00  0.00    -0.012 A 
ATOM      3  C   UNL     1      86.279  53.715  44.535  0.00  0.00    -0.029 A 
ATOM      4  C   UNL     1      86.791  53.156  43.211  0.00  0.00    +0.023 C 
ATOM      5  C   UNL     1      85.609  53.180  42.199  0.00  0.00    +0.073 C 
ATOM      6  C   UNL     1      84.422  52.389  42.645  0.00  0.00    +0.312 C 
ATOM      7  O   UNL     1      84.459  51.195  43.044  0.00  0.00    -0.250 OA
ATOM      8  O   UNL     1      83.250  53.105  42.599  0.00  0.00    -0.464 OA
ATOM      9  C   UNL     1      83.457  54.418  42.118  0.00  0.00    +0.096 C 
ATOM     10  C   UNL     1      84.993  54.611  42.051  0.00  0.00    +0.011 C 
ATOM     11  C   UNL     1      85.480  55.623  43.130  0.00  0.00    -0.017 C 
ATOM     12  C   UNL     1      85.630  54.960  44.488  0.00  0.00    +0.002 A 
ATOM     13  C   UNL     1      85.120  55.551  45.662  0.00  0.00    +0.169 A 
ATOM     14  C   UNL     1      85.217  54.855  46.899  0.00  0.00    +0.204 A 
ENDROOT
BRANCH   4  15
ATOM     15  C   UNL     1      87.618  51.870  43.297  0.00  0.00    -0.035 A 
ATOM     16  C   UNL     1      87.587  50.996  44.422  0.00  0.00    -0.054 A 
ATOM     17  C   UNL     1      88.328  49.800  44.429  0.00  0.00    -0.016 A 
ATOM     18  C   UNL     1      89.061  49.482  43.293  0.00  0.00    +0.166 A 
ATOM     19  C   UNL     1      89.065  50.278  42.199  0.00  0.00    +0.167 A 
ATOM     20  C   UNL     1      88.348  51.467  42.148  0.00  0.00    -0.012 A 
ATOM     21  O   UNL     1      89.858  49.711  41.219  0.00  0.00    -0.453 OA
ATOM     22  C   UNL     1      90.388  48.482  41.735  0.00  0.00    +0.233 C 
ATOM     23  O   UNL     1      89.852  48.373  43.062  0.00  0.00    -0.453 OA
ENDBRANCH   4  15
BRANCH   1  25
ATOM     24  C   UNL     1      86.425  51.543  48.288  0.00  0.00    +0.079 C 
ATOM     25  O   UNL     1      85.845  52.834  48.128  0.00  0.00    -0.491 OA
ENDBRANCH   1  25
BRANCH  14  26
ATOM     26  O   UNL     1      84.729  55.485  48.059  0.00  0.00    -0.488 OA
ATOM     27  C   UNL     1      83.450  55.319  48.662  0.00  0.00    +0.079 C 
ENDBRANCH  14  26
BRANCH  13  28
ATOM     28  O   UNL     1      84.529  56.825  45.533  0.00  0.00    -0.491 OA
ATOM     29  C   UNL     1      85.124  58.085  45.826  0.00  0.00    +0.079 C 
ENDBRANCH  13  28
TORSDOF 4
ENDMDL
MODEL 4
REMARK VINA RESULT:    -8.562      2.360      4.115
REMARK INTER + INTRA:         -10.685
REMARK INTER:                 -10.687
REMARK INTRA:                   0.002
REMARK UNBOUND:                -0.120
REMARK  Name = 
REMARK  7 active torsions:
REMARK  status: ('A' for Active; 'I' for Inactive)
REMARK    1  A    between atoms: C_1  and  O_2
REMARK    2  A    between atoms: O_2  and  C_3
REMARK    3  A    between atoms: C_6  and  C_7
REMARK    4  A    between atoms: C_24  and  O_28
REMARK    5  A    between atoms: C_25  and  O_26
REMARK    6  A    between atoms: O_26  and  C_27
REMARK    7  A    between atoms: O_28  and  C_29
REMARK                            x       y       z     vdW  Elec       q    Type
REMARK                         _______ _______ _______ _____ _____    ______ ____
ROOT
ATOM      1  C   UNL     1      87.200  50.878  41.434  0.00  0.00    +0.165 A 
ATOM      2  C   UNL     1      86.358  51.779  42.107  0.00  0.00    -0.012 A 
ATOM      3  C   UNL     1      85.631  51.382  43.236  0.00  0.00    -0.029 A 
ATOM      4  C   UNL     1      84.682  52.306  43.996  0.00  0.00    +0.023 C 
ATOM      5  C   UNL     1      83.268  51.656  43.970  0.00  0.00    +0.073 C 
ATOM      6  C   UNL     1      82.739  51.425  42.592  0.00  0.00    +0.312 C 
ATOM      7  O   UNL     1      82.691  52.296  41.683  0.00  0.00    -0.250 OA
ATOM      8  O   UNL     1      82.311  50.135  42.389  0.00  0.00    -0.464 OA
ATOM      9  C   UNL     1      82.461  49.345  43.550  0.00  0.00    +0.096 C 
ATOM     10  C   UNL     1      83.283  50.201  44.547  0.00  0.00    +0.011 C 
ATOM     11  C   UNL     1      84.711  49.614  44.747  0.00  0.00    -0.017 C 
ATOM     12  C   UNL     1      85.647  50.033  43.626  0.00  0.00    +0.002 A 
ATOM     13  C   UNL     1      86.489  49.107  42.977  0.00  0.00    +0.169 A 
ATOM     14  C   UNL     1      87.291  49.533  41.882  0.00  0.00    +0.204 A 
ENDROOT
BRANCH   4  15
ATOM     15  C   UNL     1      84.777  53.796  43.657  0.00  0.00    -0.035 A 
ATOM     16  C   UNL     1      84.074  54.397  42.572  0.00  0.00    -0.054 A 
ATOM     17  C   UNL     1      84.156  55.781  42.334  0.00  0.00    -0.016 A 
ATOM     18  C   UNL     1      84.915  56.547  43.210  0.00  0.00    +0.166 A 
ATOM     19  C   UNL     1      85.552  56.000  44.272  0.00  0.00    +0.167 A 
ATOM     20  C   UNL     1      85.497  54.638  44.544  0.00  0.00    -0.012 A 
ATOM     21  O   UNL     1      86.209  56.991  44.976  0.00  0.00    -0.453 OA
ATOM     22  C   UNL     1      85.970  58.239  44.310  0.00  0.00    +0.233 C 
ATOM     23  O   UNL     1      85.138  57.911  43.189  0.00  0.00    -0.453 OA
ENDBRANCH   4  15
BRANCH   1  25
ATOM     24  C   UNL     1      89.057  52.188  40.361  0.00  0.00    +0.079 C 
ATOM     25  O   UNL     1      87.945  51.298  40.319  0.00  0.00    -0.491 OA
ENDBRANCH   1  25
BRANCH  14  26
ATOM     26  O   UNL     1      88.146  48.592  41.276  0.00  0.00    -0.488 OA
ATOM     27  C   UNL     1      89.480  48.268  41.652  0.00  0.00    +0.079 C 
ENDBRANCH  14  26
BRANCH  13  28
ATOM     28  O   UNL     1      86.481  47.784  43.465  0.00  0.00    -0.491 OA
ATOM     29  C   UNL     1      85.939  46.633  42.828  0.00  0.00    +0.079 C 
ENDBRANCH  13  28
TORSDOF 4
ENDMDL
MODEL 5
REMARK VINA RESULT:    -8.518      2.824      7.078
REMARK INTER + INTRA:         -10.630
REMARK INTER:                 -10.565
REMARK INTRA:                  -0.065
REMARK UNBOUND:                -0.120
REMARK  Name = 
REMARK  7 active torsions:
REMARK  status: ('A' for Active; 'I' for Inactive)
REMARK    1  A    between atoms: C_1  and  O_2
REMARK    2  A    between atoms: O_2  and  C_3
REMARK    3  A    between atoms: C_6  and  C_7
REMARK    4  A    between atoms: C_24  and  O_28
REMARK    5  A    between atoms: C_25  and  O_26
REMARK    6  A    between atoms: O_26  and  C_27
REMARK    7  A    between atoms: O_28  and  C_29
REMARK                            x       y       z     vdW  Elec       q    Type
REMARK                         _______ _______ _______ _____ _____    ______ ____
ROOT
ATOM      1  C   UNL     1      86.387  52.780  40.869  0.00  0.00    +0.165 A 
ATOM      2  C   UNL     1      86.464  51.624  41.664  0.00  0.00    -0.012 A 
ATOM      3  C   UNL     1      85.458  51.314  42.587  0.00  0.00    -0.029 A 
ATOM      4  C   UNL     1      85.496  50.088  43.495  0.00  0.00    +0.023 C 
ATOM      5  C   UNL     1      85.443  50.589  44.968  0.00  0.00    +0.073 C 
ATOM      6  C   UNL     1      86.565  51.509  45.329  0.00  0.00    +0.312 C 
ATOM      7  O   UNL     1      87.785  51.270  45.131  0.00  0.00    -0.250 OA
ATOM      8  O   UNL     1      86.135  52.684  45.898  0.00  0.00    -0.464 OA
ATOM      9  C   UNL     1      84.728  52.723  46.019  0.00  0.00    +0.096 C 
ATOM     10  C   UNL     1      84.197  51.498  45.233  0.00  0.00    +0.011 C 
ATOM     11  C   UNL     1      83.450  51.940  43.940  0.00  0.00    -0.017 C 
ATOM     12  C   UNL     1      84.422  52.235  42.810  0.00  0.00    +0.002 A 
ATOM     13  C   UNL     1      84.311  53.399  42.022  0.00  0.00    +0.169 A 
ATOM     14  C   UNL     1      85.290  53.669  41.026  0.00  0.00    +0.204 A 
ENDROOT
BRANCH   4  15
ATOM     15  C   UNL     1      86.543  49.026  43.151  0.00  0.00    -0.035 A 
ATOM     16  C   UNL     1      87.892  49.340  42.812  0.00  0.00    -0.054 A 
ATOM     17  C   UNL     1      88.829  48.322  42.553  0.00  0.00    -0.016 A 
ATOM     18  C   UNL     1      88.407  47.004  42.673  0.00  0.00    +0.166 A 
ATOM     19  C   UNL     1      87.142  46.688  43.037  0.00  0.00    +0.167 A 
ATOM     20  C   UNL     1      86.186  47.661  43.303  0.00  0.00    -0.012 A 
ATOM     21  O   UNL     1      87.009  45.314  43.094  0.00  0.00    -0.453 OA
ATOM     22  C   UNL     1      88.270  44.732  42.738  0.00  0.00    +0.233 C 
ATOM     23  O   UNL     1      89.136  45.846  42.478  0.00  0.00    -0.453 OA
ENDBRANCH   4  15
BRANCH   1  25
ATOM     24  C   UNL     1      88.610  52.340  39.782  0.00  0.00    +0.079 C 
ATOM     25  O   UNL     1      87.391  53.063  39.926  0.00  0.00    -0.491 OA
ENDBRANCH   1  25
BRANCH  14  26
ATOM     26  O   UNL     1      85.134  54.822  40.232  0.00  0.00    -0.488 OA
ATOM     27  C   UNL     1      84.354  54.959  39.049  0.00  0.00    +0.079 C 
ENDBRANCH  14  26
BRANCH  13  28
ATOM     28  O   UNL     1      83.211  54.244  42.278  0.00  0.00    -0.491 OA
ATOM     29  C   UNL     1      81.935  54.212  41.649  0.00  0.00    +0.079 C 
ENDBRANCH  13  28
TORSDOF 4
ENDMDL
MODEL 6
REMARK VINA RESULT:    -8.457      1.674      2.238
REMARK INTER + INTRA:         -10.554
REMARK INTER:                 -10.796
REMARK INTRA:                   0.242
REMARK UNBOUND:                -0.120
REMARK  Name = 
REMARK  7 active torsions:
REMARK  status: ('A' for Active; 'I' for Inactive)
REMARK    1  A    between atoms: C_1  and  O_2
REMARK    2  A    between atoms: O_2  and  C_3
REMARK    3  A    between atoms: C_6  and  C_7
REMARK    4  A    between atoms: C_24  and  O_28
REMARK    5  A    between atoms: C_25  and  O_26
REMARK    6  A    between atoms: O_26  and  C_27
REMARK    7  A    between atoms: O_28  and  C_29
REMARK                            x       y       z     vdW  Elec       q    Type
REMARK                         _______ _______ _______ _____ _____    ______ ____
ROOT
ATOM      1  C   UNL     1      82.885  49.460  43.630  0.00  0.00    +0.165 A 
ATOM      2  C   UNL     1      83.791  50.517  43.441  0.00  0.00    -0.012 A 
ATOM      3  C   UNL     1      85.167  50.332  43.623  0.00  0.00    -0.029 A 
ATOM      4  C   UNL     1      86.198  51.445  43.457  0.00  0.00    +0.023 C 
ATOM      5  C   UNL     1      86.952  51.596  44.809  0.00  0.00    +0.073 C 
ATOM      6  C   UNL     1      86.057  51.917  45.963  0.00  0.00    +0.312 C 
ATOM      7  O   UNL     1      85.209  52.847  45.980  0.00  0.00    -0.250 OA
ATOM      8  O   UNL     1      86.233  51.070  47.031  0.00  0.00    -0.464 OA
ATOM      9  C   UNL     1      87.238  50.110  46.779  0.00  0.00    +0.096 C 
ATOM     10  C   UNL     1      87.593  50.247  45.276  0.00  0.00    +0.011 C 
ATOM     11  C   UNL     1      87.110  49.005  44.470  0.00  0.00    -0.017 C 
ATOM     12  C   UNL     1      85.635  49.106  44.123  0.00  0.00    +0.002 A 
ATOM     13  C   UNL     1      84.753  48.023  44.314  0.00  0.00    +0.169 A 
ATOM     14  C   UNL     1      83.366  48.190  44.047  0.00  0.00    +0.204 A 
ENDROOT
BRANCH   4  15
ATOM     15  C   UNL     1      85.703  52.726  42.780  0.00  0.00    -0.035 A 
ATOM     16  C   UNL     1      85.668  53.992  43.436  0.00  0.00    -0.054 A 
ATOM     17  C   UNL     1      85.251  55.149  42.753  0.00  0.00    -0.016 A 
ATOM     18  C   UNL     1      84.909  55.025  41.412  0.00  0.00    +0.166 A 
ATOM     19  C   UNL     1      84.980  53.840  40.762  0.00  0.00    +0.167 A 
ATOM     20  C   UNL     1      85.387  52.673  41.398  0.00  0.00    -0.012 A 
ATOM     21  O   UNL     1      84.603  54.014  39.444  0.00  0.00    -0.453 OA
ATOM     22  C   UNL     1      84.272  55.397  39.258  0.00  0.00    +0.233 C 
ATOM     23  O   UNL     1      84.483  56.008  40.538  0.00  0.00    -0.453 OA
ENDBRANCH   4  15
BRANCH   1  25
ATOM     24  C   UNL     1      80.922  50.830  42.865  0.00  0.00    +0.079 C 
ATOM     25  O   UNL     1      81.510  49.655  43.415  0.00  0.00    -0.491 OA
ENDBRANCH   1  25
BRANCH  14  26
ATOM     26  O   UNL     1      82.515  47.080  44.215  0.00  0.00    -0.488 OA
ATOM     27  C   UNL     1      81.218  47.065  44.802  0.00  0.00    +0.079 C 
ENDBRANCH  14  26
BRANCH  13  28
ATOM     28  O   UNL     1      85.315  46.812  44.770  0.00  0.00    -0.491 OA
ATOM     29  C   UNL     1      85.612  45.654  43.998  0.00  0.00    +0.079 C 
ENDBRANCH  13  28
TORSDOF 4
ENDMDL
MODEL 7
REMARK VINA RESULT:    -8.357      2.397      6.170
REMARK INTER + INTRA:         -10.432
REMARK INTER:                 -10.535
REMARK INTRA:                   0.103
REMARK UNBOUND:                -0.120
REMARK  Name = 
REMARK  7 active torsions:
REMARK  status: ('A' for Active; 'I' for Inactive)
REMARK    1  A    between atoms: C_1  and  O_2
REMARK    2  A    between atoms: O_2  and  C_3
REMARK    3  A    between atoms: C_6  and  C_7
REMARK    4  A    between atoms: C_24  and  O_28
REMARK    5  A    between atoms: C_25  and  O_26
REMARK    6  A    between atoms: O_26  and  C_27
REMARK    7  A    between atoms: O_28  and  C_29
REMARK                            x       y       z     vdW  Elec       q    Type
REMARK                         _______ _______ _______ _____ _____    ______ ____
ROOT
ATOM      1  C   UNL     1      87.057  49.531  43.253  0.00  0.00    +0.165 A 
ATOM      2  C   UNL     1      85.767  50.082  43.310  0.00  0.00    -0.012 A 
ATOM      3  C   UNL     1      85.530  51.410  42.933  0.00  0.00    -0.029 A 
ATOM      4  C   UNL     1      84.157  52.073  42.995  0.00  0.00    +0.023 C 
ATOM      5  C   UNL     1      84.270  53.307  43.936  0.00  0.00    +0.073 C 
ATOM      6  C   UNL     1      84.721  52.967  45.320  0.00  0.00    +0.312 C 
ATOM      7  O   UNL     1      84.208  52.075  46.046  0.00  0.00    -0.250 OA
ATOM      8  O   UNL     1      85.789  53.723  45.739  0.00  0.00    -0.464 OA
ATOM      9  C   UNL     1      86.188  54.657  44.756  0.00  0.00    +0.096 C 
ATOM     10  C   UNL     1      85.395  54.293  43.475  0.00  0.00    +0.011 C 
ATOM     11  C   UNL     1      86.335  53.711  42.378  0.00  0.00    -0.017 C 
ATOM     12  C   UNL     1      86.618  52.238  42.612  0.00  0.00    +0.002 A 
ATOM     13  C   UNL     1      87.924  51.713  42.536  0.00  0.00    +0.169 A 
ATOM     14  C   UNL     1      88.149  50.341  42.839  0.00  0.00    +0.204 A 
ENDROOT
BRANCH   4  15
ATOM     15  C   UNL     1      82.965  51.135  43.206  0.00  0.00    -0.035 A 
ATOM     16  C   UNL     1      81.657  51.410  42.708  0.00  0.00    -0.054 A 
ATOM     17  C   UNL     1      80.607  50.491  42.886  0.00  0.00    -0.016 A 
ATOM     18  C   UNL     1      80.893  49.293  43.529  0.00  0.00    +0.166 A 
ATOM     19  C   UNL     1      82.139  48.996  43.967  0.00  0.00    +0.167 A 
ATOM     20  C   UNL     1      83.205  49.875  43.812  0.00  0.00    -0.012 A 
ATOM     21  O   UNL     1      82.137  47.742  44.547  0.00  0.00    -0.453 OA
ATOM     22  C   UNL     1      80.803  47.221  44.469  0.00  0.00    +0.233 C 
ATOM     23  O   UNL     1      80.041  48.242  43.811  0.00  0.00    -0.453 OA
ENDBRANCH   4  15
BRANCH   1  25
ATOM     24  C   UNL     1      86.972  47.063  42.789  0.00  0.00    +0.079 C 
ATOM     25  O   UNL     1      87.274  48.189  43.608  0.00  0.00    -0.491 OA
ENDBRANCH   1  25
BRANCH  14  26
ATOM     26  O   UNL     1      89.459  49.838  42.722  0.00  0.00    -0.488 OA
ATOM     27  C   UNL     1      89.999  49.069  41.652  0.00  0.00    +0.079 C 
ENDBRANCH  14  26
BRANCH  13  28
ATOM     28  O   UNL     1      88.951  52.602  42.158  0.00  0.00    -0.491 OA
ATOM     29  C   UNL     1      89.545  52.737  40.871  0.00  0.00    +0.079 C 
ENDBRANCH  13  28
TORSDOF 4
ENDMDL
MODEL 8
REMARK VINA RESULT:    -8.070      1.907      7.355
REMARK INTER + INTRA:         -10.077
REMARK INTER:                 -10.017
REMARK INTRA:                  -0.060
REMARK UNBOUND:                -0.120
REMARK  Name = 
REMARK  7 active torsions:
REMARK  status: ('A' for Active; 'I' for Inactive)
REMARK    1  A    between atoms: C_1  and  O_2
REMARK    2  A    between atoms: O_2  and  C_3
REMARK    3  A    between atoms: C_6  and  C_7
REMARK    4  A    between atoms: C_24  and  O_28
REMARK    5  A    between atoms: C_25  and  O_26
REMARK    6  A    between atoms: O_26  and  C_27
REMARK    7  A    between atoms: O_28  and  C_29
REMARK                            x       y       z     vdW  Elec       q    Type
REMARK                         _______ _______ _______ _____ _____    ______ ____
ROOT
ATOM      1  C   UNL     1      84.382  53.367  46.306  0.00  0.00    +0.165 A 
ATOM      2  C   UNL     1      84.234  52.362  45.336  0.00  0.00    -0.012 A 
ATOM      3  C   UNL     1      84.602  52.584  44.003  0.00  0.00    -0.029 A 
ATOM      4  C   UNL     1      84.444  51.542  42.900  0.00  0.00    +0.023 C 
ATOM      5  C   UNL     1      83.522  52.150  41.803  0.00  0.00    +0.073 C 
ATOM      6  C   UNL     1      82.172  52.548  42.308  0.00  0.00    +0.312 C 
ATOM      7  O   UNL     1      81.404  51.806  42.975  0.00  0.00    -0.250 OA
ATOM      8  O   UNL     1      81.837  53.841  41.986  0.00  0.00    -0.464 OA
ATOM      9  C   UNL     1      82.852  54.474  41.234  0.00  0.00    +0.096 C 
ATOM     10  C   UNL     1      84.070  53.516  41.269  0.00  0.00    +0.011 C 
ATOM     11  C   UNL     1      85.229  54.110  42.124  0.00  0.00    -0.017 C 
ATOM     12  C   UNL     1      85.006  53.869  43.607  0.00  0.00    +0.002 A 
ATOM     13  C   UNL     1      85.174  54.896  44.558  0.00  0.00    +0.169 A 
ATOM     14  C   UNL     1      84.879  54.643  45.926  0.00  0.00    +0.204 A 
ENDROOT
BRANCH   4  15
ATOM     15  C   UNL     1      84.141  50.113  43.360  0.00  0.00    -0.035 A 
ATOM     16  C   UNL     1      82.826  49.562  43.380  0.00  0.00    -0.054 A 
ATOM     17  C   UNL     1      82.608  48.226  43.764  0.00  0.00    -0.016 A 
ATOM     18  C   UNL     1      83.716  47.453  44.088  0.00  0.00    +0.166 A 
ATOM     19  C   UNL     1      84.974  47.947  44.031  0.00  0.00    +0.167 A 
ATOM     20  C   UNL     1      85.235  49.260  43.656  0.00  0.00    -0.012 A 
ATOM     21  O   UNL     1      85.874  46.960  44.385  0.00  0.00    -0.453 OA
ATOM     22  C   UNL     1      85.130  45.772  44.687  0.00  0.00    +0.233 C 
ATOM     23  O   UNL     1      83.756  46.129  44.483  0.00  0.00    -0.453 OA
ENDBRANCH   4  15
BRANCH   1  25
ATOM     24  C   UNL     1      84.954  52.819  48.691  0.00  0.00    +0.079 C 
ATOM     25  O   UNL     1      84.035  53.120  47.645  0.00  0.00    -0.491 OA
ENDBRANCH   1  25
BRANCH  14  26
ATOM     26  O   UNL     1      85.088  55.678  46.857  0.00  0.00    -0.488 OA
ATOM     27  C   UNL     1      84.133  56.622  47.331  0.00  0.00    +0.079 C 
ENDBRANCH  14  26
BRANCH  13  28
ATOM     28  O   UNL     1      85.632  56.142  44.081  0.00  0.00    -0.491 OA
ATOM     29  C   UNL     1      84.848  57.292  43.781  0.00  0.00    +0.079 C 
ENDBRANCH  13  28
TORSDOF 4
ENDMDL
MODEL 9
REMARK VINA RESULT:    -7.848      2.643      3.831
REMARK INTER + INTRA:          -9.804
REMARK INTER:                  -9.684
REMARK INTRA:                  -0.120
REMARK UNBOUND:                -0.120
REMARK  Name = 
REMARK  7 active torsions:
REMARK  status: ('A' for Active; 'I' for Inactive)
REMARK    1  A    between atoms: C_1  and  O_2
REMARK    2  A    between atoms: O_2  and  C_3
REMARK    3  A    between atoms: C_6  and  C_7
REMARK    4  A    between atoms: C_24  and  O_28
REMARK    5  A    between atoms: C_25  and  O_26
REMARK    6  A    between atoms: O_26  and  C_27
REMARK    7  A    between atoms: O_28  and  C_29
REMARK                            x       y       z     vdW  Elec       q    Type
REMARK                         _______ _______ _______ _____ _____    ______ ____
ROOT
ATOM      1  C   UNL     1      85.061  47.219  43.635  0.00  0.00    +0.165 A 
ATOM      2  C   UNL     1      85.516  48.499  43.280  0.00  0.00    -0.012 A 
ATOM      3  C   UNL     1      86.696  48.669  42.546  0.00  0.00    -0.029 A 
ATOM      4  C   UNL     1      87.256  50.033  42.152  0.00  0.00    +0.023 C 
ATOM      5  C   UNL     1      88.682  50.153  42.761  0.00  0.00    +0.073 C 
ATOM      6  C   UNL     1      88.712  50.016  44.249  0.00  0.00    +0.312 C 
ATOM      7  O   UNL     1      87.984  50.662  45.047  0.00  0.00    -0.250 OA
ATOM      8  O   UNL     1      89.621  49.081  44.685  0.00  0.00    -0.464 OA
ATOM      9  C   UNL     1      90.321  48.490  43.609  0.00  0.00    +0.096 C 
ATOM     10  C   UNL     1      89.609  48.971  42.320  0.00  0.00    +0.011 C 
ATOM     11  C   UNL     1      88.853  47.801  41.624  0.00  0.00    -0.017 C 
ATOM     12  C   UNL     1      87.500  47.551  42.269  0.00  0.00    +0.002 A 
ATOM     13  C   UNL     1      87.066  46.252  42.603  0.00  0.00    +0.169 A 
ATOM     14  C   UNL     1      85.825  46.076  43.275  0.00  0.00    +0.204 A 
ENDROOT
BRANCH   4  15
ATOM     15  C   UNL     1      86.312  51.226  42.330  0.00  0.00    -0.035 A 
ATOM     16  C   UNL     1      85.498  51.411  43.486  0.00  0.00    -0.054 A 
ATOM     17  C   UNL     1      84.685  52.552  43.622  0.00  0.00    -0.016 A 
ATOM     18  C   UNL     1      84.729  53.506  42.614  0.00  0.00    +0.166 A 
ATOM     19  C   UNL     1      85.530  53.368  41.532  0.00  0.00    +0.167 A 
ATOM     20  C   UNL     1      86.348  52.258  41.357  0.00  0.00    -0.012 A 
ATOM     21  O   UNL     1      85.385  54.467  40.707  0.00  0.00    -0.453 OA
ATOM     22  C   UNL     1      84.429  55.349  41.310  0.00  0.00    +0.233 C 
ATOM     23  O   UNL     1      84.036  54.699  42.527  0.00  0.00    -0.453 OA
ENDBRANCH   4  15
BRANCH   1  25
ATOM     24  C   UNL     1      82.553  47.129  43.782  0.00  0.00    +0.079 C 
ATOM     25  O   UNL     1      83.860  47.063  44.347  0.00  0.00    -0.491 OA
ENDBRANCH   1  25
BRANCH  14  26
ATOM     26  O   UNL     1      85.403  44.765  43.565  0.00  0.00    -0.488 OA
ATOM     27  C   UNL     1      84.631  43.901  42.738  0.00  0.00    +0.079 C 
ENDBRANCH  14  26
BRANCH  13  28
ATOM     28  O   UNL     1      87.912  45.182  42.242  0.00  0.00    -0.491 OA
ATOM     29  C   UNL     1      88.697  44.373  43.111  0.00  0.00    +0.079 C 
ENDBRANCH  13  28
TORSDOF 4
ENDMDL
