MODEL 1
REMARK VINA RESULT:    -9.196      0.000      0.000
REMARK INTER + INTRA:         -11.513
REMARK INTER:                 -11.247
REMARK INTRA:                  -0.266
REMARK UNBOUND:                -0.166
REMARK  Name = 
REMARK  7 active torsions:
REMARK  status: ('A' for Active; 'I' for Inactive)
REMARK    1  A    between atoms: C_1  and  O_2
REMARK    2  A    between atoms: O_2  and  C_3
REMARK    3  A    between atoms: C_6  and  C_7
REMARK    4  A    between atoms: C_24  and  O_28
REMARK    5  A    between atoms: C_25  and  O_26
REMARK    6  A    between atoms: O_26  and  C_27
REMARK    7  A    between atoms: O_28  and  C_29
REMARK                            x       y       z     vdW  Elec       q    Type
REMARK                         _______ _______ _______ _____ _____    ______ ____
ROOT
ATOM      1  C   UNL     1      86.883  52.809  41.447  0.00  0.00    +0.165 A 
ATOM      2  C   UNL     1      86.525  53.074  42.779  0.00  0.00    -0.012 A 
ATOM      3  C   UNL     1      87.055  52.320  43.833  0.00  0.00    -0.029 A 
ATOM      4  C   UNL     1      86.687  52.542  45.298  0.00  0.00    +0.023 C 
ATOM      5  C   UNL     1      86.087  51.213  45.841  0.00  0.00    +0.073 C 
ATOM      6  C   UNL     1      84.880  50.749  45.091  0.00  0.00    +0.312 C 
ATOM      7  O   UNL     1      83.871  51.458  44.838  0.00  0.00    -0.250 OA
ATOM      8  O   UNL     1      84.977  49.444  44.672  0.00  0.00    -0.464 OA
ATOM      9  C   UNL     1      86.195  48.853  45.074  0.00  0.00    +0.096 C 
ATOM     10  C   UNL     1      87.062  50.006  45.642  0.00  0.00    +0.011 C 
ATOM     11  C   UNL     1      88.268  50.315  44.706  0.00  0.00    -0.017 C 
ATOM     12  C   UNL     1      87.858  51.205  43.545  0.00  0.00    +0.002 A 
ATOM     13  C   UNL     1      88.243  50.918  42.220  0.00  0.00    +0.169 A 
ATOM     14  C   UNL     1      87.771  51.738  41.157  0.00  0.00    +0.204 A 
ENDROOT
BRANCH   4  15
ATOM     15  C   UNL     1      85.931  53.836  45.614  0.00  0.00    -0.035 A 
ATOM     16  C   UNL     1      84.875  53.910  46.569  0.00  0.00    -0.054 A 
ATOM     17  C   UNL     1      84.247  55.135  46.859  0.00  0.00    -0.016 A 
ATOM     18  C   UNL     1      84.712  56.274  46.213  0.00  0.00    +0.166 A 
ATOM     19  C   UNL     1      85.743  56.229  45.338  0.00  0.00    +0.167 A 
ATOM     20  C   UNL     1      86.392  55.041  45.023  0.00  0.00    -0.012 A 
ATOM     21  O   UNL     1      86.003  57.501  44.866  0.00  0.00    -0.453 OA
ATOM     22  C   UNL     1      85.071  58.400  45.482  0.00  0.00    +0.233 C 
ATOM     23  O   UNL     1      84.266  57.576  46.336  0.00  0.00    -0.453 OA
ENDBRANCH   4  15
BRANCH   1  25
ATOM     24  C   UNL     1      84.986  53.890  40.203  0.00  0.00    +0.079 C 
ATOM     25  O   UNL     1      86.365  53.593  40.402  0.00  0.00    -0.491 OA
ENDBRANCH   1  25
BRANCH  14  26
ATOM     26  O   UNL     1      88.200  51.447  39.848  0.00  0.00    -0.488 OA
ATOM     27  C   UNL     1      89.358  51.946  39.187  0.00  0.00    +0.079 C 
ENDBRANCH  14  26
BRANCH  13  28
ATOM     28  O   UNL     1      89.093  49.809  42.025  0.00  0.00    -0.491 OA
ATOM     29  C   UNL     1      88.721  48.502  41.604  0.00  0.00    +0.079 C 
ENDBRANCH  13  28
TORSDOF 4
ENDMDL
MODEL 2
REMARK VINA RESULT:    -9.013      2.781      3.676
REMARK INTER + INTRA:         -11.287
REMARK INTER:                 -11.347
REMARK INTRA:                   0.060
REMARK UNBOUND:                -0.166
REMARK  Name = 
REMARK  7 active torsions:
REMARK  status: ('A' for Active; 'I' for Inactive)
REMARK    1  A    between atoms: C_1  and  O_2
REMARK    2  A    between atoms: O_2  and  C_3
REMARK    3  A    between atoms: C_6  and  C_7
REMARK    4  A    between atoms: C_24  and  O_28
REMARK    5  A    between atoms: C_25  and  O_26
REMARK    6  A    between atoms: O_26  and  C_27
REMARK    7  A    between atoms: O_28  and  C_29
REMARK                            x       y       z     vdW  Elec       q    Type
REMARK                         _______ _______ _______ _____ _____    ______ ____
ROOT
ATOM      1  C   UNL     1      83.484  50.775  43.566  0.00  0.00    +0.165 A 
ATOM      2  C   UNL     1      84.325  51.834  43.947  0.00  0.00    -0.012 A 
ATOM      3  C   UNL     1      85.631  51.597  44.392  0.00  0.00    -0.029 A 
ATOM      4  C   UNL     1      86.583  52.701  44.842  0.00  0.00    +0.023 C 
ATOM      5  C   UNL     1      86.989  52.405  46.314  0.00  0.00    +0.073 C 
ATOM      6  C   UNL     1      85.829  52.337  47.254  0.00  0.00    +0.312 C 
ATOM      7  O   UNL     1      84.931  53.213  47.356  0.00  0.00    -0.250 OA
ATOM      8  O   UNL     1      85.817  51.189  48.011  0.00  0.00    -0.464 OA
ATOM      9  C   UNL     1      86.924  50.360  47.723  0.00  0.00    +0.096 C 
ATOM     10  C   UNL     1      87.606  50.976  46.475  0.00  0.00    +0.011 C 
ATOM     11  C   UNL     1      87.421  50.063  45.226  0.00  0.00    -0.017 C 
ATOM     12  C   UNL     1      86.063  50.274  44.579  0.00  0.00    +0.002 A 
ATOM     13  C   UNL     1      85.247  49.189  44.198  0.00  0.00    +0.169 A 
ATOM     14  C   UNL     1      83.951  49.437  43.667  0.00  0.00    +0.204 A 
ENDROOT
BRANCH   4  15
ATOM     15  C   UNL     1      86.161  54.134  44.503  0.00  0.00    -0.035 A 
ATOM     16  C   UNL     1      85.629  54.513  43.236  0.00  0.00    -0.054 A 
ATOM     17  C   UNL     1      85.209  55.834  42.993  0.00  0.00    -0.016 A 
ATOM     18  C   UNL     1      85.297  56.746  44.037  0.00  0.00    +0.166 A 
ATOM     19  C   UNL     1      85.756  56.392  45.259  0.00  0.00    +0.167 A 
ATOM     20  C   UNL     1      86.181  55.100  45.543  0.00  0.00    -0.012 A 
ATOM     21  O   UNL     1      85.715  57.487  46.102  0.00  0.00    -0.453 OA
ATOM     22  C   UNL     1      85.200  58.599  45.357  0.00  0.00    +0.233 C 
ATOM     23  O   UNL     1      84.943  58.082  44.043  0.00  0.00    -0.453 OA
ENDBRANCH   4  15
BRANCH   1  25
ATOM     24  C   UNL     1      81.839  51.283  41.736  0.00  0.00    +0.079 C 
ATOM     25  O   UNL     1      82.186  51.032  43.095  0.00  0.00    -0.491 OA
ENDBRANCH   1  25
BRANCH  14  26
ATOM     26  O   UNL     1      83.173  48.335  43.264  0.00  0.00    -0.488 OA
ATOM     27  C   UNL     1      82.086  47.740  43.965  0.00  0.00    +0.079 C 
ENDBRANCH  14  26
BRANCH  13  28
ATOM     28  O   UNL     1      85.780  47.895  44.374  0.00  0.00    -0.491 OA
ATOM     29  C   UNL     1      86.266  47.018  43.363  0.00  0.00    +0.079 C 
ENDBRANCH  13  28
TORSDOF 4
ENDMDL
MODEL 3
REMARK VINA RESULT:    -8.962      2.538      3.992
REMARK INTER + INTRA:         -11.224
REMARK INTER:                 -11.470
REMARK INTRA:                   0.246
REMARK UNBOUND:                -0.166
REMARK  Name = 
REMARK  7 active torsions:
REMARK  status: ('A' for Active; 'I' for Inactive)
REMARK    1  A    between atoms: C_1  and  O_2
REMARK    2  A    between atoms: O_2  and  C_3
REMARK    3  A    between atoms: C_6  and  C_7
REMARK    4  A    between atoms: C_24  and  O_28
REMARK    5  A    between atoms: C_25  and  O_26
REMARK    6  A    between atoms: O_26  and  C_27
REMARK    7  A    between atoms: O_28  and  C_29
REMARK                            x       y       z     vdW  Elec       q    Type
REMARK                         _______ _______ _______ _____ _____    ______ ____
ROOT
ATOM      1  C   UNL     1      85.489  52.811  41.887  0.00  0.00    +0.165 A 
ATOM      2  C   UNL     1      86.124  52.216  42.990  0.00  0.00    -0.012 A 
ATOM      3  C   UNL     1      87.458  51.799  42.917  0.00  0.00    -0.029 A 
ATOM      4  C   UNL     1      88.196  51.126  44.071  0.00  0.00    +0.023 C 
ATOM      5  C   UNL     1      88.674  49.730  43.577  0.00  0.00    +0.073 C 
ATOM      6  C   UNL     1      87.562  48.845  43.114  0.00  0.00    +0.312 C 
ATOM      7  O   UNL     1      86.519  48.594  43.773  0.00  0.00    -0.250 OA
ATOM      8  O   UNL     1      87.776  48.324  41.861  0.00  0.00    -0.464 OA
ATOM      9  C   UNL     1      89.013  48.743  41.323  0.00  0.00    +0.096 C 
ATOM     10  C   UNL     1      89.548  49.836  42.283  0.00  0.00    +0.011 C 
ATOM     11  C   UNL     1      89.516  51.240  41.610  0.00  0.00    -0.017 C 
ATOM     12  C   UNL     1      88.132  51.861  41.686  0.00  0.00    +0.002 A 
ATOM     13  C   UNL     1      87.526  52.460  40.564  0.00  0.00    +0.169 A 
ATOM     14  C   UNL     1      86.198  52.960  40.664  0.00  0.00    +0.204 A 
ENDROOT
BRANCH   4  15
ATOM     15  C   UNL     1      87.509  51.191  45.439  0.00  0.00    -0.035 A 
ATOM     16  C   UNL     1      87.710  50.216  46.460  0.00  0.00    -0.054 A 
ATOM     17  C   UNL     1      87.094  50.349  47.718  0.00  0.00    -0.016 A 
ATOM     18  C   UNL     1      86.315  51.477  47.944  0.00  0.00    +0.166 A 
ATOM     19  C   UNL     1      86.151  52.434  47.002  0.00  0.00    +0.167 A 
ATOM     20  C   UNL     1      86.741  52.343  45.747  0.00  0.00    -0.012 A 
ATOM     21  O   UNL     1      85.349  53.441  47.503  0.00  0.00    -0.453 OA
ATOM     22  C   UNL     1      84.984  53.090  48.845  0.00  0.00    +0.233 C 
ATOM     23  O   UNL     1      85.623  51.829  49.088  0.00  0.00    -0.453 OA
ENDBRANCH   4  15
BRANCH   1  25
ATOM     24  C   UNL     1      83.006  52.443  41.752  0.00  0.00    +0.079 C 
ATOM     25  O   UNL     1      84.157  53.250  41.984  0.00  0.00    -0.491 OA
ENDBRANCH   1  25
BRANCH  14  26
ATOM     26  O   UNL     1      85.632  53.584  39.536  0.00  0.00    -0.488 OA
ATOM     27  C   UNL     1      84.841  54.767  39.506  0.00  0.00    +0.079 C 
ENDBRANCH  14  26
BRANCH  13  28
ATOM     28  O   UNL     1      88.292  52.527  39.381  0.00  0.00    -0.491 OA
ATOM     29  C   UNL     1      89.334  53.448  39.080  0.00  0.00    +0.079 C 
ENDBRANCH  13  28
TORSDOF 4
ENDMDL
MODEL 4
REMARK VINA RESULT:    -8.641      2.146      3.114
REMARK INTER + INTRA:         -10.827
REMARK INTER:                 -10.831
REMARK INTRA:                   0.003
REMARK UNBOUND:                -0.166
REMARK  Name = 
REMARK  7 active torsions:
REMARK  status: ('A' for Active; 'I' for Inactive)
REMARK    1  A    between atoms: C_1  and  O_2
REMARK    2  A    between atoms: O_2  and  C_3
REMARK    3  A    between atoms: C_6  and  C_7
REMARK    4  A    between atoms: C_24  and  O_28
REMARK    5  A    between atoms: C_25  and  O_26
REMARK    6  A    between atoms: O_26  and  C_27
REMARK    7  A    between atoms: O_28  and  C_29
REMARK                            x       y       z     vdW  Elec       q    Type
REMARK                         _______ _______ _______ _____ _____    ______ ____
ROOT
ATOM      1  C   UNL     1      87.384  50.959  41.226  0.00  0.00    +0.165 A 
ATOM      2  C   UNL     1      86.519  51.836  41.901  0.00  0.00    -0.012 A 
ATOM      3  C   UNL     1      85.781  51.411  43.012  0.00  0.00    -0.029 A 
ATOM      4  C   UNL     1      84.808  52.308  43.772  0.00  0.00    +0.023 C 
ATOM      5  C   UNL     1      83.404  51.640  43.715  0.00  0.00    +0.073 C 
ATOM      6  C   UNL     1      82.899  51.426  42.324  0.00  0.00    +0.312 C 
ATOM      7  O   UNL     1      82.853  52.311  41.430  0.00  0.00    -0.250 OA
ATOM      8  O   UNL     1      82.492  50.134  42.093  0.00  0.00    -0.464 OA
ATOM      9  C   UNL     1      82.635  49.325  43.243  0.00  0.00    +0.096 C 
ATOM     10  C   UNL     1      83.430  50.175  44.266  0.00  0.00    +0.011 C 
ATOM     11  C   UNL     1      84.864  49.605  44.478  0.00  0.00    -0.017 C 
ATOM     12  C   UNL     1      85.810  50.056  43.379  0.00  0.00    +0.002 A 
ATOM     13  C   UNL     1      86.674  49.153  42.728  0.00  0.00    +0.169 A 
ATOM     14  C   UNL     1      87.487  49.608  41.652  0.00  0.00    +0.204 A 
ENDROOT
BRANCH   4  15
ATOM     15  C   UNL     1      84.888  53.805  43.460  0.00  0.00    -0.035 A 
ATOM     16  C   UNL     1      84.318  54.391  42.292  0.00  0.00    -0.054 A 
ATOM     17  C   UNL     1      84.375  55.780  42.078  0.00  0.00    -0.016 A 
ATOM     18  C   UNL     1      84.972  56.565  43.056  0.00  0.00    +0.166 A 
ATOM     19  C   UNL     1      85.477  56.031  44.192  0.00  0.00    +0.167 A 
ATOM     20  C   UNL     1      85.442  54.665  44.444  0.00  0.00    -0.012 A 
ATOM     21  O   UNL     1      85.988  57.039  44.988  0.00  0.00    -0.453 OA
ATOM     22  C   UNL     1      85.793  58.284  44.304  0.00  0.00    +0.233 C 
ATOM     23  O   UNL     1      85.139  57.937  43.075  0.00  0.00    -0.453 OA
ENDBRANCH   4  15
BRANCH   1  25
ATOM     24  C   UNL     1      89.431  52.005  40.210  0.00  0.00    +0.079 C 
ATOM     25  O   UNL     1      88.139  51.409  40.130  0.00  0.00    -0.491 OA
ENDBRANCH   1  25
BRANCH  14  26
ATOM     26  O   UNL     1      88.364  48.690  41.044  0.00  0.00    -0.488 OA
ATOM     27  C   UNL     1      89.661  48.306  41.489  0.00  0.00    +0.079 C 
ENDBRANCH  14  26
BRANCH  13  28
ATOM     28  O   UNL     1      86.678  47.821  43.193  0.00  0.00    -0.491 OA
ATOM     29  C   UNL     1      86.083  46.688  42.570  0.00  0.00    +0.079 C 
ENDBRANCH  13  28
TORSDOF 4
ENDMDL
MODEL 5
REMARK VINA RESULT:    -8.472      1.760      7.162
REMARK INTER + INTRA:         -10.619
REMARK INTER:                 -10.558
REMARK INTRA:                  -0.061
REMARK UNBOUND:                -0.166
REMARK  Name = 
REMARK  7 active torsions:
REMARK  status: ('A' for Active; 'I' for Inactive)
REMARK    1  A    between atoms: C_1  and  O_2
REMARK    2  A    between atoms: O_2  and  C_3
REMARK    3  A    between atoms: C_6  and  C_7
REMARK    4  A    between atoms: C_24  and  O_28
REMARK    5  A    between atoms: C_25  and  O_26
REMARK    6  A    between atoms: O_26  and  C_27
REMARK    7  A    between atoms: O_28  and  C_29
REMARK                            x       y       z     vdW  Elec       q    Type
REMARK                         _______ _______ _______ _____ _____    ______ ____
ROOT
ATOM      1  C   UNL     1      85.983  53.490  46.676  0.00  0.00    +0.165 A 
ATOM      2  C   UNL     1      86.485  52.931  45.488  0.00  0.00    -0.012 A 
ATOM      3  C   UNL     1      86.415  53.628  44.276  0.00  0.00    -0.029 A 
ATOM      4  C   UNL     1      86.921  53.066  42.950  0.00  0.00    +0.023 C 
ATOM      5  C   UNL     1      85.719  53.031  41.962  0.00  0.00    +0.073 C 
ATOM      6  C   UNL     1      84.570  52.206  42.445  0.00  0.00    +0.312 C 
ATOM      7  O   UNL     1      84.658  51.021  42.861  0.00  0.00    -0.250 OA
ATOM      8  O   UNL     1      83.372  52.880  42.412  0.00  0.00    -0.464 OA
ATOM      9  C   UNL     1      83.522  54.191  41.907  0.00  0.00    +0.096 C 
ATOM     10  C   UNL     1      85.049  54.437  41.805  0.00  0.00    +0.011 C 
ATOM     11  C   UNL     1      85.521  55.483  42.858  0.00  0.00    -0.017 C 
ATOM     12  C   UNL     1      85.721  54.848  44.223  0.00  0.00    +0.002 A 
ATOM     13  C   UNL     1      85.214  55.439  45.398  0.00  0.00    +0.169 A 
ATOM     14  C   UNL     1      85.361  54.767  46.643  0.00  0.00    +0.204 A 
ENDROOT
BRANCH   4  15
ATOM     15  C   UNL     1      87.795  51.812  43.039  0.00  0.00    -0.035 A 
ATOM     16  C   UNL     1      87.794  50.937  44.165  0.00  0.00    -0.054 A 
ATOM     17  C   UNL     1      88.579  49.770  44.174  0.00  0.00    -0.016 A 
ATOM     18  C   UNL     1      89.327  49.480  43.040  0.00  0.00    +0.166 A 
ATOM     19  C   UNL     1      89.304  50.275  41.945  0.00  0.00    +0.167 A 
ATOM     20  C   UNL     1      88.543  51.437  41.893  0.00  0.00    -0.012 A 
ATOM     21  O   UNL     1      90.121  49.738  40.968  0.00  0.00    -0.453 OA
ATOM     22  C   UNL     1      90.694  48.530  41.486  0.00  0.00    +0.233 C 
ATOM     23  O   UNL     1      90.159  48.401  42.811  0.00  0.00    -0.453 OA
ENDBRANCH   4  15
BRANCH   1  25
ATOM     24  C   UNL     1      86.346  51.395  48.015  0.00  0.00    +0.079 C 
ATOM     25  O   UNL     1      86.085  52.790  47.890  0.00  0.00    -0.491 OA
ENDBRANCH   1  25
BRANCH  14  26
ATOM     26  O   UNL     1      84.874  55.398  47.804  0.00  0.00    -0.488 OA
ATOM     27  C   UNL     1      83.719  55.048  48.560  0.00  0.00    +0.079 C 
ENDBRANCH  14  26
BRANCH  13  28
ATOM     28  O   UNL     1      84.576  56.689  45.262  0.00  0.00    -0.491 OA
ATOM     29  C   UNL     1      85.132  57.974  45.518  0.00  0.00    +0.079 C 
ENDBRANCH  13  28
TORSDOF 4
ENDMDL
MODEL 6
REMARK VINA RESULT:    -8.390      2.618      6.791
REMARK INTER + INTRA:         -10.518
REMARK INTER:                 -10.431
REMARK INTRA:                  -0.087
REMARK UNBOUND:                -0.166
REMARK  Name = 
REMARK  7 active torsions:
REMARK  status: ('A' for Active; 'I' for Inactive)
REMARK    1  A    between atoms: C_1  and  O_2
REMARK    2  A    between atoms: O_2  and  C_3
REMARK    3  A    between atoms: C_6  and  C_7
REMARK    4  A    between atoms: C_24  and  O_28
REMARK    5  A    between atoms: C_25  and  O_26
REMARK    6  A    between atoms: O_26  and  C_27
REMARK    7  A    between atoms: O_28  and  C_29
REMARK                            x       y       z     vdW  Elec       q    Type
REMARK                         _______ _______ _______ _____ _____    ______ ____
ROOT
ATOM      1  C   UNL     1      86.445  52.831  40.525  0.00  0.00    +0.165 A 
ATOM      2  C   UNL     1      86.544  51.674  41.314  0.00  0.00    -0.012 A 
ATOM      3  C   UNL     1      85.535  51.328  42.221  0.00  0.00    -0.029 A 
ATOM      4  C   UNL     1      85.595  50.098  43.123  0.00  0.00    +0.023 C 
ATOM      5  C   UNL     1      85.508  50.588  44.597  0.00  0.00    +0.073 C 
ATOM      6  C   UNL     1      86.597  51.537  44.979  0.00  0.00    +0.312 C 
ATOM      7  O   UNL     1      87.827  51.335  44.797  0.00  0.00    -0.250 OA
ATOM      8  O   UNL     1      86.126  52.695  45.550  0.00  0.00    -0.464 OA
ATOM      9  C   UNL     1      84.717  52.693  45.652  0.00  0.00    +0.096 C 
ATOM     10  C   UNL     1      84.232  51.458  44.850  0.00  0.00    +0.011 C 
ATOM     11  C   UNL     1      83.491  51.888  43.550  0.00  0.00    -0.017 C 
ATOM     12  C   UNL     1      84.469  52.218  42.435  0.00  0.00    +0.002 A 
ATOM     13  C   UNL     1      84.336  53.383  41.653  0.00  0.00    +0.169 A 
ATOM     14  C   UNL     1      85.321  53.688  40.673  0.00  0.00    +0.204 A 
ENDROOT
BRANCH   4  15
ATOM     15  C   UNL     1      86.678  49.069  42.786  0.00  0.00    -0.035 A 
ATOM     16  C   UNL     1      88.004  49.426  42.406  0.00  0.00    -0.054 A 
ATOM     17  C   UNL     1      88.976  48.440  42.156  0.00  0.00    -0.016 A 
ATOM     18  C   UNL     1      88.611  47.110  42.326  0.00  0.00    +0.166 A 
ATOM     19  C   UNL     1      87.370  46.755  42.731  0.00  0.00    +0.167 A 
ATOM     20  C   UNL     1      86.380  47.696  42.989  0.00  0.00    -0.012 A 
ATOM     21  O   UNL     1      87.294  45.379  42.833  0.00  0.00    -0.453 OA
ATOM     22  C   UNL     1      88.570  44.837  42.465  0.00  0.00    +0.233 C 
ATOM     23  O   UNL     1      89.383  45.977  42.151  0.00  0.00    -0.453 OA
ENDBRANCH   4  15
BRANCH   1  25
ATOM     24  C   UNL     1      88.654  52.408  39.404  0.00  0.00    +0.079 C 
ATOM     25  O   UNL     1      87.453  53.149  39.599  0.00  0.00    -0.491 OA
ENDBRANCH   1  25
BRANCH  14  26
ATOM     26  O   UNL     1      85.143  54.841  39.884  0.00  0.00    -0.488 OA
ATOM     27  C   UNL     1      84.411  54.953  38.668  0.00  0.00    +0.079 C 
ENDBRANCH  14  26
BRANCH  13  28
ATOM     28  O   UNL     1      83.209  54.194  41.899  0.00  0.00    -0.491 OA
ATOM     29  C   UNL     1      81.952  54.149  41.233  0.00  0.00    +0.079 C 
ENDBRANCH  13  28
TORSDOF 4
ENDMDL
MODEL 7
REMARK VINA RESULT:    -8.264      2.128      5.633
REMARK INTER + INTRA:         -10.363
REMARK INTER:                 -10.508
REMARK INTRA:                   0.145
REMARK UNBOUND:                -0.166
REMARK  Name = 
REMARK  7 active torsions:
REMARK  status: ('A' for Active; 'I' for Inactive)
REMARK    1  A    between atoms: C_1  and  O_2
REMARK    2  A    between atoms: O_2  and  C_3
REMARK    3  A    between atoms: C_6  and  C_7
REMARK    4  A    between atoms: C_24  and  O_28
REMARK    5  A    between atoms: C_25  and  O_26
REMARK    6  A    between atoms: O_26  and  C_27
REMARK    7  A    between atoms: O_28  and  C_29
REMARK                            x       y       z     vdW  Elec       q    Type
REMARK                         _______ _______ _______ _____ _____    ______ ____
ROOT
ATOM      1  C   UNL     1      85.167  53.691  45.915  0.00  0.00    +0.165 A 
ATOM      2  C   UNL     1      85.013  53.363  44.558  0.00  0.00    -0.012 A 
ATOM      3  C   UNL     1      85.249  52.062  44.097  0.00  0.00    -0.029 A 
ATOM      4  C   UNL     1      85.123  51.650  42.633  0.00  0.00    +0.023 C 
ATOM      5  C   UNL     1      86.504  51.096  42.177  0.00  0.00    +0.073 C 
ATOM      6  C   UNL     1      87.621  52.079  42.321  0.00  0.00    +0.312 C 
ATOM      7  O   UNL     1      87.604  53.259  41.881  0.00  0.00    -0.250 OA
ATOM      8  O   UNL     1      88.696  51.574  43.012  0.00  0.00    -0.464 OA
ATOM      9  C   UNL     1      88.484  50.232  43.402  0.00  0.00    +0.096 C 
ATOM     10  C   UNL     1      86.997  49.926  43.092  0.00  0.00    +0.011 C 
ATOM     11  C   UNL     1      86.173  49.759  44.403  0.00  0.00    -0.017 C 
ATOM     12  C   UNL     1      85.768  51.103  44.982  0.00  0.00    +0.002 A 
ATOM     13  C   UNL     1      85.925  51.398  46.351  0.00  0.00    +0.169 A 
ATOM     14  C   UNL     1      85.603  52.698  46.832  0.00  0.00    +0.204 A 
ENDROOT
BRANCH   4  15
ATOM     15  C   UNL     1      84.426  52.652  41.708  0.00  0.00    -0.035 A 
ATOM     16  C   UNL     1      83.115  53.157  41.950  0.00  0.00    -0.054 A 
ATOM     17  C   UNL     1      82.541  54.116  41.095  0.00  0.00    -0.016 A 
ATOM     18  C   UNL     1      83.304  54.579  40.031  0.00  0.00    +0.166 A 
ATOM     19  C   UNL     1      84.566  54.144  39.813  0.00  0.00    +0.167 A 
ATOM     20  C   UNL     1      85.173  53.198  40.632  0.00  0.00    -0.012 A 
ATOM     21  O   UNL     1      85.089  54.782  38.705  0.00  0.00    -0.453 OA
ATOM     22  C   UNL     1      84.088  55.673  38.194  0.00  0.00    +0.233 C 
ATOM     23  O   UNL     1      82.964  55.513  39.071  0.00  0.00    -0.453 OA
ENDBRANCH   4  15
BRANCH   1  25
ATOM     24  C   UNL     1      85.857  56.043  46.467  0.00  0.00    +0.079 C 
ATOM     25  O   UNL     1      84.898  54.994  46.367  0.00  0.00    -0.491 OA
ENDBRANCH   1  25
BRANCH  14  26
ATOM     26  O   UNL     1      85.739  52.952  48.211  0.00  0.00    -0.488 OA
ATOM     27  C   UNL     1      84.715  52.927  49.200  0.00  0.00    +0.079 C 
ENDBRANCH  14  26
BRANCH  13  28
ATOM     28  O   UNL     1      86.404  50.361  47.179  0.00  0.00    -0.491 OA
ATOM     29  C   UNL     1      87.721  50.212  47.699  0.00  0.00    +0.079 C 
ENDBRANCH  13  28
TORSDOF 4
ENDMDL
MODEL 8
REMARK VINA RESULT:    -7.692      2.185      7.263
REMARK INTER + INTRA:          -9.657
REMARK INTER:                  -9.520
REMARK INTRA:                  -0.137
REMARK UNBOUND:                -0.166
REMARK  Name = 
REMARK  7 active torsions:
REMARK  status: ('A' for Active; 'I' for Inactive)
REMARK    1  A    between atoms: C_1  and  O_2
REMARK    2  A    between atoms: O_2  and  C_3
REMARK    3  A    between atoms: C_6  and  C_7
REMARK    4  A    between atoms: C_24  and  O_28
REMARK    5  A    between atoms: C_25  and  O_26
REMARK    6  A    between atoms: O_26  and  C_27
REMARK    7  A    between atoms: O_28  and  C_29
REMARK                            x       y       z     vdW  Elec       q    Type
REMARK                         _______ _______ _______ _____ _____    ______ ____
ROOT
ATOM      1  C   UNL     1      85.756  52.545  46.441  0.00  0.00    +0.165 A 
ATOM      2  C   UNL     1      85.927  51.660  45.363  0.00  0.00    -0.012 A 
ATOM      3  C   UNL     1      86.444  52.102  44.140  0.00  0.00    -0.029 A 
ATOM      4  C   UNL     1      86.630  51.197  42.925  0.00  0.00    +0.023 C 
ATOM      5  C   UNL     1      85.790  51.792  41.758  0.00  0.00    +0.073 C 
ATOM      6  C   UNL     1      84.333  51.913  42.069  0.00  0.00    +0.312 C 
ATOM      7  O   UNL     1      83.612  50.985  42.521  0.00  0.00    -0.250 OA
ATOM      8  O   UNL     1      83.834  53.171  41.828  0.00  0.00    -0.464 OA
ATOM      9  C   UNL     1      84.827  54.041  41.324  0.00  0.00    +0.096 C 
ATOM     10  C   UNL     1      86.171  53.281  41.464  0.00  0.00    +0.011 C 
ATOM     11  C   UNL     1      87.073  53.931  42.554  0.00  0.00    -0.017 C 
ATOM     12  C   UNL     1      86.678  53.474  43.948  0.00  0.00    +0.002 A 
ATOM     13  C   UNL     1      86.526  54.385  45.012  0.00  0.00    +0.169 A 
ATOM     14  C   UNL     1      86.080  53.919  46.280  0.00  0.00    +0.204 A 
ENDROOT
BRANCH   4  15
ATOM     15  C   UNL     1      86.509  49.692  43.182  0.00  0.00    -0.035 A 
ATOM     16  C   UNL     1      85.637  49.135  44.162  0.00  0.00    -0.054 A 
ATOM     17  C   UNL     1      85.527  47.741  44.323  0.00  0.00    -0.016 A 
ATOM     18  C   UNL     1      86.266  46.928  43.474  0.00  0.00    +0.166 A 
ATOM     19  C   UNL     1      87.064  47.439  42.508  0.00  0.00    +0.167 A 
ATOM     20  C   UNL     1      87.202  48.809  42.314  0.00  0.00    -0.012 A 
ATOM     21  O   UNL     1      87.659  46.408  41.808  0.00  0.00    -0.453 OA
ATOM     22  C   UNL     1      87.208  45.170  42.374  0.00  0.00    +0.233 C 
ATOM     23  O   UNL     1      86.318  45.547  43.435  0.00  0.00    -0.453 OA
ENDBRANCH   4  15
BRANCH   1  25
ATOM     24  C   UNL     1      86.062  51.692  48.785  0.00  0.00    +0.079 C 
ATOM     25  O   UNL     1      85.263  52.080  47.671  0.00  0.00    -0.491 OA
ENDBRANCH   1  25
BRANCH  14  26
ATOM     26  O   UNL     1      85.971  54.848  47.332  0.00  0.00    -0.488 OA
ATOM     27  C   UNL     1      84.803  55.546  47.753  0.00  0.00    +0.079 C 
ENDBRANCH  14  26
BRANCH  13  28
ATOM     28  O   UNL     1      86.831  55.737  44.746  0.00  0.00    -0.491 OA
ATOM     29  C   UNL     1      85.922  56.772  44.388  0.00  0.00    +0.079 C 
ENDBRANCH  13  28
TORSDOF 4
ENDMDL
MODEL 9
REMARK VINA RESULT:    -7.579      2.510      4.311
REMARK INTER + INTRA:          -9.517
REMARK INTER:                  -9.351
REMARK INTRA:                  -0.166
REMARK UNBOUND:                -0.166
REMARK  Name = 
REMARK  7 active torsions:
REMARK  status: ('A' for Active; 'I' for Inactive)
REMARK    1  A    between atoms: C_1  and  O_2
REMARK    2  A    between atoms: O_2  and  C_3
REMARK    3  A    between atoms: C_6  and  C_7
REMARK    4  A    between atoms: C_24  and  O_28
REMARK    5  A    between atoms: C_25  and  O_26
REMARK    6  A    between atoms: O_26  and  C_27
REMARK    7  A    between atoms: O_28  and  C_29
REMARK                            x       y       z     vdW  Elec       q    Type
REMARK                         _______ _______ _______ _____ _____    ______ ____
ROOT
ATOM      1  C   UNL     1      87.247  48.926  42.747  0.00  0.00    +0.165 A 
ATOM      2  C   UNL     1      86.525  49.858  43.512  0.00  0.00    -0.012 A 
ATOM      3  C   UNL     1      85.242  49.564  43.988  0.00  0.00    -0.029 A 
ATOM      4  C   UNL     1      84.399  50.542  44.802  0.00  0.00    +0.023 C 
ATOM      5  C   UNL     1      83.074  50.786  44.023  0.00  0.00    +0.073 C 
ATOM      6  C   UNL     1      83.280  51.333  42.647  0.00  0.00    +0.312 C 
ATOM      7  O   UNL     1      83.987  52.337  42.368  0.00  0.00    -0.250 OA
ATOM      8  O   UNL     1      82.623  50.613  41.678  0.00  0.00    -0.464 OA
ATOM      9  C   UNL     1      81.894  49.535  42.230  0.00  0.00    +0.096 C 
ATOM     10  C   UNL     1      82.320  49.449  43.718  0.00  0.00    +0.011 C 
ATOM     11  C   UNL     1      83.166  48.170  43.987  0.00  0.00    -0.017 C 
ATOM     12  C   UNL     1      84.618  48.369  43.591  0.00  0.00    +0.002 A 
ATOM     13  C   UNL     1      85.319  47.410  42.832  0.00  0.00    +0.169 A 
ATOM     14  C   UNL     1      86.654  47.676  42.420  0.00  0.00    +0.204 A 
ENDROOT
BRANCH   4  15
ATOM     15  C   UNL     1      85.131  51.771  45.347  0.00  0.00    -0.035 A 
ATOM     16  C   UNL     1      86.551  51.853  45.448  0.00  0.00    -0.054 A 
ATOM     17  C   UNL     1      87.177  53.026  45.909  0.00  0.00    -0.016 A 
ATOM     18  C   UNL     1      86.370  54.111  46.227  0.00  0.00    +0.166 A 
ATOM     19  C   UNL     1      85.025  54.066  46.093  0.00  0.00    +0.167 A 
ATOM     20  C   UNL     1      84.366  52.929  45.642  0.00  0.00    -0.012 A 
ATOM     21  O   UNL     1      84.484  55.283  46.461  0.00  0.00    -0.453 OA
ATOM     22  C   UNL     1      85.561  56.145  46.854  0.00  0.00    +0.233 C 
ATOM     23  O   UNL     1      86.748  55.358  46.688  0.00  0.00    -0.453 OA
ENDBRANCH   4  15
BRANCH   1  25
ATOM     24  C   UNL     1      89.746  48.940  43.011  0.00  0.00    +0.079 C 
ATOM     25  O   UNL     1      88.545  49.225  42.300  0.00  0.00    -0.491 OA
ENDBRANCH   1  25
BRANCH  14  26
ATOM     26  O   UNL     1      87.339  46.684  41.693  0.00  0.00    -0.488 OA
ATOM     27  C   UNL     1      88.106  45.604  42.213  0.00  0.00    +0.079 C 
ENDBRANCH  14  26
BRANCH  13  28
ATOM     28  O   UNL     1      84.634  46.216  42.520  0.00  0.00    -0.491 OA
ATOM     29  C   UNL     1      84.607  45.014  43.281  0.00  0.00    +0.079 C 
ENDBRANCH  13  28
TORSDOF 4
ENDMDL
