MODEL 1
REMARK VINA RESULT:    -8.775      0.000      0.000
REMARK INTER + INTRA:         -14.073
REMARK INTER:                 -12.557
REMARK INTRA:                  -1.516
REMARK UNBOUND:                -1.193
REMARK  Name = 
REMARK  9 active torsions:
REMARK  status: ('A' for Active; 'I' for Inactive)
REMARK    1  A    between atoms: C_1  and  O_2
REMARK    2  A    between atoms: O_2  and  C_3
REMARK    3  A    between atoms: C_4  and  O_20
REMARK    4  A    between atoms: C_8  and  C_9
REMARK    5  A    between atoms: C_9  and  O_10
REMARK    6  A    between atoms: O_10  and  C_11
REMARK    7  A    between atoms: C_11  and  C_13
REMARK    8  A    between atoms: O_20  and  C_21
REMARK    9  A    between atoms: C_21  and  C_23
REMARK                            x       y       z     vdW  Elec       q    Type
REMARK                         _______ _______ _______ _____ _____    ______ ____
ROOT
ATOM      1  C   UNL     1      85.579  53.948  43.100  0.00  0.00    +0.134 C 
ATOM      2  C   UNL     1      84.439  53.780  44.126  0.00  0.00    +0.151 C 
ATOM      3  C   UNL     1      84.195  52.322  44.434  0.00  0.00    -0.043 C 
ATOM      4  C   UNL     1      84.295  51.382  43.483  0.00  0.00    -0.053 C 
ATOM      5  C   UNL     1      84.782  51.694  42.093  0.00  0.00    +0.113 C 
ATOM      6  C   UNL     1      85.400  53.028  41.871  0.00  0.00    +0.163 C 
ATOM      7  O   UNL     1      84.059  52.764  41.515  0.00  0.00    -0.354 OA
ENDROOT
BRANCH   1   9
ATOM      8  C   UNL     1      84.284  55.760  42.413  0.00  0.00    +0.037 C 
ATOM      9  O   UNL     1      85.593  55.296  42.655  0.00  0.00    -0.373 OA
ENDBRANCH   1   9
BRANCH   6  10
ATOM     10  C   UNL     1      86.385  53.125  40.693  0.00  0.00    +0.127 C 
BRANCH  10  11
ATOM     11  O   UNL     1      87.727  52.832  41.086  0.00  0.00    -0.458 OA
BRANCH  11  12
ATOM     12  C   UNL     1      88.427  51.700  40.649  0.00  0.00    +0.339 C 
ATOM     13  O   UNL     1      88.667  51.540  39.420  0.00  0.00    -0.245 OA
BRANCH  12  14
ATOM     14  C   UNL     1      88.882  50.692  41.632  0.00  0.00    +0.059 A 
ATOM     15  C   UNL     1      89.925  49.800  41.317  0.00  0.00    -0.048 A 
ATOM     16  C   UNL     1      90.345  48.847  42.250  0.00  0.00    -0.061 A 
ATOM     17  C   UNL     1      89.732  48.773  43.502  0.00  0.00    -0.062 A 
ATOM     18  C   UNL     1      88.696  49.652  43.824  0.00  0.00    -0.061 A 
ATOM     19  C   UNL     1      88.270  50.608  42.896  0.00  0.00    -0.048 A 
ENDBRANCH  12  14
ENDBRANCH  11  12
ENDBRANCH  10  11
ENDBRANCH   6  10
BRANCH   2  20
ATOM     20  O   UNL     1      84.780  54.482  45.321  0.00  0.00    -0.451 OA
BRANCH  20  21
ATOM     21  C   UNL     1      86.023  54.368  45.960  0.00  0.00    +0.340 C 
ATOM     22  O   UNL     1      86.872  55.296  45.861  0.00  0.00    -0.245 OA
BRANCH  21  23
ATOM     23  C   UNL     1      86.334  53.156  46.747  0.00  0.00    +0.059 A 
ATOM     24  C   UNL     1      85.773  52.963  48.024  0.00  0.00    -0.048 A 
ATOM     25  C   UNL     1      86.073  51.814  48.762  0.00  0.00    -0.061 A 
ATOM     26  C   UNL     1      86.933  50.847  48.236  0.00  0.00    -0.062 A 
ATOM     27  C   UNL     1      87.497  51.029  46.971  0.00  0.00    -0.061 A 
ATOM     28  C   UNL     1      87.201  52.176  46.228  0.00  0.00    -0.048 A 
ENDBRANCH  21  23
ENDBRANCH  20  21
ENDBRANCH   2  20
TORSDOF 8
ENDMDL
MODEL 2
REMARK VINA RESULT:    -8.576      2.597      4.948
REMARK INTER + INTRA:         -13.780
REMARK INTER:                 -12.695
REMARK INTRA:                  -1.084
REMARK UNBOUND:                -1.193
REMARK  Name = 
REMARK  9 active torsions:
REMARK  status: ('A' for Active; 'I' for Inactive)
REMARK    1  A    between atoms: C_1  and  O_2
REMARK    2  A    between atoms: O_2  and  C_3
REMARK    3  A    between atoms: C_4  and  O_20
REMARK    4  A    between atoms: C_8  and  C_9
REMARK    5  A    between atoms: C_9  and  O_10
REMARK    6  A    between atoms: O_10  and  C_11
REMARK    7  A    between atoms: C_11  and  C_13
REMARK    8  A    between atoms: O_20  and  C_21
REMARK    9  A    between atoms: C_21  and  C_23
REMARK                            x       y       z     vdW  Elec       q    Type
REMARK                         _______ _______ _______ _____ _____    ______ ____
ROOT
ATOM      1  C   UNL     1      85.697  54.303  43.373  0.00  0.00    +0.134 C 
ATOM      2  C   UNL     1      85.983  55.712  43.931  0.00  0.00    +0.151 C 
ATOM      3  C   UNL     1      84.714  56.523  44.039  0.00  0.00    -0.043 C 
ATOM      4  C   UNL     1      83.742  56.423  43.121  0.00  0.00    -0.053 C 
ATOM      5  C   UNL     1      83.790  55.411  42.007  0.00  0.00    +0.113 C 
ATOM      6  C   UNL     1      84.822  54.345  42.099  0.00  0.00    +0.163 C 
ATOM      7  O   UNL     1      85.006  55.485  41.287  0.00  0.00    -0.354 OA
ENDROOT
BRANCH   1   9
ATOM      8  C   UNL     1      87.101  52.487  43.778  0.00  0.00    +0.037 C 
ATOM      9  O   UNL     1      86.932  53.683  43.050  0.00  0.00    -0.373 OA
ENDBRANCH   1   9
BRANCH   6  10
ATOM     10  C   UNL     1      84.511  53.042  41.341  0.00  0.00    +0.127 C 
BRANCH  10  11
ATOM     11  O   UNL     1      83.866  52.075  42.171  0.00  0.00    -0.458 OA
BRANCH  11  12
ATOM     12  C   UNL     1      82.481  51.864  42.172  0.00  0.00    +0.339 C 
ATOM     13  O   UNL     1      81.716  52.680  41.586  0.00  0.00    -0.245 OA
BRANCH  12  14
ATOM     14  C   UNL     1      81.918  50.684  42.864  0.00  0.00    +0.059 A 
ATOM     15  C   UNL     1      82.758  49.782  43.545  0.00  0.00    -0.048 A 
ATOM     16  C   UNL     1      82.219  48.666  44.193  0.00  0.00    -0.061 A 
ATOM     17  C   UNL     1      80.842  48.439  44.170  0.00  0.00    -0.062 A 
ATOM     18  C   UNL     1      80.000  49.326  43.496  0.00  0.00    -0.061 A 
ATOM     19  C   UNL     1      80.532  50.444  42.845  0.00  0.00    -0.048 A 
ENDBRANCH  12  14
ENDBRANCH  11  12
ENDBRANCH  10  11
ENDBRANCH   6  10
BRANCH   2  20
ATOM     20  O   UNL     1      86.597  55.590  45.214  0.00  0.00    -0.451 OA
BRANCH  20  21
ATOM     21  C   UNL     1      85.974  55.968  46.411  0.00  0.00    +0.340 C 
ATOM     22  O   UNL     1      85.904  57.187  46.731  0.00  0.00    -0.245 OA
BRANCH  21  23
ATOM     23  C   UNL     1      85.402  54.932  47.299  0.00  0.00    +0.059 A 
ATOM     24  C   UNL     1      86.006  53.665  47.407  0.00  0.00    -0.048 A 
ATOM     25  C   UNL     1      85.459  52.691  48.248  0.00  0.00    -0.061 A 
ATOM     26  C   UNL     1      84.307  52.969  48.989  0.00  0.00    -0.062 A 
ATOM     27  C   UNL     1      83.699  54.222  48.887  0.00  0.00    -0.061 A 
ATOM     28  C   UNL     1      84.241  55.201  48.048  0.00  0.00    -0.048 A 
ENDBRANCH  21  23
ENDBRANCH  20  21
ENDBRANCH   2  20
TORSDOF 8
ENDMDL
MODEL 3
REMARK VINA RESULT:    -8.575      4.632      8.082
REMARK INTER + INTRA:         -13.779
REMARK INTER:                 -13.285
REMARK INTRA:                  -0.494
REMARK UNBOUND:                -1.193
REMARK  Name = 
REMARK  9 active torsions:
REMARK  status: ('A' for Active; 'I' for Inactive)
REMARK    1  A    between atoms: C_1  and  O_2
REMARK    2  A    between atoms: O_2  and  C_3
REMARK    3  A    between atoms: C_4  and  O_20
REMARK    4  A    between atoms: C_8  and  C_9
REMARK    5  A    between atoms: C_9  and  O_10
REMARK    6  A    between atoms: O_10  and  C_11
REMARK    7  A    between atoms: C_11  and  C_13
REMARK    8  A    between atoms: O_20  and  C_21
REMARK    9  A    between atoms: C_21  and  C_23
REMARK                            x       y       z     vdW  Elec       q    Type
REMARK                         _______ _______ _______ _____ _____    ______ ____
ROOT
ATOM      1  C   UNL     1      85.732  46.545  42.890  0.00  0.00    +0.134 C 
ATOM      2  C   UNL     1      87.261  46.594  42.691  0.00  0.00    +0.151 C 
ATOM      3  C   UNL     1      87.794  45.257  42.236  0.00  0.00    -0.043 C 
ATOM      4  C   UNL     1      87.283  44.108  42.700  0.00  0.00    -0.053 C 
ATOM      5  C   UNL     1      86.070  44.069  43.590  0.00  0.00    +0.113 C 
ATOM      6  C   UNL     1      85.292  45.327  43.736  0.00  0.00    +0.163 C 
ATOM      7  O   UNL     1      86.222  44.914  44.715  0.00  0.00    -0.354 OA
ENDROOT
BRANCH   1   9
ATOM      8  C   UNL     1      86.101  47.951  44.712  0.00  0.00    +0.037 C 
ATOM      9  O   UNL     1      85.322  47.728  43.558  0.00  0.00    -0.373 OA
ENDBRANCH   1   9
BRANCH   6  10
ATOM     10  C   UNL     1      83.812  45.161  44.125  0.00  0.00    +0.127 C 
BRANCH  10  11
ATOM     11  O   UNL     1      82.991  46.196  43.581  0.00  0.00    -0.458 OA
BRANCH  11  12
ATOM     12  C   UNL     1      81.929  46.784  44.281  0.00  0.00    +0.339 C 
ATOM     13  O   UNL     1      81.433  46.200  45.284  0.00  0.00    -0.245 OA
BRANCH  12  14
ATOM     14  C   UNL     1      81.389  48.088  43.838  0.00  0.00    +0.059 A 
ATOM     15  C   UNL     1      82.234  49.058  43.264  0.00  0.00    -0.048 A 
ATOM     16  C   UNL     1      81.717  50.290  42.852  0.00  0.00    -0.061 A 
ATOM     17  C   UNL     1      80.358  50.568  43.007  0.00  0.00    -0.062 A 
ATOM     18  C   UNL     1      79.511  49.614  43.576  0.00  0.00    -0.061 A 
ATOM     19  C   UNL     1      80.021  48.379  43.991  0.00  0.00    -0.048 A 
ENDBRANCH  12  14
ENDBRANCH  11  12
ENDBRANCH  10  11
ENDBRANCH   6  10
BRANCH   2  20
ATOM     20  O   UNL     1      87.572  47.600  41.727  0.00  0.00    -0.451 OA
BRANCH  20  21
ATOM     21  C   UNL     1      88.759  48.346  41.740  0.00  0.00    +0.340 C 
ATOM     22  O   UNL     1      89.875  47.763  41.648  0.00  0.00    -0.245 OA
BRANCH  21  23
ATOM     23  C   UNL     1      88.697  49.818  41.865  0.00  0.00    +0.059 A 
ATOM     24  C   UNL     1      87.966  50.422  42.906  0.00  0.00    -0.048 A 
ATOM     25  C   UNL     1      87.913  51.815  43.017  0.00  0.00    -0.061 A 
ATOM     26  C   UNL     1      88.586  52.619  42.094  0.00  0.00    -0.062 A 
ATOM     27  C   UNL     1      89.313  52.030  41.057  0.00  0.00    -0.061 A 
ATOM     28  C   UNL     1      89.371  50.638  40.940  0.00  0.00    -0.048 A 
ENDBRANCH  21  23
ENDBRANCH  20  21
ENDBRANCH   2  20
TORSDOF 8
ENDMDL
MODEL 4
REMARK VINA RESULT:    -8.525      4.995      7.777
REMARK INTER + INTRA:         -13.705
REMARK INTER:                 -12.789
REMARK INTRA:                  -0.916
REMARK UNBOUND:                -1.193
REMARK  Name = 
REMARK  9 active torsions:
REMARK  status: ('A' for Active; 'I' for Inactive)
REMARK    1  A    between atoms: C_1  and  O_2
REMARK    2  A    between atoms: O_2  and  C_3
REMARK    3  A    between atoms: C_4  and  O_20
REMARK    4  A    between atoms: C_8  and  C_9
REMARK    5  A    between atoms: C_9  and  O_10
REMARK    6  A    between atoms: O_10  and  C_11
REMARK    7  A    between atoms: C_11  and  C_13
REMARK    8  A    between atoms: O_20  and  C_21
REMARK    9  A    between atoms: C_21  and  C_23
REMARK                            x       y       z     vdW  Elec       q    Type
REMARK                         _______ _______ _______ _____ _____    ______ ____
ROOT
ATOM      1  C   UNL     1      84.564  47.601  43.738  0.00  0.00    +0.134 C 
ATOM      2  C   UNL     1      86.089  47.490  43.948  0.00  0.00    +0.151 C 
ATOM      3  C   UNL     1      86.658  46.315  43.191  0.00  0.00    -0.043 C 
ATOM      4  C   UNL     1      85.979  45.164  43.076  0.00  0.00    -0.053 C 
ATOM      5  C   UNL     1      84.565  45.012  43.570  0.00  0.00    +0.113 C 
ATOM      6  C   UNL     1      83.843  46.252  43.960  0.00  0.00    +0.163 C 
ATOM      7  O   UNL     1      84.441  45.409  44.922  0.00  0.00    -0.354 OA
ENDROOT
BRANCH   1   9
ATOM      8  C   UNL     1      83.614  49.714  43.998  0.00  0.00    +0.037 C 
ATOM      9  O   UNL     1      84.046  48.546  44.661  0.00  0.00    -0.373 OA
ENDBRANCH   1   9
BRANCH   6  10
ATOM     10  C   UNL     1      82.308  46.185  43.892  0.00  0.00    +0.127 C 
BRANCH  10  11
ATOM     11  O   UNL     1      81.693  46.660  45.090  0.00  0.00    -0.458 OA
BRANCH  11  12
ATOM     12  C   UNL     1      80.312  46.860  45.220  0.00  0.00    +0.339 C 
ATOM     13  O   UNL     1      79.577  45.933  45.661  0.00  0.00    -0.245 OA
BRANCH  12  14
ATOM     14  C   UNL     1      79.718  48.159  44.834  0.00  0.00    +0.059 A 
ATOM     15  C   UNL     1      78.710  48.750  45.619  0.00  0.00    -0.048 A 
ATOM     16  C   UNL     1      78.151  49.976  45.245  0.00  0.00    -0.061 A 
ATOM     17  C   UNL     1      78.589  50.623  44.088  0.00  0.00    -0.062 A 
ATOM     18  C   UNL     1      79.587  50.045  43.301  0.00  0.00    -0.061 A 
ATOM     19  C   UNL     1      80.151  48.818  43.669  0.00  0.00    -0.048 A 
ENDBRANCH  12  14
ENDBRANCH  11  12
ENDBRANCH  10  11
ENDBRANCH   6  10
BRANCH   2  20
ATOM     20  O   UNL     1      86.709  48.700  43.512  0.00  0.00    -0.451 OA
BRANCH  20  21
ATOM     21  C   UNL     1      87.695  49.374  44.245  0.00  0.00    +0.340 C 
ATOM     22  O   UNL     1      88.916  49.169  44.001  0.00  0.00    -0.245 OA
BRANCH  21  23
ATOM     23  C   UNL     1      87.298  50.325  45.306  0.00  0.00    +0.059 A 
ATOM     24  C   UNL     1      87.312  49.938  46.660  0.00  0.00    -0.048 A 
ATOM     25  C   UNL     1      86.935  50.843  47.657  0.00  0.00    -0.061 A 
ATOM     26  C   UNL     1      86.541  52.139  47.317  0.00  0.00    -0.062 A 
ATOM     27  C   UNL     1      86.522  52.532  45.977  0.00  0.00    -0.061 A 
ATOM     28  C   UNL     1      86.898  51.633  44.974  0.00  0.00    -0.048 A 
ENDBRANCH  21  23
ENDBRANCH  20  21
ENDBRANCH   2  20
TORSDOF 8
ENDMDL
MODEL 5
REMARK VINA RESULT:    -8.437      2.216      4.996
REMARK INTER + INTRA:         -13.576
REMARK INTER:                 -11.253
REMARK INTRA:                  -2.323
REMARK UNBOUND:                -1.193
REMARK  Name = 
REMARK  9 active torsions:
REMARK  status: ('A' for Active; 'I' for Inactive)
REMARK    1  A    between atoms: C_1  and  O_2
REMARK    2  A    between atoms: O_2  and  C_3
REMARK    3  A    between atoms: C_4  and  O_20
REMARK    4  A    between atoms: C_8  and  C_9
REMARK    5  A    between atoms: C_9  and  O_10
REMARK    6  A    between atoms: O_10  and  C_11
REMARK    7  A    between atoms: C_11  and  C_13
REMARK    8  A    between atoms: O_20  and  C_21
REMARK    9  A    between atoms: C_21  and  C_23
REMARK                            x       y       z     vdW  Elec       q    Type
REMARK                         _______ _______ _______ _____ _____    ______ ____
ROOT
ATOM      1  C   UNL     1      85.280  51.991  42.831  0.00  0.00    +0.134 C 
ATOM      2  C   UNL     1      86.121  50.982  43.640  0.00  0.00    +0.151 C 
ATOM      3  C   UNL     1      87.533  51.482  43.832  0.00  0.00    -0.043 C 
ATOM      4  C   UNL     1      88.169  52.161  42.867  0.00  0.00    -0.053 C 
ATOM      5  C   UNL     1      87.483  52.586  41.596  0.00  0.00    +0.113 C 
ATOM      6  C   UNL     1      86.002  52.457  41.546  0.00  0.00    +0.163 C 
ATOM      7  O   UNL     1      86.849  51.494  40.956  0.00  0.00    -0.354 OA
ENDROOT
BRANCH   1   9
ATOM      8  C   UNL     1      82.959  52.031  43.046  0.00  0.00    +0.037 C 
ATOM      9  O   UNL     1      84.059  51.370  42.460  0.00  0.00    -0.373 OA
ENDBRANCH   1   9
BRANCH   6  10
ATOM     10  C   UNL     1      85.280  53.389  40.557  0.00  0.00    +0.127 C 
BRANCH  10  11
ATOM     11  O   UNL     1      85.317  54.754  40.977  0.00  0.00    -0.458 OA
BRANCH  11  12
ATOM     12  C   UNL     1      84.420  55.298  41.906  0.00  0.00    +0.339 C 
ATOM     13  O   UNL     1      83.181  55.292  41.668  0.00  0.00    -0.245 OA
BRANCH  12  14
ATOM     14  C   UNL     1      84.932  55.882  43.166  0.00  0.00    +0.059 A 
ATOM     15  C   UNL     1      84.197  56.869  43.851  0.00  0.00    -0.048 A 
ATOM     16  C   UNL     1      84.690  57.419  45.038  0.00  0.00    -0.061 A 
ATOM     17  C   UNL     1      85.916  56.993  45.553  0.00  0.00    -0.062 A 
ATOM     18  C   UNL     1      86.653  56.016  44.881  0.00  0.00    -0.061 A 
ATOM     19  C   UNL     1      86.167  55.461  43.692  0.00  0.00    -0.048 A 
ENDBRANCH  12  14
ENDBRANCH  11  12
ENDBRANCH  10  11
ENDBRANCH   6  10
BRANCH   2  20
ATOM     20  O   UNL     1      85.501  50.770  44.908  0.00  0.00    -0.451 OA
BRANCH  20  21
ATOM     21  C   UNL     1      86.076  51.156  46.127  0.00  0.00    +0.340 C 
ATOM     22  O   UNL     1      87.026  50.486  46.619  0.00  0.00    -0.245 OA
BRANCH  21  23
ATOM     23  C   UNL     1      85.562  52.348  46.835  0.00  0.00    +0.059 A 
ATOM     24  C   UNL     1      86.064  52.706  48.101  0.00  0.00    -0.048 A 
ATOM     25  C   UNL     1      85.572  53.834  48.763  0.00  0.00    -0.061 A 
ATOM     26  C   UNL     1      84.577  54.617  48.173  0.00  0.00    -0.062 A 
ATOM     27  C   UNL     1      84.071  54.271  46.918  0.00  0.00    -0.061 A 
ATOM     28  C   UNL     1      84.558  53.143  46.249  0.00  0.00    -0.048 A 
ENDBRANCH  21  23
ENDBRANCH  20  21
ENDBRANCH   2  20
TORSDOF 8
ENDMDL
MODEL 6
REMARK VINA RESULT:    -8.414      2.165      5.802
REMARK INTER + INTRA:         -13.542
REMARK INTER:                 -11.326
REMARK INTRA:                  -2.216
REMARK UNBOUND:                -1.193
REMARK  Name = 
REMARK  9 active torsions:
REMARK  status: ('A' for Active; 'I' for Inactive)
REMARK    1  A    between atoms: C_1  and  O_2
REMARK    2  A    between atoms: O_2  and  C_3
REMARK    3  A    between atoms: C_4  and  O_20
REMARK    4  A    between atoms: C_8  and  C_9
REMARK    5  A    between atoms: C_9  and  O_10
REMARK    6  A    between atoms: O_10  and  C_11
REMARK    7  A    between atoms: C_11  and  C_13
REMARK    8  A    between atoms: O_20  and  C_21
REMARK    9  A    between atoms: C_21  and  C_23
REMARK                            x       y       z     vdW  Elec       q    Type
REMARK                         _______ _______ _______ _____ _____    ______ ____
ROOT
ATOM      1  C   UNL     1      86.158  51.654  43.137  0.00  0.00    +0.134 C 
ATOM      2  C   UNL     1      84.933  52.006  42.267  0.00  0.00    +0.151 C 
ATOM      3  C   UNL     1      83.685  52.122  43.108  0.00  0.00    -0.043 C 
ATOM      4  C   UNL     1      83.470  51.312  44.154  0.00  0.00    -0.053 C 
ATOM      5  C   UNL     1      84.506  50.332  44.638  0.00  0.00    +0.113 C 
ATOM      6  C   UNL     1      85.880  50.466  44.086  0.00  0.00    +0.163 C 
ATOM      7  O   UNL     1      84.973  49.506  43.589  0.00  0.00    -0.354 OA
ENDROOT
BRANCH   1   9
ATOM      8  C   UNL     1      88.316  52.197  42.444  0.00  0.00    +0.037 C 
ATOM      9  O   UNL     1      87.236  51.305  42.282  0.00  0.00    -0.373 OA
ENDBRANCH   1   9
BRANCH   6  10
ATOM     10  C   UNL     1      87.014  49.906  44.963  0.00  0.00    +0.127 C 
BRANCH  10  11
ATOM     11  O   UNL     1      87.572  50.900  45.824  0.00  0.00    -0.458 OA
BRANCH  11  12
ATOM     12  C   UNL     1      87.166  51.083  47.152  0.00  0.00    +0.339 C 
ATOM     13  O   UNL     1      87.592  50.312  48.056  0.00  0.00    -0.245 OA
BRANCH  12  14
ATOM     14  C   UNL     1      86.233  52.180  47.491  0.00  0.00    +0.059 A 
ATOM     15  C   UNL     1      85.669  52.273  48.778  0.00  0.00    -0.048 A 
ATOM     16  C   UNL     1      84.785  53.311  49.089  0.00  0.00    -0.061 A 
ATOM     17  C   UNL     1      84.454  54.263  48.123  0.00  0.00    -0.062 A 
ATOM     18  C   UNL     1      85.006  54.180  46.843  0.00  0.00    -0.061 A 
ATOM     19  C   UNL     1      85.891  53.144  46.525  0.00  0.00    -0.048 A 
ENDBRANCH  12  14
ENDBRANCH  11  12
ENDBRANCH  10  11
ENDBRANCH   6  10
BRANCH   2  20
ATOM     20  O   UNL     1      85.182  53.236  41.587  0.00  0.00    -0.451 OA
BRANCH  20  21
ATOM     21  C   UNL     1      84.492  54.425  41.857  0.00  0.00    +0.340 C 
ATOM     22  O   UNL     1      83.426  54.693  41.237  0.00  0.00    -0.245 OA
BRANCH  21  23
ATOM     23  C   UNL     1      85.020  55.366  42.869  0.00  0.00    +0.059 A 
ATOM     24  C   UNL     1      86.315  55.202  43.396  0.00  0.00    -0.048 A 
ATOM     25  C   UNL     1      86.807  56.095  44.353  0.00  0.00    -0.061 A 
ATOM     26  C   UNL     1      86.016  57.159  44.792  0.00  0.00    -0.062 A 
ATOM     27  C   UNL     1      84.729  57.331  44.276  0.00  0.00    -0.061 A 
ATOM     28  C   UNL     1      84.231  56.440  43.319  0.00  0.00    -0.048 A 
ENDBRANCH  21  23
ENDBRANCH  20  21
ENDBRANCH   2  20
TORSDOF 8
ENDMDL
MODEL 7
REMARK VINA RESULT:    -8.411      2.199      3.961
REMARK INTER + INTRA:         -13.538
REMARK INTER:                 -12.552
REMARK INTRA:                  -0.986
REMARK UNBOUND:                -1.193
REMARK  Name = 
REMARK  9 active torsions:
REMARK  status: ('A' for Active; 'I' for Inactive)
REMARK    1  A    between atoms: C_1  and  O_2
REMARK    2  A    between atoms: O_2  and  C_3
REMARK    3  A    between atoms: C_4  and  O_20
REMARK    4  A    between atoms: C_8  and  C_9
REMARK    5  A    between atoms: C_9  and  O_10
REMARK    6  A    between atoms: O_10  and  C_11
REMARK    7  A    between atoms: C_11  and  C_13
REMARK    8  A    between atoms: O_20  and  C_21
REMARK    9  A    between atoms: C_21  and  C_23
REMARK                            x       y       z     vdW  Elec       q    Type
REMARK                         _______ _______ _______ _____ _____    ______ ____
ROOT
ATOM      1  C   UNL     1      86.637  52.052  44.651  0.00  0.00    +0.134 C 
ATOM      2  C   UNL     1      86.498  52.326  46.163  0.00  0.00    +0.151 C 
ATOM      3  C   UNL     1      87.326  51.356  46.970  0.00  0.00    -0.043 C 
ATOM      4  C   UNL     1      87.458  50.074  46.599  0.00  0.00    -0.053 C 
ATOM      5  C   UNL     1      86.910  49.554  45.297  0.00  0.00    +0.113 C 
ATOM      6  C   UNL     1      86.438  50.558  44.307  0.00  0.00    +0.163 C 
ATOM      7  O   UNL     1      85.538  49.868  45.147  0.00  0.00    -0.354 OA
ENDROOT
BRANCH   1   9
ATOM      8  C   UNL     1      84.386  52.650  44.557  0.00  0.00    +0.037 C 
ATOM      9  O   UNL     1      85.654  52.808  43.960  0.00  0.00    -0.373 OA
ENDBRANCH   1   9
BRANCH   6  10
ATOM     10  C   UNL     1      86.442  50.105  42.836  0.00  0.00    +0.127 C 
BRANCH  10  11
ATOM     11  O   UNL     1      87.391  50.829  42.051  0.00  0.00    -0.458 OA
BRANCH  11  12
ATOM     12  C   UNL     1      88.441  50.216  41.355  0.00  0.00    +0.339 C 
ATOM     13  O   UNL     1      88.736  50.598  40.189  0.00  0.00    -0.245 OA
BRANCH  12  14
ATOM     14  C   UNL     1      89.201  49.116  41.991  0.00  0.00    +0.059 A 
ATOM     15  C   UNL     1      90.217  49.392  42.927  0.00  0.00    -0.048 A 
ATOM     16  C   UNL     1      90.933  48.347  43.520  0.00  0.00    -0.061 A 
ATOM     17  C   UNL     1      90.645  47.022  43.187  0.00  0.00    -0.062 A 
ATOM     18  C   UNL     1      89.641  46.738  42.259  0.00  0.00    -0.061 A 
ATOM     19  C   UNL     1      88.921  47.778  41.661  0.00  0.00    -0.048 A 
ENDBRANCH  12  14
ENDBRANCH  11  12
ENDBRANCH  10  11
ENDBRANCH   6  10
BRANCH   2  20
ATOM     20  O   UNL     1      86.911  53.665  46.434  0.00  0.00    -0.451 OA
BRANCH  20  21
ATOM     21  C   UNL     1      86.066  54.643  46.977  0.00  0.00    +0.340 C 
ATOM     22  O   UNL     1      85.497  54.443  48.086  0.00  0.00    -0.245 OA
BRANCH  21  23
ATOM     23  C   UNL     1      85.842  55.908  46.244  0.00  0.00    +0.059 A 
ATOM     24  C   UNL     1      86.472  56.144  45.007  0.00  0.00    -0.048 A 
ATOM     25  C   UNL     1      86.256  57.342  44.321  0.00  0.00    -0.061 A 
ATOM     26  C   UNL     1      85.410  58.316  44.858  0.00  0.00    -0.062 A 
ATOM     27  C   UNL     1      84.781  58.093  46.085  0.00  0.00    -0.061 A 
ATOM     28  C   UNL     1      84.994  56.896  46.777  0.00  0.00    -0.048 A 
ENDBRANCH  21  23
ENDBRANCH  20  21
ENDBRANCH   2  20
TORSDOF 8
ENDMDL
MODEL 8
REMARK VINA RESULT:    -8.202      2.172      6.807
REMARK INTER + INTRA:         -13.231
REMARK INTER:                 -12.030
REMARK INTRA:                  -1.201
REMARK UNBOUND:                -1.193
REMARK  Name = 
REMARK  9 active torsions:
REMARK  status: ('A' for Active; 'I' for Inactive)
REMARK    1  A    between atoms: C_1  and  O_2
REMARK    2  A    between atoms: O_2  and  C_3
REMARK    3  A    between atoms: C_4  and  O_20
REMARK    4  A    between atoms: C_8  and  C_9
REMARK    5  A    between atoms: C_9  and  O_10
REMARK    6  A    between atoms: O_10  and  C_11
REMARK    7  A    between atoms: C_11  and  C_13
REMARK    8  A    between atoms: O_20  and  C_21
REMARK    9  A    between atoms: C_21  and  C_23
REMARK                            x       y       z     vdW  Elec       q    Type
REMARK                         _______ _______ _______ _____ _____    ______ ____
ROOT
ATOM      1  C   UNL     1      86.959  51.997  44.530  0.00  0.00    +0.134 C 
ATOM      2  C   UNL     1      86.676  51.576  43.073  0.00  0.00    +0.151 C 
ATOM      3  C   UNL     1      85.508  52.344  42.503  0.00  0.00    -0.043 C 
ATOM      4  C   UNL     1      84.446  52.661  43.257  0.00  0.00    -0.053 C 
ATOM      5  C   UNL     1      84.404  52.395  44.739  0.00  0.00    +0.113 C 
ATOM      6  C   UNL     1      85.679  52.004  45.397  0.00  0.00    +0.163 C 
ATOM      7  O   UNL     1      84.709  51.045  45.034  0.00  0.00    -0.354 OA
ENDROOT
BRANCH   1   9
ATOM      8  C   UNL     1      87.412  49.754  44.972  0.00  0.00    +0.037 C 
ATOM      9  O   UNL     1      87.881  51.078  45.097  0.00  0.00    -0.373 OA
ENDBRANCH   1   9
BRANCH   6  10
ATOM     10  C   UNL     1      85.776  52.303  46.903  0.00  0.00    +0.127 C 
BRANCH  10  11
ATOM     11  O   UNL     1      86.346  53.587  47.163  0.00  0.00    -0.458 OA
BRANCH  11  12
ATOM     12  C   UNL     1      85.580  54.745  47.350  0.00  0.00    +0.339 C 
ATOM     13  O   UNL     1      84.797  54.834  48.336  0.00  0.00    -0.245 OA
BRANCH  12  14
ATOM     14  C   UNL     1      85.689  55.861  46.384  0.00  0.00    +0.059 A 
ATOM     15  C   UNL     1      84.983  57.062  46.591  0.00  0.00    -0.048 A 
ATOM     16  C   UNL     1      85.089  58.110  45.672  0.00  0.00    -0.061 A 
ATOM     17  C   UNL     1      85.895  57.973  44.540  0.00  0.00    -0.062 A 
ATOM     18  C   UNL     1      86.597  56.786  44.324  0.00  0.00    -0.061 A 
ATOM     19  C   UNL     1      86.497  55.733  45.240  0.00  0.00    -0.048 A 
ENDBRANCH  12  14
ENDBRANCH  11  12
ENDBRANCH  10  11
ENDBRANCH   6  10
BRANCH   2  20
ATOM     20  O   UNL     1      87.844  51.806  42.286  0.00  0.00    -0.451 OA
BRANCH  20  21
ATOM     21  C   UNL     1      88.326  50.902  41.329  0.00  0.00    +0.340 C 
ATOM     22  O   UNL     1      88.231  51.172  40.100  0.00  0.00    -0.245 OA
BRANCH  21  23
ATOM     23  C   UNL     1      88.941  49.630  41.767  0.00  0.00    +0.059 A 
ATOM     24  C   UNL     1      90.214  49.617  42.369  0.00  0.00    -0.048 A 
ATOM     25  C   UNL     1      90.788  48.410  42.780  0.00  0.00    -0.061 A 
ATOM     26  C   UNL     1      90.103  47.207  42.596  0.00  0.00    -0.062 A 
ATOM     27  C   UNL     1      88.840  47.209  41.998  0.00  0.00    -0.061 A 
ATOM     28  C   UNL     1      88.259  48.413  41.585  0.00  0.00    -0.048 A 
ENDBRANCH  21  23
ENDBRANCH  20  21
ENDBRANCH   2  20
TORSDOF 8
ENDMDL
MODEL 9
REMARK VINA RESULT:    -8.086      3.079      5.486
REMARK INTER + INTRA:         -13.061
REMARK INTER:                 -11.868
REMARK INTRA:                  -1.193
REMARK UNBOUND:                -1.193
REMARK  Name = 
REMARK  9 active torsions:
REMARK  status: ('A' for Active; 'I' for Inactive)
REMARK    1  A    between atoms: C_1  and  O_2
REMARK    2  A    between atoms: O_2  and  C_3
REMARK    3  A    between atoms: C_4  and  O_20
REMARK    4  A    between atoms: C_8  and  C_9
REMARK    5  A    between atoms: C_9  and  O_10
REMARK    6  A    between atoms: O_10  and  C_11
REMARK    7  A    between atoms: C_11  and  C_13
REMARK    8  A    between atoms: O_20  and  C_21
REMARK    9  A    between atoms: C_21  and  C_23
REMARK                            x       y       z     vdW  Elec       q    Type
REMARK                         _______ _______ _______ _____ _____    ______ ____
ROOT
ATOM      1  C   UNL     1      84.901  53.154  42.993  0.00  0.00    +0.134 C 
ATOM      2  C   UNL     1      85.394  54.544  42.539  0.00  0.00    +0.151 C 
ATOM      3  C   UNL     1      84.254  55.532  42.474  0.00  0.00    -0.043 C 
ATOM      4  C   UNL     1      83.033  55.160  42.064  0.00  0.00    -0.053 C 
ATOM      5  C   UNL     1      82.684  53.725  41.772  0.00  0.00    +0.113 C 
ATOM      6  C   UNL     1      83.659  52.687  42.200  0.00  0.00    +0.163 C 
ATOM      7  O   UNL     1      83.599  53.141  40.864  0.00  0.00    -0.354 OA
ENDROOT
BRANCH   1   9
ATOM      8  C   UNL     1      86.474  51.775  44.021  0.00  0.00    +0.037 C 
ATOM      9  O   UNL     1      85.944  52.214  42.789  0.00  0.00    -0.373 OA
ENDBRANCH   1   9
BRANCH   6  10
ATOM     10  C   UNL     1      83.080  51.282  42.443  0.00  0.00    +0.127 C 
BRANCH  10  11
ATOM     11  O   UNL     1      83.065  50.936  43.829  0.00  0.00    -0.458 OA
BRANCH  11  12
ATOM     12  C   UNL     1      83.145  49.617  44.294  0.00  0.00    +0.339 C 
ATOM     13  O   UNL     1      84.237  49.170  44.742  0.00  0.00    -0.245 OA
BRANCH  12  14
ATOM     14  C   UNL     1      81.947  48.750  44.253  0.00  0.00    +0.059 A 
ATOM     15  C   UNL     1      82.057  47.388  43.912  0.00  0.00    -0.048 A 
ATOM     16  C   UNL     1      80.919  46.576  43.872  0.00  0.00    -0.061 A 
ATOM     17  C   UNL     1      79.664  47.111  44.170  0.00  0.00    -0.062 A 
ATOM     18  C   UNL     1      79.544  48.461  44.508  0.00  0.00    -0.061 A 
ATOM     19  C   UNL     1      80.678  49.279  44.550  0.00  0.00    -0.048 A 
ENDBRANCH  12  14
ENDBRANCH  11  12
ENDBRANCH  10  11
ENDBRANCH   6  10
BRANCH   2  20
ATOM     20  O   UNL     1      86.390  55.006  43.451  0.00  0.00    -0.451 OA
BRANCH  20  21
ATOM     21  C   UNL     1      86.173  56.029  44.385  0.00  0.00    +0.340 C 
ATOM     22  O   UNL     1      86.477  57.220  44.100  0.00  0.00    -0.245 OA
BRANCH  21  23
ATOM     23  C   UNL     1      85.591  55.705  45.705  0.00  0.00    +0.059 A 
ATOM     24  C   UNL     1      86.138  54.681  46.501  0.00  0.00    -0.048 A 
ATOM     25  C   UNL     1      85.581  54.381  47.748  0.00  0.00    -0.061 A 
ATOM     26  C   UNL     1      84.476  55.097  48.214  0.00  0.00    -0.062 A 
ATOM     27  C   UNL     1      83.924  56.114  47.432  0.00  0.00    -0.061 A 
ATOM     28  C   UNL     1      84.476  56.420  46.183  0.00  0.00    -0.048 A 
ENDBRANCH  21  23
ENDBRANCH  20  21
ENDBRANCH   2  20
TORSDOF 8
ENDMDL
