MODEL 1
REMARK VINA RESULT:    -8.999      0.000      0.000
REMARK INTER + INTRA:         -14.198
REMARK INTER:                 -12.642
REMARK INTRA:                  -1.557
REMARK UNBOUND:                -0.991
REMARK  Name = 
REMARK  9 active torsions:
REMARK  status: ('A' for Active; 'I' for Inactive)
REMARK    1  A    between atoms: C_1  and  O_2
REMARK    2  A    between atoms: O_2  and  C_3
REMARK    3  A    between atoms: C_4  and  O_20
REMARK    4  A    between atoms: C_8  and  C_9
REMARK    5  A    between atoms: C_9  and  O_10
REMARK    6  A    between atoms: O_10  and  C_11
REMARK    7  A    between atoms: C_11  and  C_13
REMARK    8  A    between atoms: O_20  and  C_21
REMARK    9  A    between atoms: C_21  and  C_23
REMARK                            x       y       z     vdW  Elec       q    Type
REMARK                         _______ _______ _______ _____ _____    ______ ____
ROOT
ATOM      1  C   UNL     1      85.558  53.982  42.961  0.00  0.00    +0.134 C 
ATOM      2  C   UNL     1      84.476  53.857  44.053  0.00  0.00    +0.151 C 
ATOM      3  C   UNL     1      84.207  52.410  44.389  0.00  0.00    -0.043 C 
ATOM      4  C   UNL     1      84.223  51.460  43.443  0.00  0.00    -0.053 C 
ATOM      5  C   UNL     1      84.638  51.745  42.024  0.00  0.00    +0.113 C 
ATOM      6  C   UNL     1      85.281  53.058  41.753  0.00  0.00    +0.163 C 
ATOM      7  O   UNL     1      83.915  52.831  41.478  0.00  0.00    -0.354 OA
ENDROOT
BRANCH   1   9
ATOM      8  C   UNL     1      84.280  55.834  42.351  0.00  0.00    +0.037 C 
ATOM      9  O   UNL     1      85.587  55.325  42.502  0.00  0.00    -0.373 OA
ENDBRANCH   1   9
BRANCH   6  10
ATOM     10  C   UNL     1      86.199  53.115  40.519  0.00  0.00    +0.127 C 
BRANCH  10  11
ATOM     11  O   UNL     1      87.577  52.969  40.864  0.00  0.00    -0.458 OA
BRANCH  11  12
ATOM     12  C   UNL     1      88.369  51.896  40.432  0.00  0.00    +0.339 C 
ATOM     13  O   UNL     1      88.624  51.752  39.205  0.00  0.00    -0.245 OA
BRANCH  12  14
ATOM     14  C   UNL     1      88.901  50.932  41.420  0.00  0.00    +0.059 A 
ATOM     15  C   UNL     1      90.085  50.215  41.159  0.00  0.00    -0.048 A 
ATOM     16  C   UNL     1      90.579  49.303  42.096  0.00  0.00    -0.061 A 
ATOM     17  C   UNL     1      89.900  49.094  43.298  0.00  0.00    -0.062 A 
ATOM     18  C   UNL     1      88.725  49.798  43.567  0.00  0.00    -0.061 A 
ATOM     19  C   UNL     1      88.224  50.713  42.634  0.00  0.00    -0.048 A 
ENDBRANCH  12  14
ENDBRANCH  11  12
ENDBRANCH  10  11
ENDBRANCH   6  10
BRANCH   2  20
ATOM     20  O   UNL     1      84.906  54.558  45.219  0.00  0.00    -0.451 OA
BRANCH  20  21
ATOM     21  C   UNL     1      86.151  54.356  45.830  0.00  0.00    +0.340 C 
ATOM     22  O   UNL     1      87.058  55.227  45.723  0.00  0.00    -0.245 OA
BRANCH  21  23
ATOM     23  C   UNL     1      86.398  53.116  46.599  0.00  0.00    +0.059 A 
ATOM     24  C   UNL     1      85.768  52.901  47.839  0.00  0.00    -0.048 A 
ATOM     25  C   UNL     1      86.007  51.727  48.559  0.00  0.00    -0.061 A 
ATOM     26  C   UNL     1      86.874  50.756  48.052  0.00  0.00    -0.062 A 
ATOM     27  C   UNL     1      87.505  50.960  46.823  0.00  0.00    -0.061 A 
ATOM     28  C   UNL     1      87.271  52.133  46.097  0.00  0.00    -0.048 A 
ENDBRANCH  21  23
ENDBRANCH  20  21
ENDBRANCH   2  20
TORSDOF 8
ENDMDL
MODEL 2
REMARK VINA RESULT:    -8.850      4.711      8.192
REMARK INTER + INTRA:         -13.980
REMARK INTER:                 -13.176
REMARK INTRA:                  -0.805
REMARK UNBOUND:                -0.991
REMARK  Name = 
REMARK  9 active torsions:
REMARK  status: ('A' for Active; 'I' for Inactive)
REMARK    1  A    between atoms: C_1  and  O_2
REMARK    2  A    between atoms: O_2  and  C_3
REMARK    3  A    between atoms: C_4  and  O_20
REMARK    4  A    between atoms: C_8  and  C_9
REMARK    5  A    between atoms: C_9  and  O_10
REMARK    6  A    between atoms: O_10  and  C_11
REMARK    7  A    between atoms: C_11  and  C_13
REMARK    8  A    between atoms: O_20  and  C_21
REMARK    9  A    between atoms: C_21  and  C_23
REMARK                            x       y       z     vdW  Elec       q    Type
REMARK                         _______ _______ _______ _____ _____    ______ ____
ROOT
ATOM      1  C   UNL     1      85.852  46.456  42.379  0.00  0.00    +0.134 C 
ATOM      2  C   UNL     1      87.390  46.363  42.463  0.00  0.00    +0.151 C 
ATOM      3  C   UNL     1      87.861  44.944  42.255  0.00  0.00    -0.043 C 
ATOM      4  C   UNL     1      87.166  43.901  42.732  0.00  0.00    -0.053 C 
ATOM      5  C   UNL     1      85.818  44.063  43.382  0.00  0.00    +0.113 C 
ATOM      6  C   UNL     1      85.153  45.387  43.250  0.00  0.00    +0.163 C 
ATOM      7  O   UNL     1      85.852  45.022  44.421  0.00  0.00    -0.354 OA
ENDROOT
BRANCH   1   9
ATOM      8  C   UNL     1      86.109  48.079  44.033  0.00  0.00    +0.037 C 
ATOM      9  O   UNL     1      85.450  47.739  42.833  0.00  0.00    -0.373 OA
ENDBRANCH   1   9
BRANCH   6  10
ATOM     10  C   UNL     1      83.619  45.384  43.373  0.00  0.00    +0.127 C 
BRANCH  10  11
ATOM     11  O   UNL     1      83.152  46.346  44.320  0.00  0.00    -0.458 OA
BRANCH  11  12
ATOM     12  C   UNL     1      81.833  46.818  44.350  0.00  0.00    +0.339 C 
ATOM     13  O   UNL     1      80.928  46.131  44.899  0.00  0.00    -0.245 OA
BRANCH  12  14
ATOM     14  C   UNL     1      81.505  48.122  43.731  0.00  0.00    +0.059 A 
ATOM     15  C   UNL     1      82.525  48.968  43.255  0.00  0.00    -0.048 A 
ATOM     16  C   UNL     1      82.207  50.201  42.676  0.00  0.00    -0.061 A 
ATOM     17  C   UNL     1      80.874  50.602  42.567  0.00  0.00    -0.062 A 
ATOM     18  C   UNL     1      79.855  49.771  43.038  0.00  0.00    -0.061 A 
ATOM     19  C   UNL     1      80.165  48.536  43.618  0.00  0.00    -0.048 A 
ENDBRANCH  12  14
ENDBRANCH  11  12
ENDBRANCH  10  11
ENDBRANCH   6  10
BRANCH   2  20
ATOM     20  O   UNL     1      87.963  47.219  41.475  0.00  0.00    -0.451 OA
BRANCH  20  21
ATOM     21  C   UNL     1      89.044  48.076  41.723  0.00  0.00    +0.340 C 
ATOM     22  O   UNL     1      90.143  47.608  42.129  0.00  0.00    -0.245 OA
BRANCH  21  23
ATOM     23  C   UNL     1      88.888  49.532  41.511  0.00  0.00    +0.059 A 
ATOM     24  C   UNL     1      87.617  50.094  41.285  0.00  0.00    -0.048 A 
ATOM     25  C   UNL     1      87.479  51.471  41.085  0.00  0.00    -0.061 A 
ATOM     26  C   UNL     1      88.603  52.300  41.109  0.00  0.00    -0.062 A 
ATOM     27  C   UNL     1      89.869  51.753  41.332  0.00  0.00    -0.061 A 
ATOM     28  C   UNL     1      90.014  50.376  41.532  0.00  0.00    -0.048 A 
ENDBRANCH  21  23
ENDBRANCH  20  21
ENDBRANCH   2  20
TORSDOF 8
ENDMDL
MODEL 3
REMARK VINA RESULT:    -8.751      2.155      5.663
REMARK INTER + INTRA:         -13.835
REMARK INTER:                 -11.720
REMARK INTRA:                  -2.116
REMARK UNBOUND:                -0.991
REMARK  Name = 
REMARK  9 active torsions:
REMARK  status: ('A' for Active; 'I' for Inactive)
REMARK    1  A    between atoms: C_1  and  O_2
REMARK    2  A    between atoms: O_2  and  C_3
REMARK    3  A    between atoms: C_4  and  O_20
REMARK    4  A    between atoms: C_8  and  C_9
REMARK    5  A    between atoms: C_9  and  O_10
REMARK    6  A    between atoms: O_10  and  C_11
REMARK    7  A    between atoms: C_11  and  C_13
REMARK    8  A    between atoms: O_20  and  C_21
REMARK    9  A    between atoms: C_21  and  C_23
REMARK                            x       y       z     vdW  Elec       q    Type
REMARK                         _______ _______ _______ _____ _____    ______ ____
ROOT
ATOM      1  C   UNL     1      86.365  51.483  42.855  0.00  0.00    +0.134 C 
ATOM      2  C   UNL     1      85.115  51.862  42.032  0.00  0.00    +0.151 C 
ATOM      3  C   UNL     1      83.898  51.986  42.917  0.00  0.00    -0.043 C 
ATOM      4  C   UNL     1      83.708  51.165  43.960  0.00  0.00    -0.053 C 
ATOM      5  C   UNL     1      84.747  50.165  44.396  0.00  0.00    +0.113 C 
ATOM      6  C   UNL     1      86.102  50.287  43.799  0.00  0.00    +0.163 C 
ATOM      7  O   UNL     1      85.165  49.346  43.321  0.00  0.00    -0.354 OA
ENDROOT
BRANCH   1   9
ATOM      8  C   UNL     1      88.507  52.001  42.098  0.00  0.00    +0.037 C 
ATOM      9  O   UNL     1      87.407  51.130  41.959  0.00  0.00    -0.373 OA
ENDBRANCH   1   9
BRANCH   6  10
ATOM     10  C   UNL     1      87.258  49.700  44.628  0.00  0.00    +0.127 C 
BRANCH  10  11
ATOM     11  O   UNL     1      87.890  50.686  45.447  0.00  0.00    -0.458 OA
BRANCH  11  12
ATOM     12  C   UNL     1      87.580  50.876  46.800  0.00  0.00    +0.339 C 
ATOM     13  O   UNL     1      88.133  50.163  47.682  0.00  0.00    -0.245 OA
BRANCH  12  14
ATOM     14  C   UNL     1      86.599  51.913  47.190  0.00  0.00    +0.059 A 
ATOM     15  C   UNL     1      86.266  52.957  46.305  0.00  0.00    -0.048 A 
ATOM     16  C   UNL     1      85.342  53.935  46.683  0.00  0.00    -0.061 A 
ATOM     17  C   UNL     1      84.742  53.885  47.943  0.00  0.00    -0.062 A 
ATOM     18  C   UNL     1      85.066  52.855  48.829  0.00  0.00    -0.061 A 
ATOM     19  C   UNL     1      85.991  51.873  48.458  0.00  0.00    -0.048 A 
ENDBRANCH  12  14
ENDBRANCH  11  12
ENDBRANCH  10  11
ENDBRANCH   6  10
BRANCH   2  20
ATOM     20  O   UNL     1      85.358  53.097  41.359  0.00  0.00    -0.451 OA
BRANCH  20  21
ATOM     21  C   UNL     1      84.629  54.270  41.602  0.00  0.00    +0.340 C 
ATOM     22  O   UNL     1      83.543  54.477  40.993  0.00  0.00    -0.245 OA
BRANCH  21  23
ATOM     23  C   UNL     1      85.141  55.263  42.571  0.00  0.00    +0.059 A 
ATOM     24  C   UNL     1      84.393  56.415  42.883  0.00  0.00    -0.048 A 
ATOM     25  C   UNL     1      84.884  57.349  43.800  0.00  0.00    -0.061 A 
ATOM     26  C   UNL     1      86.122  57.146  44.414  0.00  0.00    -0.062 A 
ATOM     27  C   UNL     1      86.872  56.008  44.111  0.00  0.00    -0.061 A 
ATOM     28  C   UNL     1      86.387  55.069  43.194  0.00  0.00    -0.048 A 
ENDBRANCH  21  23
ENDBRANCH  20  21
ENDBRANCH   2  20
TORSDOF 8
ENDMDL
MODEL 4
REMARK VINA RESULT:    -8.654      2.620      5.072
REMARK INTER + INTRA:         -13.692
REMARK INTER:                 -12.541
REMARK INTRA:                  -1.151
REMARK UNBOUND:                -0.991
REMARK  Name = 
REMARK  9 active torsions:
REMARK  status: ('A' for Active; 'I' for Inactive)
REMARK    1  A    between atoms: C_1  and  O_2
REMARK    2  A    between atoms: O_2  and  C_3
REMARK    3  A    between atoms: C_4  and  O_20
REMARK    4  A    between atoms: C_8  and  C_9
REMARK    5  A    between atoms: C_9  and  O_10
REMARK    6  A    between atoms: O_10  and  C_11
REMARK    7  A    between atoms: C_11  and  C_13
REMARK    8  A    between atoms: O_20  and  C_21
REMARK    9  A    between atoms: C_21  and  C_23
REMARK                            x       y       z     vdW  Elec       q    Type
REMARK                         _______ _______ _______ _____ _____    ______ ____
ROOT
ATOM      1  C   UNL     1      85.786  54.105  43.255  0.00  0.00    +0.134 C 
ATOM      2  C   UNL     1      86.091  55.581  43.585  0.00  0.00    +0.151 C 
ATOM      3  C   UNL     1      84.846  56.429  43.488  0.00  0.00    -0.043 C 
ATOM      4  C   UNL     1      83.918  56.201  42.547  0.00  0.00    -0.053 C 
ATOM      5  C   UNL     1      83.986  55.015  41.622  0.00  0.00    +0.113 C 
ATOM      6  C   UNL     1      84.976  53.954  41.946  0.00  0.00    +0.163 C 
ATOM      7  O   UNL     1      85.238  54.937  40.967  0.00  0.00    -0.354 OA
ENDROOT
BRANCH   1   9
ATOM      8  C   UNL     1      87.097  52.336  44.019  0.00  0.00    +0.037 C 
ATOM      9  O   UNL     1      87.014  53.409  43.107  0.00  0.00    -0.373 OA
ENDBRANCH   1   9
BRANCH   6  10
ATOM     10  C   UNL     1      84.660  52.551  41.400  0.00  0.00    +0.127 C 
BRANCH  10  11
ATOM     11  O   UNL     1      83.873  51.782  42.310  0.00  0.00    -0.458 OA
BRANCH  11  12
ATOM     12  C   UNL     1      82.513  51.507  42.110  0.00  0.00    +0.339 C 
ATOM     13  O   UNL     1      81.803  52.294  41.425  0.00  0.00    -0.245 OA
BRANCH  12  14
ATOM     14  C   UNL     1      81.913  50.294  42.707  0.00  0.00    +0.059 A 
ATOM     15  C   UNL     1      80.515  50.153  42.796  0.00  0.00    -0.048 A 
ATOM     16  C   UNL     1      79.956  49.005  43.366  0.00  0.00    -0.061 A 
ATOM     17  C   UNL     1      80.781  47.990  43.853  0.00  0.00    -0.062 A 
ATOM     18  C   UNL     1      82.169  48.120  43.772  0.00  0.00    -0.061 A 
ATOM     19  C   UNL     1      82.736  49.266  43.202  0.00  0.00    -0.048 A 
ENDBRANCH  12  14
ENDBRANCH  11  12
ENDBRANCH  10  11
ENDBRANCH   6  10
BRANCH   2  20
ATOM     20  O   UNL     1      86.636  55.660  44.902  0.00  0.00    -0.451 OA
BRANCH  20  21
ATOM     21  C   UNL     1      85.912  56.107  46.016  0.00  0.00    +0.340 C 
ATOM     22  O   UNL     1      85.856  57.340  46.281  0.00  0.00    -0.245 OA
BRANCH  21  23
ATOM     23  C   UNL     1      85.217  55.128  46.880  0.00  0.00    +0.059 A 
ATOM     24  C   UNL     1      85.894  53.995  47.370  0.00  0.00    -0.048 A 
ATOM     25  C   UNL     1      85.229  53.074  48.186  0.00  0.00    -0.061 A 
ATOM     26  C   UNL     1      83.888  53.272  48.521  0.00  0.00    -0.062 A 
ATOM     27  C   UNL     1      83.207  54.391  48.038  0.00  0.00    -0.061 A 
ATOM     28  C   UNL     1      83.865  55.317  47.221  0.00  0.00    -0.048 A 
ENDBRANCH  21  23
ENDBRANCH  20  21
ENDBRANCH   2  20
TORSDOF 8
ENDMDL
MODEL 5
REMARK VINA RESULT:    -8.652      2.536      4.374
REMARK INTER + INTRA:         -13.689
REMARK INTER:                 -12.549
REMARK INTRA:                  -1.139
REMARK UNBOUND:                -0.991
REMARK  Name = 
REMARK  9 active torsions:
REMARK  status: ('A' for Active; 'I' for Inactive)
REMARK    1  A    between atoms: C_1  and  O_2
REMARK    2  A    between atoms: O_2  and  C_3
REMARK    3  A    between atoms: C_4  and  O_20
REMARK    4  A    between atoms: C_8  and  C_9
REMARK    5  A    between atoms: C_9  and  O_10
REMARK    6  A    between atoms: O_10  and  C_11
REMARK    7  A    between atoms: C_11  and  C_13
REMARK    8  A    between atoms: O_20  and  C_21
REMARK    9  A    between atoms: C_21  and  C_23
REMARK                            x       y       z     vdW  Elec       q    Type
REMARK                         _______ _______ _______ _____ _____    ______ ____
ROOT
ATOM      1  C   UNL     1      85.330  51.074  44.617  0.00  0.00    +0.134 C 
ATOM      2  C   UNL     1      85.271  52.005  45.846  0.00  0.00    +0.151 C 
ATOM      3  C   UNL     1      86.657  52.348  46.337  0.00  0.00    -0.043 C 
ATOM      4  C   UNL     1      87.648  51.446  46.311  0.00  0.00    -0.053 C 
ATOM      5  C   UNL     1      87.487  50.091  45.674  0.00  0.00    +0.113 C 
ATOM      6  C   UNL     1      86.275  49.871  44.841  0.00  0.00    +0.163 C 
ATOM      7  O   UNL     1      86.350  49.412  46.174  0.00  0.00    -0.354 OA
ENDROOT
BRANCH   1   9
ATOM      8  C   UNL     1      83.543  51.056  43.121  0.00  0.00    +0.037 C 
ATOM      9  O   UNL     1      84.025  50.580  44.358  0.00  0.00    -0.373 OA
ENDBRANCH   1   9
BRANCH   6  10
ATOM     10  C   UNL     1      86.390  48.778  43.764  0.00  0.00    +0.127 C 
BRANCH  10  11
ATOM     11  O   UNL     1      86.541  49.326  42.453  0.00  0.00    -0.458 OA
BRANCH  11  12
ATOM     12  C   UNL     1      87.770  49.395  41.785  0.00  0.00    +0.339 C 
ATOM     13  O   UNL     1      87.903  50.148  40.781  0.00  0.00    -0.245 OA
BRANCH  12  14
ATOM     14  C   UNL     1      88.910  48.579  42.259  0.00  0.00    +0.059 A 
ATOM     15  C   UNL     1      89.011  47.217  41.916  0.00  0.00    -0.048 A 
ATOM     16  C   UNL     1      90.089  46.452  42.372  0.00  0.00    -0.061 A 
ATOM     17  C   UNL     1      91.075  47.034  43.171  0.00  0.00    -0.062 A 
ATOM     18  C   UNL     1      90.984  48.384  43.518  0.00  0.00    -0.061 A 
ATOM     19  C   UNL     1      89.908  49.156  43.066  0.00  0.00    -0.048 A 
ENDBRANCH  12  14
ENDBRANCH  11  12
ENDBRANCH  10  11
ENDBRANCH   6  10
BRANCH   2  20
ATOM     20  O   UNL     1      84.569  53.197  45.494  0.00  0.00    -0.451 OA
BRANCH  20  21
ATOM     21  C   UNL     1      84.492  54.326  46.321  0.00  0.00    +0.340 C 
ATOM     22  O   UNL     1      84.055  54.218  47.501  0.00  0.00    -0.245 OA
BRANCH  21  23
ATOM     23  C   UNL     1      84.920  55.644  45.804  0.00  0.00    +0.059 A 
ATOM     24  C   UNL     1      85.918  55.738  44.815  0.00  0.00    -0.048 A 
ATOM     25  C   UNL     1      86.317  56.988  44.332  0.00  0.00    -0.061 A 
ATOM     26  C   UNL     1      85.728  58.154  44.828  0.00  0.00    -0.062 A 
ATOM     27  C   UNL     1      84.739  58.071  45.811  0.00  0.00    -0.061 A 
ATOM     28  C   UNL     1      84.335  56.824  46.298  0.00  0.00    -0.048 A 
ENDBRANCH  21  23
ENDBRANCH  20  21
ENDBRANCH   2  20
TORSDOF 8
ENDMDL
MODEL 6
REMARK VINA RESULT:    -8.550      3.828      6.279
REMARK INTER + INTRA:         -13.539
REMARK INTER:                 -12.608
REMARK INTRA:                  -0.931
REMARK UNBOUND:                -0.991
REMARK  Name = 
REMARK  9 active torsions:
REMARK  status: ('A' for Active; 'I' for Inactive)
REMARK    1  A    between atoms: C_1  and  O_2
REMARK    2  A    between atoms: O_2  and  C_3
REMARK    3  A    between atoms: C_4  and  O_20
REMARK    4  A    between atoms: C_8  and  C_9
REMARK    5  A    between atoms: C_9  and  O_10
REMARK    6  A    between atoms: O_10  and  C_11
REMARK    7  A    between atoms: C_11  and  C_13
REMARK    8  A    between atoms: O_20  and  C_21
REMARK    9  A    between atoms: C_21  and  C_23
REMARK                            x       y       z     vdW  Elec       q    Type
REMARK                         _______ _______ _______ _____ _____    ______ ____
ROOT
ATOM      1  C   UNL     1      85.077  51.199  44.477  0.00  0.00    +0.134 C 
ATOM      2  C   UNL     1      85.337  52.148  45.666  0.00  0.00    +0.151 C 
ATOM      3  C   UNL     1      86.809  52.217  45.995  0.00  0.00    -0.043 C 
ATOM      4  C   UNL     1      87.597  51.136  45.902  0.00  0.00    -0.053 C 
ATOM      5  C   UNL     1      87.104  49.828  45.341  0.00  0.00    +0.113 C 
ATOM      6  C   UNL     1      85.788  49.837  44.650  0.00  0.00    +0.163 C 
ATOM      7  O   UNL     1      85.919  49.399  45.985  0.00  0.00    -0.354 OA
ENDROOT
BRANCH   1   9
ATOM      8  C   UNL     1      83.162  51.529  43.191  0.00  0.00    +0.037 C 
ATOM      9  O   UNL     1      83.680  50.969  44.377  0.00  0.00    -0.373 OA
ENDBRANCH   1   9
BRANCH   6  10
ATOM     10  C   UNL     1      85.566  48.722  43.612  0.00  0.00    +0.127 C 
BRANCH  10  11
ATOM     11  O   UNL     1      84.750  47.666  44.120  0.00  0.00    -0.458 OA
BRANCH  11  12
ATOM     12  C   UNL     1      83.775  47.011  43.356  0.00  0.00    +0.339 C 
ATOM     13  O   UNL     1      84.118  46.260  42.401  0.00  0.00    -0.245 OA
BRANCH  12  14
ATOM     14  C   UNL     1      82.343  47.207  43.670  0.00  0.00    +0.059 A 
ATOM     15  C   UNL     1      81.640  46.262  44.443  0.00  0.00    -0.048 A 
ATOM     16  C   UNL     1      80.285  46.452  44.731  0.00  0.00    -0.061 A 
ATOM     17  C   UNL     1      79.618  47.581  44.254  0.00  0.00    -0.062 A 
ATOM     18  C   UNL     1      80.304  48.524  43.485  0.00  0.00    -0.061 A 
ATOM     19  C   UNL     1      81.660  48.341  43.192  0.00  0.00    -0.048 A 
ENDBRANCH  12  14
ENDBRANCH  11  12
ENDBRANCH  10  11
ENDBRANCH   6  10
BRANCH   2  20
ATOM     20  O   UNL     1      84.847  53.448  45.341  0.00  0.00    -0.451 OA
BRANCH  20  21
ATOM     21  C   UNL     1      84.822  54.517  46.247  0.00  0.00    +0.340 C 
ATOM     22  O   UNL     1      84.567  54.309  47.466  0.00  0.00    -0.245 OA
BRANCH  21  23
ATOM     23  C   UNL     1      85.093  55.890  45.768  0.00  0.00    +0.059 A 
ATOM     24  C   UNL     1      84.439  56.995  46.345  0.00  0.00    -0.048 A 
ATOM     25  C   UNL     1      84.700  58.290  45.886  0.00  0.00    -0.061 A 
ATOM     26  C   UNL     1      85.615  58.496  44.850  0.00  0.00    -0.062 A 
ATOM     27  C   UNL     1      86.268  57.406  44.270  0.00  0.00    -0.061 A 
ATOM     28  C   UNL     1      86.011  56.109  44.724  0.00  0.00    -0.048 A 
ENDBRANCH  21  23
ENDBRANCH  20  21
ENDBRANCH   2  20
TORSDOF 8
ENDMDL
MODEL 7
REMARK VINA RESULT:    -8.519      2.148      4.893
REMARK INTER + INTRA:         -13.493
REMARK INTER:                 -11.280
REMARK INTRA:                  -2.213
REMARK UNBOUND:                -0.991
REMARK  Name = 
REMARK  9 active torsions:
REMARK  status: ('A' for Active; 'I' for Inactive)
REMARK    1  A    between atoms: C_1  and  O_2
REMARK    2  A    between atoms: O_2  and  C_3
REMARK    3  A    between atoms: C_4  and  O_20
REMARK    4  A    between atoms: C_8  and  C_9
REMARK    5  A    between atoms: C_9  and  O_10
REMARK    6  A    between atoms: O_10  and  C_11
REMARK    7  A    between atoms: C_11  and  C_13
REMARK    8  A    between atoms: O_20  and  C_21
REMARK    9  A    between atoms: C_21  and  C_23
REMARK                            x       y       z     vdW  Elec       q    Type
REMARK                         _______ _______ _______ _____ _____    ______ ____
ROOT
ATOM      1  C   UNL     1      85.472  51.617  42.929  0.00  0.00    +0.134 C 
ATOM      2  C   UNL     1      86.334  50.635  43.750  0.00  0.00    +0.151 C 
ATOM      3  C   UNL     1      87.742  51.155  43.918  0.00  0.00    -0.043 C 
ATOM      4  C   UNL     1      88.360  51.823  42.933  0.00  0.00    -0.053 C 
ATOM      5  C   UNL     1      87.656  52.214  41.661  0.00  0.00    +0.113 C 
ATOM      6  C   UNL     1      86.177  52.067  41.628  0.00  0.00    +0.163 C 
ATOM      7  O   UNL     1      87.030  51.103  41.049  0.00  0.00    -0.354 OA
ENDROOT
BRANCH   1   9
ATOM      8  C   UNL     1      83.146  51.728  43.016  0.00  0.00    +0.037 C 
ATOM      9  O   UNL     1      84.256  50.974  42.583  0.00  0.00    -0.373 OA
ENDBRANCH   1   9
BRANCH   6  10
ATOM     10  C   UNL     1      85.433  52.970  40.629  0.00  0.00    +0.127 C 
BRANCH  10  11
ATOM     11  O   UNL     1      85.530  54.352  40.976  0.00  0.00    -0.458 OA
BRANCH  11  12
ATOM     12  C   UNL     1      84.616  55.000  41.818  0.00  0.00    +0.339 C 
ATOM     13  O   UNL     1      83.397  55.067  41.497  0.00  0.00    -0.245 OA
BRANCH  12  14
ATOM     14  C   UNL     1      85.086  55.608  43.083  0.00  0.00    +0.059 A 
ATOM     15  C   UNL     1      84.337  56.618  43.717  0.00  0.00    -0.048 A 
ATOM     16  C   UNL     1      84.790  57.191  44.909  0.00  0.00    -0.061 A 
ATOM     17  C   UNL     1      85.991  56.765  45.480  0.00  0.00    -0.062 A 
ATOM     18  C   UNL     1      86.742  55.765  44.859  0.00  0.00    -0.061 A 
ATOM     19  C   UNL     1      86.295  55.187  43.666  0.00  0.00    -0.048 A 
ENDBRANCH  12  14
ENDBRANCH  11  12
ENDBRANCH  10  11
ENDBRANCH   6  10
BRANCH   2  20
ATOM     20  O   UNL     1      85.729  50.440  45.028  0.00  0.00    -0.451 OA
BRANCH  20  21
ATOM     21  C   UNL     1      86.264  50.938  46.224  0.00  0.00    +0.340 C 
ATOM     22  O   UNL     1      87.265  50.379  46.751  0.00  0.00    -0.245 OA
BRANCH  21  23
ATOM     23  C   UNL     1      85.647  52.119  46.867  0.00  0.00    +0.059 A 
ATOM     24  C   UNL     1      84.689  52.891  46.183  0.00  0.00    -0.048 A 
ATOM     25  C   UNL     1      84.111  54.006  46.798  0.00  0.00    -0.061 A 
ATOM     26  C   UNL     1      84.481  54.362  48.097  0.00  0.00    -0.062 A 
ATOM     27  C   UNL     1      85.432  53.604  48.784  0.00  0.00    -0.061 A 
ATOM     28  C   UNL     1      86.014  52.487  48.175  0.00  0.00    -0.048 A 
ENDBRANCH  21  23
ENDBRANCH  20  21
ENDBRANCH   2  20
TORSDOF 8
ENDMDL
MODEL 8
REMARK VINA RESULT:    -8.488      3.361      6.723
REMARK INTER + INTRA:         -13.449
REMARK INTER:                 -12.139
REMARK INTRA:                  -1.310
REMARK UNBOUND:                -0.991
REMARK  Name = 
REMARK  9 active torsions:
REMARK  status: ('A' for Active; 'I' for Inactive)
REMARK    1  A    between atoms: C_1  and  O_2
REMARK    2  A    between atoms: O_2  and  C_3
REMARK    3  A    between atoms: C_4  and  O_20
REMARK    4  A    between atoms: C_8  and  C_9
REMARK    5  A    between atoms: C_9  and  O_10
REMARK    6  A    between atoms: O_10  and  C_11
REMARK    7  A    between atoms: C_11  and  C_13
REMARK    8  A    between atoms: O_20  and  C_21
REMARK    9  A    between atoms: C_21  and  C_23
REMARK                            x       y       z     vdW  Elec       q    Type
REMARK                         _______ _______ _______ _____ _____    ______ ____
ROOT
ATOM      1  C   UNL     1      85.245  51.141  43.732  0.00  0.00    +0.134 C 
ATOM      2  C   UNL     1      85.395  49.633  44.021  0.00  0.00    +0.151 C 
ATOM      3  C   UNL     1      86.314  49.393  45.195  0.00  0.00    -0.043 C 
ATOM      4  C   UNL     1      87.395  50.158  45.403  0.00  0.00    -0.053 C 
ATOM      5  C   UNL     1      87.690  51.377  44.569  0.00  0.00    +0.113 C 
ATOM      6  C   UNL     1      86.611  51.864  43.670  0.00  0.00    +0.163 C 
ATOM      7  O   UNL     1      87.679  51.077  43.186  0.00  0.00    -0.354 OA
ENDROOT
BRANCH   1   9
ATOM      8  C   UNL     1      83.304  51.847  42.652  0.00  0.00    +0.037 C 
ATOM      9  O   UNL     1      84.593  51.302  42.482  0.00  0.00    -0.373 OA
ENDBRANCH   1   9
BRANCH   6  10
ATOM     10  C   UNL     1      86.671  53.355  43.294  0.00  0.00    +0.127 C 
BRANCH  10  11
ATOM     11  O   UNL     1      85.690  54.126  43.989  0.00  0.00    -0.458 OA
BRANCH  11  12
ATOM     12  C   UNL     1      85.988  54.937  45.092  0.00  0.00    +0.339 C 
ATOM     13  O   UNL     1      86.706  55.965  44.946  0.00  0.00    -0.245 OA
BRANCH  12  14
ATOM     14  C   UNL     1      85.462  54.582  46.428  0.00  0.00    +0.059 A 
ATOM     15  C   UNL     1      84.564  55.436  47.098  0.00  0.00    -0.048 A 
ATOM     16  C   UNL     1      84.074  55.095  48.362  0.00  0.00    -0.061 A 
ATOM     17  C   UNL     1      84.473  53.904  48.971  0.00  0.00    -0.062 A 
ATOM     18  C   UNL     1      85.364  53.050  48.318  0.00  0.00    -0.061 A 
ATOM     19  C   UNL     1      85.859  53.385  47.052  0.00  0.00    -0.048 A 
ENDBRANCH  12  14
ENDBRANCH  11  12
ENDBRANCH  10  11
ENDBRANCH   6  10
BRANCH   2  20
ATOM     20  O   UNL     1      84.107  49.079  44.287  0.00  0.00    -0.451 OA
BRANCH  20  21
ATOM     21  C   UNL     1      83.595  47.954  43.626  0.00  0.00    +0.340 C 
ATOM     22  O   UNL     1      84.365  47.202  42.966  0.00  0.00    -0.245 OA
BRANCH  21  23
ATOM     23  C   UNL     1      82.148  47.655  43.702  0.00  0.00    +0.059 A 
ATOM     24  C   UNL     1      81.694  46.329  43.831  0.00  0.00    -0.048 A 
ATOM     25  C   UNL     1      80.324  46.055  43.902  0.00  0.00    -0.061 A 
ATOM     26  C   UNL     1      79.396  47.097  43.845  0.00  0.00    -0.062 A 
ATOM     27  C   UNL     1      79.836  48.417  43.715  0.00  0.00    -0.061 A 
ATOM     28  C   UNL     1      81.205  48.698  43.644  0.00  0.00    -0.048 A 
ENDBRANCH  21  23
ENDBRANCH  20  21
ENDBRANCH   2  20
TORSDOF 8
ENDMDL
MODEL 9
REMARK VINA RESULT:    -8.367      3.332      6.720
REMARK INTER + INTRA:         -13.271
REMARK INTER:                 -12.280
REMARK INTRA:                  -0.991
REMARK UNBOUND:                -0.991
REMARK  Name = 
REMARK  9 active torsions:
REMARK  status: ('A' for Active; 'I' for Inactive)
REMARK    1  A    between atoms: C_1  and  O_2
REMARK    2  A    between atoms: O_2  and  C_3
REMARK    3  A    between atoms: C_4  and  O_20
REMARK    4  A    between atoms: C_8  and  C_9
REMARK    5  A    between atoms: C_9  and  O_10
REMARK    6  A    between atoms: O_10  and  C_11
REMARK    7  A    between atoms: C_11  and  C_13
REMARK    8  A    between atoms: O_20  and  C_21
REMARK    9  A    between atoms: C_21  and  C_23
REMARK                            x       y       z     vdW  Elec       q    Type
REMARK                         _______ _______ _______ _____ _____    ______ ____
ROOT
ATOM      1  C   UNL     1      86.188  51.396  43.252  0.00  0.00    +0.134 C 
ATOM      2  C   UNL     1      87.654  51.653  43.659  0.00  0.00    +0.151 C 
ATOM      3  C   UNL     1      88.196  50.515  44.490  0.00  0.00    -0.043 C 
ATOM      4  C   UNL     1      87.426  49.874  45.381  0.00  0.00    -0.053 C 
ATOM      5  C   UNL     1      85.952  50.150  45.515  0.00  0.00    +0.113 C 
ATOM      6  C   UNL     1      85.313  50.972  44.454  0.00  0.00    +0.163 C 
ATOM      7  O   UNL     1      85.694  51.530  45.694  0.00  0.00    -0.354 OA
ENDROOT
BRANCH   1   9
ATOM      8  C   UNL     1      85.054  52.345  41.450  0.00  0.00    +0.037 C 
ATOM      9  O   UNL     1      85.653  52.590  42.704  0.00  0.00    -0.373 OA
ENDBRANCH   1   9
BRANCH   6  10
ATOM     10  C   UNL     1      83.800  50.767  44.264  0.00  0.00    +0.127 C 
BRANCH  10  11
ATOM     11  O   UNL     1      83.510  49.774  43.279  0.00  0.00    -0.458 OA
BRANCH  11  12
ATOM     12  C   UNL     1      83.306  48.422  43.586  0.00  0.00    +0.339 C 
ATOM     13  O   UNL     1      84.293  47.660  43.775  0.00  0.00    -0.245 OA
BRANCH  12  14
ATOM     14  C   UNL     1      81.928  47.891  43.684  0.00  0.00    +0.059 A 
ATOM     15  C   UNL     1      81.696  46.505  43.777  0.00  0.00    -0.048 A 
ATOM     16  C   UNL     1      80.391  46.012  43.864  0.00  0.00    -0.061 A 
ATOM     17  C   UNL     1      79.307  46.891  43.860  0.00  0.00    -0.062 A 
ATOM     18  C   UNL     1      79.525  48.267  43.766  0.00  0.00    -0.061 A 
ATOM     19  C   UNL     1      80.828  48.768  43.678  0.00  0.00    -0.048 A 
ENDBRANCH  12  14
ENDBRANCH  11  12
ENDBRANCH  10  11
ENDBRANCH   6  10
BRANCH   2  20
ATOM     20  O   UNL     1      88.443  51.818  42.481  0.00  0.00    -0.451 OA
BRANCH  20  21
ATOM     21  C   UNL     1      88.463  50.895  41.425  0.00  0.00    +0.340 C 
ATOM     22  O   UNL     1      88.030  51.227  40.287  0.00  0.00    -0.245 OA
BRANCH  21  23
ATOM     23  C   UNL     1      88.991  49.532  41.653  0.00  0.00    +0.059 A 
ATOM     24  C   UNL     1      90.329  49.335  42.042  0.00  0.00    -0.048 A 
ATOM     25  C   UNL     1      90.820  48.043  42.254  0.00  0.00    -0.061 A 
ATOM     26  C   UNL     1      89.984  46.937  42.083  0.00  0.00    -0.062 A 
ATOM     27  C   UNL     1      88.654  47.122  41.696  0.00  0.00    -0.061 A 
ATOM     28  C   UNL     1      88.157  48.412  41.481  0.00  0.00    -0.048 A 
ENDBRANCH  21  23
ENDBRANCH  20  21
ENDBRANCH   2  20
TORSDOF 8
ENDMDL
