MODEL 1
REMARK VINA RESULT:    -9.170      0.000      0.000
REMARK INTER + INTRA:         -14.468
REMARK INTER:                 -13.404
REMARK INTRA:                  -1.064
REMARK UNBOUND:                -1.277
REMARK  Name = 
REMARK  8 active torsions:
REMARK  status: ('A' for Active; 'I' for Inactive)
REMARK    1  A    between atoms: C_2  and  C_3
REMARK    2  A    between atoms: C_2  and  O_9
REMARK    3  A    between atoms: O_9  and  C_10
REMARK    4  A    between atoms: C_10  and  C_11
REMARK    5  A    between atoms: C_16  and  O_19
REMARK    6  A    between atoms: C_17  and  O_18
REMARK    7  A    between atoms: O_19  and  C_20
REMARK    8  A    between atoms: C_20  and  C_22
REMARK                            x       y       z     vdW  Elec       q    Type
REMARK                         _______ _______ _______ _____ _____    ______ ____
ROOT
ATOM      1  C   UNL     1      85.415  54.436  42.485  0.00  0.00    +0.163 C 
ATOM      2  O   UNL     1      85.133  55.227  41.347  0.00  0.00    -0.354 OA
ATOM      3  C   UNL     1      84.024  54.829  42.128  0.00  0.00    +0.113 C 
ATOM      4  C   UNL     1      83.431  55.983  42.892  0.00  0.00    -0.053 C 
ATOM      5  C   UNL     1      84.170  56.791  43.669  0.00  0.00    -0.043 C 
ATOM      6  C   UNL     1      85.673  56.692  43.716  0.00  0.00    +0.150 C 
ATOM      7  C   UNL     1      86.139  55.218  43.610  0.00  0.00    +0.130 C 
ENDROOT
BRANCH   7   8
ATOM      8  O   UNL     1      87.532  55.153  43.434  0.00  0.00    -0.385 OA
ATOM      9  H   UNL     1      87.780  55.649  42.637  0.00  0.00    +0.000 HD
ENDBRANCH   7   8
BRANCH   1  10
ATOM     10  C   UNL     1      85.870  53.012  42.117  0.00  0.00    +0.127 C 
BRANCH  10  11
ATOM     11  O   UNL     1      86.994  53.040  41.241  0.00  0.00    -0.458 OA
BRANCH  11  13
ATOM     12  O   UNL     1      89.157  53.714  41.686  0.00  0.00    -0.245 OA
ATOM     13  C   UNL     1      88.307  52.782  41.653  0.00  0.00    +0.339 C 
BRANCH  13  14
ATOM     14  C   UNL     1      88.693  51.410  42.050  0.00  0.00    +0.059 A 
ATOM     15  C   UNL     1      89.474  50.604  41.198  0.00  0.00    -0.048 A 
ATOM     16  C   UNL     1      89.835  49.309  41.582  0.00  0.00    -0.061 A 
ATOM     17  C   UNL     1      89.423  48.805  42.817  0.00  0.00    -0.062 A 
ATOM     18  C   UNL     1      88.649  49.596  43.671  0.00  0.00    -0.061 A 
ATOM     19  C   UNL     1      88.287  50.892  43.292  0.00  0.00    -0.048 A 
ENDBRANCH  13  14
ENDBRANCH  11  13
ENDBRANCH  10  11
ENDBRANCH   1  10
BRANCH   6  20
ATOM     20  O   UNL     1      86.128  57.264  44.943  0.00  0.00    -0.451 OA
BRANCH  20  21
ATOM     21  C   UNL     1      85.306  57.472  46.059  0.00  0.00    +0.340 C 
ATOM     22  O   UNL     1      84.794  58.607  46.267  0.00  0.00    -0.245 OA
BRANCH  21  23
ATOM     23  C   UNL     1      85.027  56.352  46.986  0.00  0.00    +0.059 A 
ATOM     24  C   UNL     1      83.757  56.211  47.578  0.00  0.00    -0.048 A 
ATOM     25  C   UNL     1      83.497  55.150  48.453  0.00  0.00    -0.061 A 
ATOM     26  C   UNL     1      84.500  54.221  48.746  0.00  0.00    -0.062 A 
ATOM     27  C   UNL     1      85.762  54.350  48.162  0.00  0.00    -0.061 A 
ATOM     28  C   UNL     1      86.027  55.410  47.287  0.00  0.00    -0.048 A 
ENDBRANCH  21  23
ENDBRANCH  20  21
ENDBRANCH   6  20
TORSDOF 8
ENDMDL
MODEL 2
REMARK VINA RESULT:    -8.580      1.428      2.007
REMARK INTER + INTRA:         -13.618
REMARK INTER:                 -12.575
REMARK INTRA:                  -1.044
REMARK UNBOUND:                -1.277
REMARK  Name = 
REMARK  8 active torsions:
REMARK  status: ('A' for Active; 'I' for Inactive)
REMARK    1  A    between atoms: C_2  and  C_3
REMARK    2  A    between atoms: C_2  and  O_9
REMARK    3  A    between atoms: O_9  and  C_10
REMARK    4  A    between atoms: C_10  and  C_11
REMARK    5  A    between atoms: C_16  and  O_19
REMARK    6  A    between atoms: C_17  and  O_18
REMARK    7  A    between atoms: O_19  and  C_20
REMARK    8  A    between atoms: C_20  and  C_22
REMARK                            x       y       z     vdW  Elec       q    Type
REMARK                         _______ _______ _______ _____ _____    ______ ____
ROOT
ATOM      1  C   UNL     1      86.070  52.876  41.732  0.00  0.00    +0.163 C 
ATOM      2  O   UNL     1      85.412  53.777  40.863  0.00  0.00    -0.354 OA
ATOM      3  C   UNL     1      84.585  52.984  41.691  0.00  0.00    +0.113 C 
ATOM      4  C   UNL     1      83.936  53.795  42.781  0.00  0.00    -0.053 C 
ATOM      5  C   UNL     1      84.637  54.594  43.601  0.00  0.00    -0.043 C 
ATOM      6  C   UNL     1      86.107  54.852  43.396  0.00  0.00    +0.150 C 
ATOM      7  C   UNL     1      86.831  53.581  42.884  0.00  0.00    +0.130 C 
ENDROOT
BRANCH   7   8
ATOM      8  O   UNL     1      88.144  53.887  42.487  0.00  0.00    -0.385 OA
ATOM      9  H   UNL     1      88.184  54.808  42.185  0.00  0.00    +0.000 HD
ENDBRANCH   7   8
BRANCH   1  10
ATOM     10  C   UNL     1      86.720  51.700  40.981  0.00  0.00    +0.127 C 
BRANCH  10  11
ATOM     11  O   UNL     1      87.831  51.177  41.705  0.00  0.00    -0.458 OA
BRANCH  11  13
ATOM     12  O   UNL     1      89.356  50.823  40.009  0.00  0.00    -0.245 OA
ATOM     13  C   UNL     1      88.872  50.451  41.113  0.00  0.00    +0.339 C 
BRANCH  13  14
ATOM     14  C   UNL     1      89.402  49.246  41.789  0.00  0.00    +0.059 A 
ATOM     15  C   UNL     1      88.823  47.981  41.568  0.00  0.00    -0.048 A 
ATOM     16  C   UNL     1      89.332  46.848  42.211  0.00  0.00    -0.061 A 
ATOM     17  C   UNL     1      90.420  46.964  43.077  0.00  0.00    -0.062 A 
ATOM     18  C   UNL     1      91.003  48.214  43.303  0.00  0.00    -0.061 A 
ATOM     19  C   UNL     1      90.499  49.350  42.661  0.00  0.00    -0.048 A 
ENDBRANCH  13  14
ENDBRANCH  11  13
ENDBRANCH  10  11
ENDBRANCH   1  10
BRANCH   6  20
ATOM     20  O   UNL     1      86.673  55.272  44.637  0.00  0.00    -0.451 OA
BRANCH  20  21
ATOM     21  C   UNL     1      85.997  56.065  45.574  0.00  0.00    +0.340 C 
ATOM     22  O   UNL     1      85.885  57.309  45.389  0.00  0.00    -0.245 OA
BRANCH  21  23
ATOM     23  C   UNL     1      85.400  55.438  46.775  0.00  0.00    +0.059 A 
ATOM     24  C   UNL     1      84.233  55.971  47.358  0.00  0.00    -0.048 A 
ATOM     25  C   UNL     1      83.672  55.373  48.492  0.00  0.00    -0.061 A 
ATOM     26  C   UNL     1      84.267  54.241  49.055  0.00  0.00    -0.062 A 
ATOM     27  C   UNL     1      85.422  53.703  48.484  0.00  0.00    -0.061 A 
ATOM     28  C   UNL     1      85.988  54.297  47.349  0.00  0.00    -0.048 A 
ENDBRANCH  21  23
ENDBRANCH  20  21
ENDBRANCH   6  20
TORSDOF 8
ENDMDL
MODEL 3
REMARK VINA RESULT:    -8.380      1.978      2.572
REMARK INTER + INTRA:         -13.331
REMARK INTER:                 -12.136
REMARK INTRA:                  -1.195
REMARK UNBOUND:                -1.277
REMARK  Name = 
REMARK  8 active torsions:
REMARK  status: ('A' for Active; 'I' for Inactive)
REMARK    1  A    between atoms: C_2  and  C_3
REMARK    2  A    between atoms: C_2  and  O_9
REMARK    3  A    between atoms: O_9  and  C_10
REMARK    4  A    between atoms: C_10  and  C_11
REMARK    5  A    between atoms: C_16  and  O_19
REMARK    6  A    between atoms: C_17  and  O_18
REMARK    7  A    between atoms: O_19  and  C_20
REMARK    8  A    between atoms: C_20  and  C_22
REMARK                            x       y       z     vdW  Elec       q    Type
REMARK                         _______ _______ _______ _____ _____    ______ ____
ROOT
ATOM      1  C   UNL     1      85.381  54.320  42.379  0.00  0.00    +0.163 C 
ATOM      2  O   UNL     1      85.095  55.135  41.259  0.00  0.00    -0.354 OA
ATOM      3  C   UNL     1      83.992  54.751  42.055  0.00  0.00    +0.113 C 
ATOM      4  C   UNL     1      83.441  55.905  42.849  0.00  0.00    -0.053 C 
ATOM      5  C   UNL     1      84.214  56.683  43.624  0.00  0.00    -0.043 C 
ATOM      6  C   UNL     1      85.714  56.548  43.641  0.00  0.00    +0.150 C 
ATOM      7  C   UNL     1      86.144  55.066  43.502  0.00  0.00    +0.130 C 
ENDROOT
BRANCH   7   8
ATOM      8  O   UNL     1      87.531  54.971  43.298  0.00  0.00    -0.385 OA
ATOM      9  H   UNL     1      87.900  55.860  43.169  0.00  0.00    +0.000 HD
ENDBRANCH   7   8
BRANCH   1  10
ATOM     10  C   UNL     1      85.794  52.892  41.979  0.00  0.00    +0.127 C 
BRANCH  10  11
ATOM     11  O   UNL     1      84.795  51.944  42.344  0.00  0.00    -0.458 OA
BRANCH  11  13
ATOM     12  O   UNL     1      83.289  51.760  44.085  0.00  0.00    -0.245 OA
ATOM     13  C   UNL     1      84.473  51.625  43.670  0.00  0.00    +0.339 C 
BRANCH  13  14
ATOM     14  C   UNL     1      85.529  51.130  44.580  0.00  0.00    +0.059 A 
ATOM     15  C   UNL     1      85.830  49.756  44.657  0.00  0.00    -0.048 A 
ATOM     16  C   UNL     1      86.831  49.298  45.520  0.00  0.00    -0.061 A 
ATOM     17  C   UNL     1      87.542  50.203  46.311  0.00  0.00    -0.062 A 
ATOM     18  C   UNL     1      87.252  51.569  46.242  0.00  0.00    -0.061 A 
ATOM     19  C   UNL     1      86.253  52.032  45.380  0.00  0.00    -0.048 A 
ENDBRANCH  13  14
ENDBRANCH  11  13
ENDBRANCH  10  11
ENDBRANCH   1  10
BRANCH   6  20
ATOM     20  O   UNL     1      86.206  57.089  44.868  0.00  0.00    -0.451 OA
BRANCH  20  21
ATOM     21  C   UNL     1      85.394  57.383  45.972  0.00  0.00    +0.340 C 
ATOM     22  O   UNL     1      84.930  58.546  46.126  0.00  0.00    -0.245 OA
BRANCH  21  23
ATOM     23  C   UNL     1      85.068  56.320  46.950  0.00  0.00    +0.059 A 
ATOM     24  C   UNL     1      83.788  56.248  47.531  0.00  0.00    -0.048 A 
ATOM     25  C   UNL     1      83.484  55.241  48.454  0.00  0.00    -0.061 A 
ATOM     26  C   UNL     1      84.453  54.296  48.806  0.00  0.00    -0.062 A 
ATOM     27  C   UNL     1      85.726  54.357  48.233  0.00  0.00    -0.061 A 
ATOM     28  C   UNL     1      86.034  55.363  47.309  0.00  0.00    -0.048 A 
ENDBRANCH  21  23
ENDBRANCH  20  21
ENDBRANCH   6  20
TORSDOF 8
ENDMDL
MODEL 4
REMARK VINA RESULT:    -8.339      1.831      2.639
REMARK INTER + INTRA:         -13.272
REMARK INTER:                 -11.696
REMARK INTRA:                  -1.576
REMARK UNBOUND:                -1.277
REMARK  Name = 
REMARK  8 active torsions:
REMARK  status: ('A' for Active; 'I' for Inactive)
REMARK    1  A    between atoms: C_2  and  C_3
REMARK    2  A    between atoms: C_2  and  O_9
REMARK    3  A    between atoms: O_9  and  C_10
REMARK    4  A    between atoms: C_10  and  C_11
REMARK    5  A    between atoms: C_16  and  O_19
REMARK    6  A    between atoms: C_17  and  O_18
REMARK    7  A    between atoms: O_19  and  C_20
REMARK    8  A    between atoms: C_20  and  C_22
REMARK                            x       y       z     vdW  Elec       q    Type
REMARK                         _______ _______ _______ _____ _____    ______ ____
ROOT
ATOM      1  C   UNL     1      84.810  53.035  42.043  0.00  0.00    +0.163 C 
ATOM      2  O   UNL     1      84.389  53.316  40.722  0.00  0.00    -0.354 OA
ATOM      3  C   UNL     1      83.368  53.144  41.685  0.00  0.00    +0.113 C 
ATOM      4  C   UNL     1      82.686  54.444  42.020  0.00  0.00    -0.053 C 
ATOM      5  C   UNL     1      83.366  55.544  42.382  0.00  0.00    -0.043 C 
ATOM      6  C   UNL     1      84.871  55.600  42.337  0.00  0.00    +0.150 C 
ATOM      7  C   UNL     1      85.493  54.239  42.738  0.00  0.00    +0.130 C 
ENDROOT
BRANCH   7   8
ATOM      8  O   UNL     1      86.875  54.233  42.482  0.00  0.00    -0.385 OA
ATOM      9  H   UNL     1      87.118  55.042  42.004  0.00  0.00    +0.000 HD
ENDBRANCH   7   8
BRANCH   1  10
ATOM     10  C   UNL     1      85.402  51.621  42.184  0.00  0.00    +0.127 C 
BRANCH  10  11
ATOM     11  O   UNL     1      86.807  51.624  41.943  0.00  0.00    -0.458 OA
BRANCH  11  13
ATOM     12  O   UNL     1      88.834  50.584  42.319  0.00  0.00    -0.245 OA
ATOM     13  C   UNL     1      87.742  51.009  42.786  0.00  0.00    +0.339 C 
BRANCH  13  14
ATOM     14  C   UNL     1      87.441  50.860  44.227  0.00  0.00    +0.059 A 
ATOM     15  C   UNL     1      87.559  51.954  45.107  0.00  0.00    -0.048 A 
ATOM     16  C   UNL     1      87.271  51.803  46.467  0.00  0.00    -0.061 A 
ATOM     17  C   UNL     1      86.861  50.564  46.963  0.00  0.00    -0.062 A 
ATOM     18  C   UNL     1      86.740  49.472  46.099  0.00  0.00    -0.061 A 
ATOM     19  C   UNL     1      87.025  49.618  44.738  0.00  0.00    -0.048 A 
ENDBRANCH  13  14
ENDBRANCH  11  13
ENDBRANCH  10  11
ENDBRANCH   1  10
BRANCH   6  20
ATOM     20  O   UNL     1      85.316  56.625  43.226  0.00  0.00    -0.451 OA
BRANCH  20  21
ATOM     21  C   UNL     1      86.034  56.378  44.404  0.00  0.00    +0.340 C 
ATOM     22  O   UNL     1      87.296  56.403  44.394  0.00  0.00    -0.245 OA
BRANCH  21  23
ATOM     23  C   UNL     1      85.308  56.104  45.665  0.00  0.00    +0.059 A 
ATOM     24  C   UNL     1      84.252  56.937  46.081  0.00  0.00    -0.048 A 
ATOM     25  C   UNL     1      83.568  56.672  47.273  0.00  0.00    -0.061 A 
ATOM     26  C   UNL     1      83.930  55.576  48.060  0.00  0.00    -0.062 A 
ATOM     27  C   UNL     1      84.974  54.741  47.656  0.00  0.00    -0.061 A 
ATOM     28  C   UNL     1      85.662  55.002  46.464  0.00  0.00    -0.048 A 
ENDBRANCH  21  23
ENDBRANCH  20  21
ENDBRANCH   6  20
TORSDOF 8
ENDMDL
MODEL 5
REMARK VINA RESULT:    -8.276      2.416      5.550
REMARK INTER + INTRA:         -13.182
REMARK INTER:                 -11.232
REMARK INTRA:                  -1.950
REMARK UNBOUND:                -1.277
REMARK  Name = 
REMARK  8 active torsions:
REMARK  status: ('A' for Active; 'I' for Inactive)
REMARK    1  A    between atoms: C_2  and  C_3
REMARK    2  A    between atoms: C_2  and  O_9
REMARK    3  A    between atoms: O_9  and  C_10
REMARK    4  A    between atoms: C_10  and  C_11
REMARK    5  A    between atoms: C_16  and  O_19
REMARK    6  A    between atoms: C_17  and  O_18
REMARK    7  A    between atoms: O_19  and  C_20
REMARK    8  A    between atoms: C_20  and  C_22
REMARK                            x       y       z     vdW  Elec       q    Type
REMARK                         _______ _______ _______ _____ _____    ______ ____
ROOT
ATOM      1  C   UNL     1      85.602  52.062  42.197  0.00  0.00    +0.163 C 
ATOM      2  O   UNL     1      86.452  51.184  41.484  0.00  0.00    -0.354 OA
ATOM      3  C   UNL     1      87.043  52.369  41.980  0.00  0.00    +0.113 C 
ATOM      4  C   UNL     1      87.973  52.094  43.132  0.00  0.00    -0.053 C 
ATOM      5  C   UNL     1      87.601  51.379  44.206  0.00  0.00    -0.043 C 
ATOM      6  C   UNL     1      86.271  50.674  44.270  0.00  0.00    +0.150 C 
ATOM      7  C   UNL     1      85.164  51.506  43.575  0.00  0.00    +0.130 C 
ENDROOT
BRANCH   7   8
ATOM      8  O   UNL     1      83.986  50.749  43.445  0.00  0.00    -0.385 OA
ATOM      9  H   UNL     1      83.424  51.141  42.758  0.00  0.00    +0.000 HD
ENDBRANCH   7   8
BRANCH   1  10
ATOM     10  C   UNL     1      84.579  52.763  41.284  0.00  0.00    +0.127 C 
BRANCH  10  11
ATOM     11  O   UNL     1      84.020  53.908  41.922  0.00  0.00    -0.458 OA
BRANCH  11  13
ATOM     12  O   UNL     1      84.794  55.784  40.820  0.00  0.00    -0.245 OA
ATOM     13  C   UNL     1      84.618  55.175  41.911  0.00  0.00    +0.339 C 
BRANCH  13  14
ATOM     14  C   UNL     1      85.044  55.794  43.186  0.00  0.00    +0.059 A 
ATOM     15  C   UNL     1      84.235  56.750  43.830  0.00  0.00    -0.048 A 
ATOM     16  C   UNL     1      84.646  57.329  45.036  0.00  0.00    -0.061 A 
ATOM     17  C   UNL     1      85.863  56.959  45.610  0.00  0.00    -0.062 A 
ATOM     18  C   UNL     1      86.674  56.011  44.980  0.00  0.00    -0.061 A 
ATOM     19  C   UNL     1      86.267  55.428  43.776  0.00  0.00    -0.048 A 
ENDBRANCH  13  14
ENDBRANCH  11  13
ENDBRANCH  10  11
ENDBRANCH   1  10
BRANCH   6  20
ATOM     20  O   UNL     1      85.936  50.459  45.641  0.00  0.00    -0.451 OA
BRANCH  20  21
ATOM     21  C   UNL     1      86.481  51.194  46.702  0.00  0.00    +0.340 C 
ATOM     22  O   UNL     1      87.616  50.892  47.165  0.00  0.00    -0.245 OA
BRANCH  21  23
ATOM     23  C   UNL     1      85.730  52.336  47.269  0.00  0.00    +0.059 A 
ATOM     24  C   UNL     1      85.893  52.703  48.619  0.00  0.00    -0.048 A 
ATOM     25  C   UNL     1      85.181  53.784  49.150  0.00  0.00    -0.061 A 
ATOM     26  C   UNL     1      84.302  54.510  48.341  0.00  0.00    -0.062 A 
ATOM     27  C   UNL     1      84.135  54.157  47.000  0.00  0.00    -0.061 A 
ATOM     28  C   UNL     1      84.844  53.076  46.464  0.00  0.00    -0.048 A 
ENDBRANCH  21  23
ENDBRANCH  20  21
ENDBRANCH   6  20
TORSDOF 8
ENDMDL
MODEL 6
REMARK VINA RESULT:    -8.262      1.938      2.629
REMARK INTER + INTRA:         -13.161
REMARK INTER:                 -12.210
REMARK INTRA:                  -0.951
REMARK UNBOUND:                -1.277
REMARK  Name = 
REMARK  8 active torsions:
REMARK  status: ('A' for Active; 'I' for Inactive)
REMARK    1  A    between atoms: C_2  and  C_3
REMARK    2  A    between atoms: C_2  and  O_9
REMARK    3  A    between atoms: O_9  and  C_10
REMARK    4  A    between atoms: C_10  and  C_11
REMARK    5  A    between atoms: C_16  and  O_19
REMARK    6  A    between atoms: C_17  and  O_18
REMARK    7  A    between atoms: O_19  and  C_20
REMARK    8  A    between atoms: C_20  and  C_22
REMARK                            x       y       z     vdW  Elec       q    Type
REMARK                         _______ _______ _______ _____ _____    ______ ____
ROOT
ATOM      1  C   UNL     1      85.992  53.536  41.694  0.00  0.00    +0.163 C 
ATOM      2  O   UNL     1      85.318  54.624  41.092  0.00  0.00    -0.354 OA
ATOM      3  C   UNL     1      84.505  53.611  41.650  0.00  0.00    +0.113 C 
ATOM      4  C   UNL     1      83.815  54.071  42.906  0.00  0.00    -0.053 C 
ATOM      5  C   UNL     1      84.478  54.632  43.931  0.00  0.00    -0.043 C 
ATOM      6  C   UNL     1      85.942  54.975  43.838  0.00  0.00    +0.150 C 
ATOM      7  C   UNL     1      86.713  53.915  43.011  0.00  0.00    +0.130 C 
ENDROOT
BRANCH   7   8
ATOM      8  O   UNL     1      88.022  54.354  42.745  0.00  0.00    -0.385 OA
ATOM      9  H   UNL     1      88.116  54.528  41.794  0.00  0.00    +0.000 HD
ENDBRANCH   7   8
BRANCH   1  10
ATOM     10  C   UNL     1      86.689  52.631  40.662  0.00  0.00    +0.127 C 
BRANCH  10  11
ATOM     11  O   UNL     1      87.929  52.137  41.164  0.00  0.00    -0.458 OA
BRANCH  11  13
ATOM     12  O   UNL     1      89.115  51.282  39.377  0.00  0.00    -0.245 OA
ATOM     13  C   UNL     1      88.668  51.121  40.546  0.00  0.00    +0.339 C 
BRANCH  13  14
ATOM     14  C   UNL     1      88.923  49.857  41.271  0.00  0.00    +0.059 A 
ATOM     15  C   UNL     1      90.226  49.504  41.673  0.00  0.00    -0.048 A 
ATOM     16  C   UNL     1      90.457  48.307  42.359  0.00  0.00    -0.061 A 
ATOM     17  C   UNL     1      89.393  47.453  42.653  0.00  0.00    -0.062 A 
ATOM     18  C   UNL     1      88.095  47.793  42.260  0.00  0.00    -0.061 A 
ATOM     19  C   UNL     1      87.859  48.989  41.575  0.00  0.00    -0.048 A 
ENDBRANCH  13  14
ENDBRANCH  11  13
ENDBRANCH  10  11
ENDBRANCH   1  10
BRANCH   6  20
ATOM     20  O   UNL     1      86.476  55.051  45.160  0.00  0.00    -0.451 OA
BRANCH  20  21
ATOM     21  C   UNL     1      85.796  54.611  46.303  0.00  0.00    +0.340 C 
ATOM     22  O   UNL     1      84.849  55.296  46.781  0.00  0.00    -0.245 OA
BRANCH  21  23
ATOM     23  C   UNL     1      86.179  53.331  46.940  0.00  0.00    +0.059 A 
ATOM     24  C   UNL     1      86.990  52.404  46.258  0.00  0.00    -0.048 A 
ATOM     25  C   UNL     1      87.351  51.197  46.865  0.00  0.00    -0.061 A 
ATOM     26  C   UNL     1      86.908  50.901  48.158  0.00  0.00    -0.062 A 
ATOM     27  C   UNL     1      86.106  51.815  48.845  0.00  0.00    -0.061 A 
ATOM     28  C   UNL     1      85.741  53.024  48.242  0.00  0.00    -0.048 A 
ENDBRANCH  21  23
ENDBRANCH  20  21
ENDBRANCH   6  20
TORSDOF 8
ENDMDL
MODEL 7
REMARK VINA RESULT:    -8.220      3.973      7.718
REMARK INTER + INTRA:         -13.101
REMARK INTER:                 -12.096
REMARK INTRA:                  -1.005
REMARK UNBOUND:                -1.277
REMARK  Name = 
REMARK  8 active torsions:
REMARK  status: ('A' for Active; 'I' for Inactive)
REMARK    1  A    between atoms: C_2  and  C_3
REMARK    2  A    between atoms: C_2  and  O_9
REMARK    3  A    between atoms: O_9  and  C_10
REMARK    4  A    between atoms: C_10  and  C_11
REMARK    5  A    between atoms: C_16  and  O_19
REMARK    6  A    between atoms: C_17  and  O_18
REMARK    7  A    between atoms: O_19  and  C_20
REMARK    8  A    between atoms: C_20  and  C_22
REMARK                            x       y       z     vdW  Elec       q    Type
REMARK                         _______ _______ _______ _____ _____    ______ ____
ROOT
ATOM      1  C   UNL     1      85.879  52.115  46.649  0.00  0.00    +0.163 C 
ATOM      2  O   UNL     1      87.159  52.557  46.239  0.00  0.00    -0.354 OA
ATOM      3  C   UNL     1      87.120  51.383  47.027  0.00  0.00    +0.113 C 
ATOM      4  C   UNL     1      87.450  50.154  46.223  0.00  0.00    -0.053 C 
ATOM      5  C   UNL     1      86.829  49.856  45.070  0.00  0.00    -0.043 C 
ATOM      6  C   UNL     1      85.858  50.809  44.422  0.00  0.00    +0.150 C 
ATOM      7  C   UNL     1      85.020  51.562  45.485  0.00  0.00    +0.130 C 
ENDROOT
BRANCH   7   8
ATOM      8  O   UNL     1      84.280  52.598  44.887  0.00  0.00    -0.385 OA
ATOM      9  H   UNL     1      84.259  53.364  45.482  0.00  0.00    +0.000 HD
ENDBRANCH   7   8
BRANCH   1  10
ATOM     10  C   UNL     1      85.248  53.039  47.707  0.00  0.00    +0.127 C 
BRANCH  10  11
ATOM     11  O   UNL     1      84.346  53.966  47.109  0.00  0.00    -0.458 OA
BRANCH  11  13
ATOM     12  O   UNL     1      83.915  55.808  48.432  0.00  0.00    -0.245 OA
ATOM     13  C   UNL     1      84.374  55.345  47.352  0.00  0.00    +0.339 C 
BRANCH  13  14
ATOM     14  C   UNL     1      84.946  56.256  46.336  0.00  0.00    +0.059 A 
ATOM     15  C   UNL     1      84.483  57.580  46.211  0.00  0.00    -0.048 A 
ATOM     16  C   UNL     1      85.031  58.434  45.248  0.00  0.00    -0.061 A 
ATOM     17  C   UNL     1      86.044  57.978  44.403  0.00  0.00    -0.062 A 
ATOM     18  C   UNL     1      86.511  56.666  44.518  0.00  0.00    -0.061 A 
ATOM     19  C   UNL     1      85.968  55.809  45.481  0.00  0.00    -0.048 A 
ENDBRANCH  13  14
ENDBRANCH  11  13
ENDBRANCH  10  11
ENDBRANCH   1  10
BRANCH   6  20
ATOM     20  O   UNL     1      84.999  50.064  43.557  0.00  0.00    -0.451 OA
BRANCH  20  21
ATOM     21  C   UNL     1      84.021  49.168  44.011  0.00  0.00    +0.340 C 
ATOM     22  O   UNL     1      84.356  48.144  44.668  0.00  0.00    -0.245 OA
BRANCH  21  23
ATOM     23  C   UNL     1      82.592  49.435  43.731  0.00  0.00    +0.059 A 
ATOM     24  C   UNL     1      82.208  50.550  42.961  0.00  0.00    -0.048 A 
ATOM     25  C   UNL     1      80.856  50.797  42.699  0.00  0.00    -0.061 A 
ATOM     26  C   UNL     1      79.875  49.936  43.199  0.00  0.00    -0.062 A 
ATOM     27  C   UNL     1      80.246  48.825  43.961  0.00  0.00    -0.061 A 
ATOM     28  C   UNL     1      81.597  48.574  44.227  0.00  0.00    -0.048 A 
ENDBRANCH  21  23
ENDBRANCH  20  21
ENDBRANCH   6  20
TORSDOF 8
ENDMDL
MODEL 8
REMARK VINA RESULT:    -8.157      4.514      7.849
REMARK INTER + INTRA:         -13.010
REMARK INTER:                 -11.733
REMARK INTRA:                  -1.277
REMARK UNBOUND:                -1.277
REMARK  Name = 
REMARK  8 active torsions:
REMARK  status: ('A' for Active; 'I' for Inactive)
REMARK    1  A    between atoms: C_2  and  C_3
REMARK    2  A    between atoms: C_2  and  O_9
REMARK    3  A    between atoms: O_9  and  C_10
REMARK    4  A    between atoms: C_10  and  C_11
REMARK    5  A    between atoms: C_16  and  O_19
REMARK    6  A    between atoms: C_17  and  O_18
REMARK    7  A    between atoms: O_19  and  C_20
REMARK    8  A    between atoms: C_20  and  C_22
REMARK                            x       y       z     vdW  Elec       q    Type
REMARK                         _______ _______ _______ _____ _____    ______ ____
ROOT
ATOM      1  C   UNL     1      84.988  52.102  43.868  0.00  0.00    +0.163 C 
ATOM      2  O   UNL     1      84.377  52.756  42.773  0.00  0.00    -0.354 OA
ATOM      3  C   UNL     1      84.920  53.587  43.779  0.00  0.00    +0.113 C 
ATOM      4  C   UNL     1      86.165  54.294  43.315  0.00  0.00    -0.053 C 
ATOM      5  C   UNL     1      87.201  53.643  42.762  0.00  0.00    -0.043 C 
ATOM      6  C   UNL     1      87.133  52.175  42.432  0.00  0.00    +0.150 C 
ATOM      7  C   UNL     1      86.318  51.400  43.498  0.00  0.00    +0.130 C 
ENDROOT
BRANCH   7   8
ATOM      8  O   UNL     1      86.074  50.083  43.071  0.00  0.00    -0.385 OA
ATOM      9  H   UNL     1      85.128  49.885  43.158  0.00  0.00    +0.000 HD
ENDBRANCH   7   8
BRANCH   1  10
ATOM     10  C   UNL     1      83.967  51.396  44.778  0.00  0.00    +0.127 C 
BRANCH  10  11
ATOM     11  O   UNL     1      83.154  50.490  44.036  0.00  0.00    -0.458 OA
BRANCH  11  13
ATOM     12  O   UNL     1      84.179  48.475  44.505  0.00  0.00    -0.245 OA
ATOM     13  C   UNL     1      83.114  49.110  44.271  0.00  0.00    +0.339 C 
BRANCH  13  14
ATOM     14  C   UNL     1      81.815  48.401  44.245  0.00  0.00    +0.059 A 
ATOM     15  C   UNL     1      80.609  49.095  44.462  0.00  0.00    -0.048 A 
ATOM     16  C   UNL     1      79.386  48.416  44.434  0.00  0.00    -0.061 A 
ATOM     17  C   UNL     1      79.354  47.043  44.188  0.00  0.00    -0.062 A 
ATOM     18  C   UNL     1      80.545  46.344  43.971  0.00  0.00    -0.061 A 
ATOM     19  C   UNL     1      81.769  47.018  43.996  0.00  0.00    -0.048 A 
ENDBRANCH  13  14
ENDBRANCH  11  13
ENDBRANCH  10  11
ENDBRANCH   1  10
BRANCH   6  20
ATOM     20  O   UNL     1      88.464  51.662  42.363  0.00  0.00    -0.451 OA
BRANCH  20  21
ATOM     21  C   UNL     1      88.877  50.682  41.450  0.00  0.00    +0.340 C 
ATOM     22  O   UNL     1      88.849  50.918  40.211  0.00  0.00    -0.245 OA
BRANCH  21  23
ATOM     23  C   UNL     1      89.360  49.373  41.944  0.00  0.00    +0.059 A 
ATOM     24  C   UNL     1      88.689  48.184  41.600  0.00  0.00    -0.048 A 
ATOM     25  C   UNL     1      89.151  46.949  42.069  0.00  0.00    -0.061 A 
ATOM     26  C   UNL     1      90.285  46.887  42.883  0.00  0.00    -0.062 A 
ATOM     27  C   UNL     1      90.961  48.060  43.227  0.00  0.00    -0.061 A 
ATOM     28  C   UNL     1      90.503  49.298  42.762  0.00  0.00    -0.048 A 
ENDBRANCH  21  23
ENDBRANCH  20  21
ENDBRANCH   6  20
TORSDOF 8
ENDMDL
MODEL 9
REMARK VINA RESULT:    -8.146      2.392      6.128
REMARK INTER + INTRA:         -12.995
REMARK INTER:                 -11.560
REMARK INTRA:                  -1.434
REMARK UNBOUND:                -1.277
REMARK  Name = 
REMARK  8 active torsions:
REMARK  status: ('A' for Active; 'I' for Inactive)
REMARK    1  A    between atoms: C_2  and  C_3
REMARK    2  A    between atoms: C_2  and  O_9
REMARK    3  A    between atoms: O_9  and  C_10
REMARK    4  A    between atoms: C_10  and  C_11
REMARK    5  A    between atoms: C_16  and  O_19
REMARK    6  A    between atoms: C_17  and  O_18
REMARK    7  A    between atoms: O_19  and  C_20
REMARK    8  A    between atoms: C_20  and  C_22
REMARK                            x       y       z     vdW  Elec       q    Type
REMARK                         _______ _______ _______ _____ _____    ______ ____
ROOT
ATOM      1  C   UNL     1      87.863  51.085  41.463  0.00  0.00    +0.163 C 
ATOM      2  O   UNL     1      87.743  49.775  40.943  0.00  0.00    -0.354 OA
ATOM      3  C   UNL     1      89.049  50.315  40.994  0.00  0.00    +0.113 C 
ATOM      4  C   UNL     1      89.890  49.658  42.056  0.00  0.00    -0.053 C 
ATOM      5  C   UNL     1      89.481  49.537  43.329  0.00  0.00    -0.043 C 
ATOM      6  C   UNL     1      88.087  49.920  43.756  0.00  0.00    +0.150 C 
ATOM      7  C   UNL     1      87.590  51.168  42.985  0.00  0.00    +0.130 C 
ENDROOT
BRANCH   7   8
ATOM      8  O   UNL     1      86.221  51.383  43.226  0.00  0.00    -0.385 OA
ATOM      9  H   UNL     1      85.741  50.545  43.133  0.00  0.00    +0.000 HD
ENDBRANCH   7   8
BRANCH   1  10
ATOM     10  C   UNL     1      87.285  52.151  40.513  0.00  0.00    +0.127 C 
BRANCH  10  11
ATOM     11  O   UNL     1      86.946  53.341  41.220  0.00  0.00    -0.458 OA
BRANCH  11  13
ATOM     12  O   UNL     1      84.739  53.437  40.550  0.00  0.00    -0.245 OA
ATOM     13  C   UNL     1      85.638  53.825  41.346  0.00  0.00    +0.339 C 
BRANCH  13  14
ATOM     14  C   UNL     1      85.315  54.792  42.418  0.00  0.00    +0.059 A 
ATOM     15  C   UNL     1      84.115  55.528  42.389  0.00  0.00    -0.048 A 
ATOM     16  C   UNL     1      83.818  56.440  43.408  0.00  0.00    -0.061 A 
ATOM     17  C   UNL     1      84.712  56.626  44.463  0.00  0.00    -0.062 A 
ATOM     18  C   UNL     1      85.907  55.901  44.502  0.00  0.00    -0.061 A 
ATOM     19  C   UNL     1      86.207  54.987  43.487  0.00  0.00    -0.048 A 
ENDBRANCH  13  14
ENDBRANCH  11  13
ENDBRANCH  10  11
ENDBRANCH   1  10
BRANCH   6  20
ATOM     20  O   UNL     1      88.098  50.181  45.160  0.00  0.00    -0.451 OA
BRANCH  20  21
ATOM     21  C   UNL     1      86.977  50.039  45.989  0.00  0.00    +0.340 C 
ATOM     22  O   UNL     1      86.311  48.967  45.976  0.00  0.00    -0.245 OA
BRANCH  21  23
ATOM     23  C   UNL     1      86.585  51.143  46.893  0.00  0.00    +0.059 A 
ATOM     24  C   UNL     1      86.508  50.938  48.284  0.00  0.00    -0.048 A 
ATOM     25  C   UNL     1      86.138  51.986  49.135  0.00  0.00    -0.061 A 
ATOM     26  C   UNL     1      85.843  53.247  48.608  0.00  0.00    -0.062 A 
ATOM     27  C   UNL     1      85.920  53.462  47.230  0.00  0.00    -0.061 A 
ATOM     28  C   UNL     1      86.289  52.417  46.375  0.00  0.00    -0.048 A 
ENDBRANCH  21  23
ENDBRANCH  20  21
ENDBRANCH   6  20
TORSDOF 8
ENDMDL
