MODEL 1
REMARK VINA RESULT:    -8.352      0.000      0.000
REMARK INTER + INTRA:         -12.158
REMARK INTER:                 -11.907
REMARK INTRA:                  -0.251
REMARK UNBOUND:                -1.364
REMARK  Name = 
REMARK  14 active torsions:
REMARK  status: ('A' for Active; 'I' for Inactive)
REMARK    1  A    between atoms: C_1  and  C_2
REMARK    2  A    between atoms: C_2  and  C_32
REMARK    3  A    between atoms: C_3  and  C_4
REMARK    4  A    between atoms: C_4  and  C_5
REMARK    5  A    between atoms: C_5  and  C_6
REMARK    6  A    between atoms: C_6  and  C_7
REMARK    7  A    between atoms: C_6  and  C_31
REMARK    8  A    between atoms: C_9  and  O_30
REMARK    9  A    between atoms: C_10  and  C_29
REMARK   10  A    between atoms: C_11  and  C_12
REMARK   11  A    between atoms: C_20  and  C_21
REMARK   12  A    between atoms: C_24  and  O_28
REMARK   13  A    between atoms: C_25  and  C_26
REMARK   14  A    between atoms: C_25  and  C_27
REMARK                            x       y       z     vdW  Elec       q    Type
REMARK                         _______ _______ _______ _____ _____    ______ ____
ROOT
ATOM      1  C   UNL     1      86.989  49.208  42.706  0.00  0.00    -0.030 C 
ATOM      2  C   UNL     1      87.139  48.473  44.071  0.00  0.00    -0.022 C 
ATOM      3  C   UNL     1      86.762  49.479  45.187  0.00  0.00    +0.065 C 
ATOM      4  C   UNL     1      86.076  50.648  44.442  0.00  0.00    +0.025 C 
ATOM      5  C   UNL     1      86.917  50.711  43.122  0.00  0.00    -0.014 C 
ATOM      6  C   UNL     1      88.372  51.257  43.367  0.00  0.00    -0.058 C 
ATOM      7  C   UNL     1      86.201  51.680  42.147  0.00  0.00    -0.028 C 
ATOM      8  C   UNL     1      85.922  53.018  42.814  0.00  0.00    -0.079 C 
ATOM      9  C   UNL     1      85.850  53.203  44.163  0.00  0.00    -0.042 C 
ATOM     10  C   UNL     1      86.096  52.029  45.079  0.00  0.00    -0.039 C 
ATOM     11  C   UNL     1      86.164  52.186  46.412  0.00  0.00    -0.080 C 
ATOM     12  C   UNL     1      86.057  53.528  47.069  0.00  0.00    -0.030 C 
ATOM     13  C   UNL     1      85.155  54.466  46.234  0.00  0.00    -0.021 C 
ATOM     14  C   UNL     1      85.715  54.618  44.766  0.00  0.00    -0.003 C 
ATOM     15  C   UNL     1      87.133  55.244  44.688  0.00  0.00    -0.055 C 
ATOM     16  C   UNL     1      84.713  55.484  43.945  0.00  0.00    -0.041 C 
ATOM     17  C   UNL     1      84.362  56.814  44.620  0.00  0.00    -0.026 C 
ATOM     18  C   UNL     1      83.759  56.596  46.018  0.00  0.00    +0.061 C 
ATOM     19  C   UNL     1      84.694  55.788  46.976  0.00  0.00    -0.005 C 
ATOM     20  C   UNL     1      85.875  56.660  47.483  0.00  0.00    -0.057 C 
ATOM     21  C   UNL     1      83.847  55.406  48.223  0.00  0.00    -0.057 C 
ATOM     22  C   UNL     1      84.563  50.307  44.228  0.00  0.00    -0.053 C 
ENDROOT
BRANCH   1  23
ATOM     23  C   UNL     1      88.080  48.763  41.667  0.00  0.00    -0.040 C 
ATOM     24  C   UNL     1      88.055  47.239  41.430  0.00  0.00    -0.062 C 
BRANCH  23  25
ATOM     25  C   UNL     1      89.502  49.183  42.145  0.00  0.00    -0.047 C 
BRANCH  25  26
ATOM     26  C   UNL     1      90.270  50.005  41.095  0.00  0.00    -0.034 C 
BRANCH  26  29
ATOM     27  C   UNL     1      90.244  52.996  40.822  0.00  0.00    -0.044 C 
ATOM     28  C   UNL     1      89.309  52.098  40.045  0.00  0.00    -0.080 C 
ATOM     29  C   UNL     1      89.316  50.754  40.198  0.00  0.00    -0.085 C 
ATOM     30  C   UNL     1      88.325  52.706  39.081  0.00  0.00    -0.044 C 
ENDBRANCH  26  29
ENDBRANCH  25  26
ENDBRANCH  23  25
ENDBRANCH   1  23
BRANCH  18  31
ATOM     31  O   UNL     1      83.355  57.821  46.586  0.00  0.00    -0.391 OA
ATOM     32  H   UNL     1      82.395  57.921  46.490  0.00  0.00    +0.000 HD
ENDBRANCH  18  31
BRANCH   3  33
ATOM     33  O   UNL     1      85.978  48.908  46.211  0.00  0.00    -0.391 OA
ATOM     34  H   UNL     1      86.186  49.337  47.056  0.00  0.00    +0.000 HD
ENDBRANCH   3  33
TORSDOF 6
ENDMDL
MODEL 2
REMARK VINA RESULT:    -8.342      2.339      4.678
REMARK INTER + INTRA:         -12.144
REMARK INTER:                 -11.323
REMARK INTRA:                  -0.821
REMARK UNBOUND:                -1.364
REMARK  Name = 
REMARK  14 active torsions:
REMARK  status: ('A' for Active; 'I' for Inactive)
REMARK    1  A    between atoms: C_1  and  C_2
REMARK    2  A    between atoms: C_2  and  C_32
REMARK    3  A    between atoms: C_3  and  C_4
REMARK    4  A    between atoms: C_4  and  C_5
REMARK    5  A    between atoms: C_5  and  C_6
REMARK    6  A    between atoms: C_6  and  C_7
REMARK    7  A    between atoms: C_6  and  C_31
REMARK    8  A    between atoms: C_9  and  O_30
REMARK    9  A    between atoms: C_10  and  C_29
REMARK   10  A    between atoms: C_11  and  C_12
REMARK   11  A    between atoms: C_20  and  C_21
REMARK   12  A    between atoms: C_24  and  O_28
REMARK   13  A    between atoms: C_25  and  C_26
REMARK   14  A    between atoms: C_25  and  C_27
REMARK                            x       y       z     vdW  Elec       q    Type
REMARK                         _______ _______ _______ _____ _____    ______ ____
ROOT
ATOM      1  C   UNL     1      89.001  49.141  42.409  0.00  0.00    -0.030 C 
ATOM      2  C   UNL     1      88.569  49.414  40.938  0.00  0.00    -0.022 C 
ATOM      3  C   UNL     1      87.730  50.717  40.930  0.00  0.00    +0.065 C 
ATOM      4  C   UNL     1      87.983  51.351  42.319  0.00  0.00    +0.025 C 
ATOM      5  C   UNL     1      88.061  50.080  43.230  0.00  0.00    -0.014 C 
ATOM      6  C   UNL     1      86.659  49.389  43.411  0.00  0.00    -0.058 C 
ATOM      7  C   UNL     1      88.556  50.527  44.629  0.00  0.00    -0.028 C 
ATOM      8  C   UNL     1      87.713  51.672  45.167  0.00  0.00    -0.079 C 
ATOM      9  C   UNL     1      86.968  52.509  44.388  0.00  0.00    -0.042 C 
ATOM     10  C   UNL     1      86.929  52.282  42.897  0.00  0.00    -0.039 C 
ATOM     11  C   UNL     1      86.112  52.995  42.104  0.00  0.00    -0.080 C 
ATOM     12  C   UNL     1      85.153  54.012  42.644  0.00  0.00    -0.030 C 
ATOM     13  C   UNL     1      85.720  54.654  43.932  0.00  0.00    -0.021 C 
ATOM     14  C   UNL     1      86.020  53.550  45.020  0.00  0.00    -0.003 C 
ATOM     15  C   UNL     1      84.769  52.755  45.480  0.00  0.00    -0.055 C 
ATOM     16  C   UNL     1      86.684  54.241  46.250  0.00  0.00    -0.041 C 
ATOM     17  C   UNL     1      85.890  55.439  46.779  0.00  0.00    -0.026 C 
ATOM     18  C   UNL     1      85.689  56.508  45.691  0.00  0.00    +0.061 C 
ATOM     19  C   UNL     1      84.970  55.964  44.414  0.00  0.00    -0.005 C 
ATOM     20  C   UNL     1      83.452  55.754  44.665  0.00  0.00    -0.057 C 
ATOM     21  C   UNL     1      85.099  57.059  43.318  0.00  0.00    -0.057 C 
ATOM     22  C   UNL     1      89.304  52.192  42.269  0.00  0.00    -0.053 C 
ENDROOT
BRANCH   1  23
ATOM     23  C   UNL     1      89.023  47.608  42.749  0.00  0.00    -0.040 C 
ATOM     24  C   UNL     1      90.461  47.086  42.937  0.00  0.00    -0.062 C 
BRANCH  23  25
ATOM     25  C   UNL     1      88.321  46.784  41.629  0.00  0.00    -0.047 C 
BRANCH  25  26
ATOM     26  C   UNL     1      88.053  45.324  42.035  0.00  0.00    -0.034 C 
BRANCH  26  29
ATOM     27  C   UNL     1      87.241  43.119  43.905  0.00  0.00    -0.044 C 
ATOM     28  C   UNL     1      86.285  44.198  43.452  0.00  0.00    -0.080 C 
ATOM     29  C   UNL     1      86.659  45.170  42.590  0.00  0.00    -0.085 C 
ATOM     30  C   UNL     1      84.866  44.192  43.957  0.00  0.00    -0.044 C 
ENDBRANCH  26  29
ENDBRANCH  25  26
ENDBRANCH  23  25
ENDBRANCH   1  23
BRANCH  18  31
ATOM     31  O   UNL     1      85.040  57.643  46.218  0.00  0.00    -0.391 OA
ATOM     32  H   UNL     1      85.641  58.404  46.181  0.00  0.00    +0.000 HD
ENDBRANCH  18  31
BRANCH   3  33
ATOM     33  O   UNL     1      88.030  51.567  39.845  0.00  0.00    -0.391 OA
ATOM     34  H   UNL     1      87.455  51.347  39.095  0.00  0.00    +0.000 HD
ENDBRANCH   3  33
TORSDOF 6
ENDMDL
MODEL 3
REMARK VINA RESULT:    -8.314      1.780      3.563
REMARK INTER + INTRA:         -12.108
REMARK INTER:                 -11.654
REMARK INTRA:                  -0.454
REMARK UNBOUND:                -1.364
REMARK  Name = 
REMARK  14 active torsions:
REMARK  status: ('A' for Active; 'I' for Inactive)
REMARK    1  A    between atoms: C_1  and  C_2
REMARK    2  A    between atoms: C_2  and  C_32
REMARK    3  A    between atoms: C_3  and  C_4
REMARK    4  A    between atoms: C_4  and  C_5
REMARK    5  A    between atoms: C_5  and  C_6
REMARK    6  A    between atoms: C_6  and  C_7
REMARK    7  A    between atoms: C_6  and  C_31
REMARK    8  A    between atoms: C_9  and  O_30
REMARK    9  A    between atoms: C_10  and  C_29
REMARK   10  A    between atoms: C_11  and  C_12
REMARK   11  A    between atoms: C_20  and  C_21
REMARK   12  A    between atoms: C_24  and  O_28
REMARK   13  A    between atoms: C_25  and  C_26
REMARK   14  A    between atoms: C_25  and  C_27
REMARK                            x       y       z     vdW  Elec       q    Type
REMARK                         _______ _______ _______ _____ _____    ______ ____
ROOT
ATOM      1  C   UNL     1      87.177  49.382  42.458  0.00  0.00    -0.030 C 
ATOM      2  C   UNL     1      86.176  48.549  43.314  0.00  0.00    -0.022 C 
ATOM      3  C   UNL     1      85.403  49.538  44.222  0.00  0.00    +0.065 C 
ATOM      4  C   UNL     1      85.717  50.934  43.633  0.00  0.00    +0.025 C 
ATOM      5  C   UNL     1      87.210  50.757  43.195  0.00  0.00    -0.014 C 
ATOM      6  C   UNL     1      88.186  50.668  44.426  0.00  0.00    -0.058 C 
ATOM      7  C   UNL     1      87.611  51.998  42.358  0.00  0.00    -0.028 C 
ATOM      8  C   UNL     1      87.291  53.285  43.101  0.00  0.00    -0.079 C 
ATOM      9  C   UNL     1      86.370  53.385  44.103  0.00  0.00    -0.042 C 
ATOM     10  C   UNL     1      85.635  52.145  44.549  0.00  0.00    -0.039 C 
ATOM     11  C   UNL     1      84.815  52.165  45.614  0.00  0.00    -0.080 C 
ATOM     12  C   UNL     1      84.622  53.389  46.456  0.00  0.00    -0.030 C 
ATOM     13  C   UNL     1      84.791  54.665  45.598  0.00  0.00    -0.021 C 
ATOM     14  C   UNL     1      86.212  54.691  44.911  0.00  0.00    -0.003 C 
ATOM     15  C   UNL     1      87.400  54.714  45.909  0.00  0.00    -0.055 C 
ATOM     16  C   UNL     1      86.284  55.939  43.980  0.00  0.00    -0.041 C 
ATOM     17  C   UNL     1      85.907  57.247  44.684  0.00  0.00    -0.026 C 
ATOM     18  C   UNL     1      84.488  57.182  45.273  0.00  0.00    +0.061 C 
ATOM     19  C   UNL     1      84.290  56.004  46.281  0.00  0.00    -0.005 C 
ATOM     20  C   UNL     1      84.977  56.301  47.642  0.00  0.00    -0.057 C 
ATOM     21  C   UNL     1      82.764  55.895  46.561  0.00  0.00    -0.057 C 
ATOM     22  C   UNL     1      84.729  51.232  42.454  0.00  0.00    -0.053 C 
ENDROOT
BRANCH   1  23
ATOM     23  C   UNL     1      88.530  48.621  42.216  0.00  0.00    -0.040 C 
ATOM     24  C   UNL     1      89.556  49.503  41.477  0.00  0.00    -0.062 C 
BRANCH  23  25
ATOM     25  C   UNL     1      88.291  47.317  41.398  0.00  0.00    -0.047 C 
BRANCH  25  26
ATOM     26  C   UNL     1      88.685  46.044  42.169  0.00  0.00    -0.034 C 
BRANCH  26  29
ATOM     27  C   UNL     1      88.789  43.481  43.731  0.00  0.00    -0.044 C 
ATOM     28  C   UNL     1      87.490  44.146  43.340  0.00  0.00    -0.080 C 
ATOM     29  C   UNL     1      87.459  45.287  42.614  0.00  0.00    -0.085 C 
ATOM     30  C   UNL     1      86.182  43.520  43.751  0.00  0.00    -0.044 C 
ENDBRANCH  26  29
ENDBRANCH  25  26
ENDBRANCH  23  25
ENDBRANCH   1  23
BRANCH  18  31
ATOM     31  O   UNL     1      84.121  58.422  45.833  0.00  0.00    -0.391 OA
ATOM     32  H   UNL     1      83.158  58.452  45.949  0.00  0.00    +0.000 HD
ENDBRANCH  18  31
BRANCH   3  33
ATOM     33  O   UNL     1      84.025  49.248  44.315  0.00  0.00    -0.391 OA
ATOM     34  H   UNL     1      83.904  48.403  44.775  0.00  0.00    +0.000 HD
ENDBRANCH   3  33
TORSDOF 6
ENDMDL
MODEL 4
REMARK VINA RESULT:    -8.293      3.549      6.086
REMARK INTER + INTRA:         -12.080
REMARK INTER:                 -11.493
REMARK INTRA:                  -0.587
REMARK UNBOUND:                -1.364
REMARK  Name = 
REMARK  14 active torsions:
REMARK  status: ('A' for Active; 'I' for Inactive)
REMARK    1  A    between atoms: C_1  and  C_2
REMARK    2  A    between atoms: C_2  and  C_32
REMARK    3  A    between atoms: C_3  and  C_4
REMARK    4  A    between atoms: C_4  and  C_5
REMARK    5  A    between atoms: C_5  and  C_6
REMARK    6  A    between atoms: C_6  and  C_7
REMARK    7  A    between atoms: C_6  and  C_31
REMARK    8  A    between atoms: C_9  and  O_30
REMARK    9  A    between atoms: C_10  and  C_29
REMARK   10  A    between atoms: C_11  and  C_12
REMARK   11  A    between atoms: C_20  and  C_21
REMARK   12  A    between atoms: C_24  and  O_28
REMARK   13  A    between atoms: C_25  and  C_26
REMARK   14  A    between atoms: C_25  and  C_27
REMARK                            x       y       z     vdW  Elec       q    Type
REMARK                         _______ _______ _______ _____ _____    ______ ____
ROOT
ATOM      1  C   UNL     1      88.518  49.296  43.558  0.00  0.00    -0.030 C 
ATOM      2  C   UNL     1      88.270  50.819  43.777  0.00  0.00    -0.022 C 
ATOM      3  C   UNL     1      86.745  51.020  43.970  0.00  0.00    +0.065 C 
ATOM      4  C   UNL     1      86.191  49.595  44.205  0.00  0.00    +0.025 C 
ATOM      5  C   UNL     1      87.091  48.749  43.242  0.00  0.00    -0.014 C 
ATOM      6  C   UNL     1      86.754  49.011  41.728  0.00  0.00    -0.058 C 
ATOM      7  C   UNL     1      86.827  47.251  43.538  0.00  0.00    -0.028 C 
ATOM      8  C   UNL     1      85.340  46.939  43.492  0.00  0.00    -0.079 C 
ATOM      9  C   UNL     1      84.355  47.868  43.657  0.00  0.00    -0.042 C 
ATOM     10  C   UNL     1      84.737  49.314  43.860  0.00  0.00    -0.039 C 
ATOM     11  C   UNL     1      83.807  50.283  43.898  0.00  0.00    -0.080 C 
ATOM     12  C   UNL     1      82.349  50.006  43.686  0.00  0.00    -0.030 C 
ATOM     13  C   UNL     1      81.994  48.586  44.184  0.00  0.00    -0.021 C 
ATOM     14  C   UNL     1      82.870  47.500  43.446  0.00  0.00    -0.003 C 
ATOM     15  C   UNL     1      82.664  47.454  41.908  0.00  0.00    -0.055 C 
ATOM     16  C   UNL     1      82.545  46.105  44.061  0.00  0.00    -0.041 C 
ATOM     17  C   UNL     1      81.047  45.785  44.087  0.00  0.00    -0.026 C 
ATOM     18  C   UNL     1      80.258  46.843  44.877  0.00  0.00    +0.061 C 
ATOM     19  C   UNL     1      80.443  48.294  44.325  0.00  0.00    -0.005 C 
ATOM     20  C   UNL     1      79.649  48.503  43.006  0.00  0.00    -0.057 C 
ATOM     21  C   UNL     1      79.834  49.262  45.377  0.00  0.00    -0.057 C 
ATOM     22  C   UNL     1      86.342  49.226  45.720  0.00  0.00    -0.053 C 
ENDROOT
BRANCH   1  23
ATOM     23  C   UNL     1      89.677  49.024  42.534  0.00  0.00    -0.040 C 
ATOM     24  C   UNL     1      90.874  48.317  43.201  0.00  0.00    -0.062 C 
BRANCH  23  25
ATOM     25  C   UNL     1      90.164  50.353  41.884  0.00  0.00    -0.047 C 
BRANCH  25  26
ATOM     26  C   UNL     1      89.385  50.718  40.607  0.00  0.00    -0.034 C 
BRANCH  26  29
ATOM     27  C   UNL     1      89.225  53.591  41.468  0.00  0.00    -0.044 C 
ATOM     28  C   UNL     1      90.018  53.143  40.262  0.00  0.00    -0.080 C 
ATOM     29  C   UNL     1      90.060  51.849  39.873  0.00  0.00    -0.085 C 
ATOM     30  C   UNL     1      90.777  54.162  39.452  0.00  0.00    -0.044 C 
ENDBRANCH  26  29
ENDBRANCH  25  26
ENDBRANCH  23  25
ENDBRANCH   1  23
BRANCH  18  31
ATOM     31  O   UNL     1      78.898  46.485  44.972  0.00  0.00    -0.391 OA
ATOM     32  H   UNL     1      78.777  45.867  45.711  0.00  0.00    +0.000 HD
ENDBRANCH  18  31
BRANCH   3  33
ATOM     33  O   UNL     1      86.430  51.939  44.993  0.00  0.00    -0.391 OA
ATOM     34  H   UNL     1      87.201  52.499  45.173  0.00  0.00    +0.000 HD
ENDBRANCH   3  33
TORSDOF 6
ENDMDL
MODEL 5
REMARK VINA RESULT:    -8.134      2.494      4.958
REMARK INTER + INTRA:         -11.876
REMARK INTER:                 -11.600
REMARK INTRA:                  -0.276
REMARK UNBOUND:                -1.364
REMARK  Name = 
REMARK  14 active torsions:
REMARK  status: ('A' for Active; 'I' for Inactive)
REMARK    1  A    between atoms: C_1  and  C_2
REMARK    2  A    between atoms: C_2  and  C_32
REMARK    3  A    between atoms: C_3  and  C_4
REMARK    4  A    between atoms: C_4  and  C_5
REMARK    5  A    between atoms: C_5  and  C_6
REMARK    6  A    between atoms: C_6  and  C_7
REMARK    7  A    between atoms: C_6  and  C_31
REMARK    8  A    between atoms: C_9  and  O_30
REMARK    9  A    between atoms: C_10  and  C_29
REMARK   10  A    between atoms: C_11  and  C_12
REMARK   11  A    between atoms: C_20  and  C_21
REMARK   12  A    between atoms: C_24  and  O_28
REMARK   13  A    between atoms: C_25  and  C_26
REMARK   14  A    between atoms: C_25  and  C_27
REMARK                            x       y       z     vdW  Elec       q    Type
REMARK                         _______ _______ _______ _____ _____    ______ ____
ROOT
ATOM      1  C   UNL     1      86.916  47.691  43.254  0.00  0.00    -0.030 C 
ATOM      2  C   UNL     1      87.105  48.153  41.778  0.00  0.00    -0.022 C 
ATOM      3  C   UNL     1      86.985  49.698  41.753  0.00  0.00    +0.065 C 
ATOM      4  C   UNL     1      87.079  50.119  43.239  0.00  0.00    +0.025 C 
ATOM      5  C   UNL     1      86.306  48.952  43.942  0.00  0.00    -0.014 C 
ATOM      6  C   UNL     1      84.759  49.006  43.659  0.00  0.00    -0.058 C 
ATOM      7  C   UNL     1      86.516  49.095  45.470  0.00  0.00    -0.028 C 
ATOM      8  C   UNL     1      86.163  50.496  45.942  0.00  0.00    -0.079 C 
ATOM      9  C   UNL     1      86.138  51.595  45.134  0.00  0.00    -0.042 C 
ATOM     10  C   UNL     1      86.439  51.431  43.665  0.00  0.00    -0.039 C 
ATOM     11  C   UNL     1      86.302  52.456  42.806  0.00  0.00    -0.080 C 
ATOM     12  C   UNL     1      85.793  53.799  43.233  0.00  0.00    -0.030 C 
ATOM     13  C   UNL     1      86.183  54.081  44.702  0.00  0.00    -0.021 C 
ATOM     14  C   UNL     1      85.622  52.954  45.654  0.00  0.00    -0.003 C 
ATOM     15  C   UNL     1      84.074  52.840  45.661  0.00  0.00    -0.055 C 
ATOM     16  C   UNL     1      86.134  53.233  47.100  0.00  0.00    -0.041 C 
ATOM     17  C   UNL     1      85.848  54.658  47.584  0.00  0.00    -0.026 C 
ATOM     18  C   UNL     1      86.478  55.707  46.652  0.00  0.00    +0.061 C 
ATOM     19  C   UNL     1      86.000  55.584  45.168  0.00  0.00    -0.005 C 
ATOM     20  C   UNL     1      84.550  56.115  44.995  0.00  0.00    -0.057 C 
ATOM     21  C   UNL     1      86.921  56.500  44.316  0.00  0.00    -0.057 C 
ATOM     22  C   UNL     1      88.586  50.235  43.649  0.00  0.00    -0.053 C 
ENDROOT
BRANCH   1  23
ATOM     23  C   UNL     1      86.146  46.326  43.356  0.00  0.00    -0.040 C 
ATOM     24  C   UNL     1      87.098  45.122  43.217  0.00  0.00    -0.062 C 
BRANCH  23  25
ATOM     25  C   UNL     1      85.039  46.234  42.264  0.00  0.00    -0.047 C 
BRANCH  25  26
ATOM     26  C   UNL     1      83.673  45.805  42.828  0.00  0.00    -0.034 C 
BRANCH  26  29
ATOM     27  C   UNL     1      81.379  46.197  44.728  0.00  0.00    -0.044 C 
ATOM     28  C   UNL     1      81.646  47.127  43.567  0.00  0.00    -0.080 C 
ATOM     29  C   UNL     1      82.668  46.923  42.706  0.00  0.00    -0.085 C 
ATOM     30  C   UNL     1      80.743  48.312  43.343  0.00  0.00    -0.044 C 
ENDBRANCH  26  29
ENDBRANCH  25  26
ENDBRANCH  23  25
ENDBRANCH   1  23
BRANCH  18  31
ATOM     31  O   UNL     1      86.287  57.007  47.161  0.00  0.00    -0.391 OA
ATOM     32  H   UNL     1      86.975  57.595  46.811  0.00  0.00    +0.000 HD
ENDBRANCH  18  31
BRANCH   3  33
ATOM     33  O   UNL     1      87.938  50.317  40.917  0.00  0.00    -0.391 OA
ATOM     34  H   UNL     1      88.472  49.637  40.477  0.00  0.00    +0.000 HD
ENDBRANCH   3  33
TORSDOF 6
ENDMDL
MODEL 6
REMARK VINA RESULT:    -7.994      2.593      7.959
REMARK INTER + INTRA:         -11.695
REMARK INTER:                 -10.275
REMARK INTRA:                  -1.420
REMARK UNBOUND:                -1.364
REMARK  Name = 
REMARK  14 active torsions:
REMARK  status: ('A' for Active; 'I' for Inactive)
REMARK    1  A    between atoms: C_1  and  C_2
REMARK    2  A    between atoms: C_2  and  C_32
REMARK    3  A    between atoms: C_3  and  C_4
REMARK    4  A    between atoms: C_4  and  C_5
REMARK    5  A    between atoms: C_5  and  C_6
REMARK    6  A    between atoms: C_6  and  C_7
REMARK    7  A    between atoms: C_6  and  C_31
REMARK    8  A    between atoms: C_9  and  O_30
REMARK    9  A    between atoms: C_10  and  C_29
REMARK   10  A    between atoms: C_11  and  C_12
REMARK   11  A    between atoms: C_20  and  C_21
REMARK   12  A    between atoms: C_24  and  O_28
REMARK   13  A    between atoms: C_25  and  C_26
REMARK   14  A    between atoms: C_25  and  C_27
REMARK                            x       y       z     vdW  Elec       q    Type
REMARK                         _______ _______ _______ _____ _____    ______ ____
ROOT
ATOM      1  C   UNL     1      85.569  54.255  43.272  0.00  0.00    -0.030 C 
ATOM      2  C   UNL     1      87.103  54.363  43.021  0.00  0.00    -0.022 C 
ATOM      3  C   UNL     1      87.652  52.924  42.855  0.00  0.00    +0.065 C 
ATOM      4  C   UNL     1      86.393  52.046  42.666  0.00  0.00    +0.025 C 
ATOM      5  C   UNL     1      85.378  52.747  43.630  0.00  0.00    -0.014 C 
ATOM      6  C   UNL     1      85.739  52.520  45.145  0.00  0.00    -0.058 C 
ATOM      7  C   UNL     1      83.978  52.133  43.377  0.00  0.00    -0.028 C 
ATOM      8  C   UNL     1      84.024  50.616  43.460  0.00  0.00    -0.079 C 
ATOM      9  C   UNL     1      85.155  49.872  43.292  0.00  0.00    -0.042 C 
ATOM     10  C   UNL     1      86.466  50.576  43.047  0.00  0.00    -0.039 C 
ATOM     11  C   UNL     1      87.625  49.897  43.005  0.00  0.00    -0.080 C 
ATOM     12  C   UNL     1      87.702  48.421  43.252  0.00  0.00    -0.030 C 
ATOM     13  C   UNL     1      86.395  47.731  42.797  0.00  0.00    -0.021 C 
ATOM     14  C   UNL     1      85.149  48.348  43.543  0.00  0.00    -0.003 C 
ATOM     15  C   UNL     1      85.182  48.176  45.085  0.00  0.00    -0.055 C 
ATOM     16  C   UNL     1      83.858  47.690  42.969  0.00  0.00    -0.041 C 
ATOM     17  C   UNL     1      83.897  46.159  42.981  0.00  0.00    -0.026 C 
ATOM     18  C   UNL     1      85.095  45.619  42.181  0.00  0.00    +0.061 C 
ATOM     19  C   UNL     1      86.472  46.152  42.694  0.00  0.00    -0.005 C 
ATOM     20  C   UNL     1      86.887  45.463  44.024  0.00  0.00    -0.057 C 
ATOM     21  C   UNL     1      87.536  45.759  41.632  0.00  0.00    -0.057 C 
ATOM     22  C   UNL     1      85.970  52.068  41.157  0.00  0.00    -0.053 C 
ENDROOT
BRANCH   1  23
ATOM     23  C   UNL     1      85.052  55.343  44.279  0.00  0.00    -0.040 C 
ATOM     24  C   UNL     1      84.105  56.349  43.595  0.00  0.00    -0.062 C 
BRANCH  23  25
ATOM     25  C   UNL     1      86.244  56.115  44.919  0.00  0.00    -0.047 C 
BRANCH  25  26
ATOM     26  C   UNL     1      85.956  56.580  46.357  0.00  0.00    -0.034 C 
BRANCH  26  29
ATOM     27  C   UNL     1      83.672  55.153  47.688  0.00  0.00    -0.044 C 
ATOM     28  C   UNL     1      85.118  54.776  47.921  0.00  0.00    -0.080 C 
ATOM     29  C   UNL     1      86.135  55.445  47.334  0.00  0.00    -0.085 C 
ATOM     30  C   UNL     1      85.447  53.633  48.846  0.00  0.00    -0.044 C 
ENDBRANCH  26  29
ENDBRANCH  25  26
ENDBRANCH  23  25
ENDBRANCH   1  23
BRANCH  18  31
ATOM     31  O   UNL     1      85.064  44.211  42.123  0.00  0.00    -0.391 OA
ATOM     32  H   UNL     1      85.846  43.851  42.571  0.00  0.00    +0.000 HD
ENDBRANCH  18  31
BRANCH   3  33
ATOM     33  O   UNL     1      88.600  52.806  41.816  0.00  0.00    -0.391 OA
ATOM     34  H   UNL     1      88.415  53.470  41.134  0.00  0.00    +0.000 HD
ENDBRANCH   3  33
TORSDOF 6
ENDMDL
MODEL 7
REMARK VINA RESULT:    -7.702      2.049      8.048
REMARK INTER + INTRA:         -11.317
REMARK INTER:                 -11.001
REMARK INTRA:                  -0.316
REMARK UNBOUND:                -1.364
REMARK  Name = 
REMARK  14 active torsions:
REMARK  status: ('A' for Active; 'I' for Inactive)
REMARK    1  A    between atoms: C_1  and  C_2
REMARK    2  A    between atoms: C_2  and  C_32
REMARK    3  A    between atoms: C_3  and  C_4
REMARK    4  A    between atoms: C_4  and  C_5
REMARK    5  A    between atoms: C_5  and  C_6
REMARK    6  A    between atoms: C_6  and  C_7
REMARK    7  A    between atoms: C_6  and  C_31
REMARK    8  A    between atoms: C_9  and  O_30
REMARK    9  A    between atoms: C_10  and  C_29
REMARK   10  A    between atoms: C_11  and  C_12
REMARK   11  A    between atoms: C_20  and  C_21
REMARK   12  A    between atoms: C_24  and  O_28
REMARK   13  A    between atoms: C_25  and  C_26
REMARK   14  A    between atoms: C_25  and  C_27
REMARK                            x       y       z     vdW  Elec       q    Type
REMARK                         _______ _______ _______ _____ _____    ______ ____
ROOT
ATOM      1  C   UNL     1      84.471  55.438  45.288  0.00  0.00    -0.030 C 
ATOM      2  C   UNL     1      85.272  56.225  44.207  0.00  0.00    -0.022 C 
ATOM      3  C   UNL     1      86.130  55.200  43.423  0.00  0.00    +0.065 C 
ATOM      4  C   UNL     1      85.555  53.822  43.825  0.00  0.00    +0.025 C 
ATOM      5  C   UNL     1      85.203  54.060  45.333  0.00  0.00    -0.014 C 
ATOM      6  C   UNL     1      86.488  54.179  46.233  0.00  0.00    -0.058 C 
ATOM      7  C   UNL     1      84.385  52.842  45.829  0.00  0.00    -0.028 C 
ATOM      8  C   UNL     1      85.103  51.538  45.519  0.00  0.00    -0.079 C 
ATOM      9  C   UNL     1      86.050  51.395  44.547  0.00  0.00    -0.042 C 
ATOM     10  C   UNL     1      86.458  52.602  43.739  0.00  0.00    -0.039 C 
ATOM     11  C   UNL     1      87.475  52.543  42.862  0.00  0.00    -0.080 C 
ATOM     12  C   UNL     1      88.300  51.306  42.670  0.00  0.00    -0.030 C 
ATOM     13  C   UNL     1      87.446  50.044  42.938  0.00  0.00    -0.021 C 
ATOM     14  C   UNL     1      86.841  50.079  44.395  0.00  0.00    -0.003 C 
ATOM     15  C   UNL     1      87.905  50.096  45.525  0.00  0.00    -0.055 C 
ATOM     16  C   UNL     1      85.911  48.841  44.570  0.00  0.00    -0.041 C 
ATOM     17  C   UNL     1      86.585  47.515  44.205  0.00  0.00    -0.026 C 
ATOM     18  C   UNL     1      87.093  47.520  42.753  0.00  0.00    +0.061 C 
ATOM     19  C   UNL     1      88.094  48.682  42.452  0.00  0.00    -0.005 C 
ATOM     20  C   UNL     1      89.491  48.403  43.072  0.00  0.00    -0.057 C 
ATOM     21  C   UNL     1      88.286  48.729  40.910  0.00  0.00    -0.057 C 
ATOM     22  C   UNL     1      84.320  53.494  42.919  0.00  0.00    -0.053 C 
ENDROOT
BRANCH   1  23
ATOM     23  C   UNL     1      84.311  56.253  46.621  0.00  0.00    -0.040 C 
ATOM     24  C   UNL     1      85.676  56.665  47.206  0.00  0.00    -0.062 C 
BRANCH  23  25
ATOM     25  C   UNL     1      83.526  55.426  47.682  0.00  0.00    -0.047 C 
BRANCH  25  26
ATOM     26  C   UNL     1      84.439  54.803  48.752  0.00  0.00    -0.034 C 
BRANCH  26  29
ATOM     27  C   UNL     1      85.728  52.109  49.077  0.00  0.00    -0.044 C 
ATOM     28  C   UNL     1      84.340  52.417  49.591  0.00  0.00    -0.080 C 
ATOM     29  C   UNL     1      83.764  53.628  49.414  0.00  0.00    -0.085 C 
ATOM     30  C   UNL     1      83.560  51.347  50.309  0.00  0.00    -0.044 C 
ENDBRANCH  26  29
ENDBRANCH  25  26
ENDBRANCH  23  25
ENDBRANCH   1  23
BRANCH  18  31
ATOM     31  O   UNL     1      87.626  46.263  42.405  0.00  0.00    -0.391 OA
ATOM     32  H   UNL     1      87.749  46.219  41.443  0.00  0.00    +0.000 HD
ENDBRANCH  18  31
BRANCH   3  33
ATOM     33  O   UNL     1      86.146  55.435  42.032  0.00  0.00    -0.391 OA
ATOM     34  H   UNL     1      87.048  55.658  41.753  0.00  0.00    +0.000 HD
ENDBRANCH   3  33
TORSDOF 6
ENDMDL
MODEL 8
REMARK VINA RESULT:    -7.501      1.731      2.635
REMARK INTER + INTRA:         -11.058
REMARK INTER:                 -10.051
REMARK INTRA:                  -1.007
REMARK UNBOUND:                -1.364
REMARK  Name = 
REMARK  14 active torsions:
REMARK  status: ('A' for Active; 'I' for Inactive)
REMARK    1  A    between atoms: C_1  and  C_2
REMARK    2  A    between atoms: C_2  and  C_32
REMARK    3  A    between atoms: C_3  and  C_4
REMARK    4  A    between atoms: C_4  and  C_5
REMARK    5  A    between atoms: C_5  and  C_6
REMARK    6  A    between atoms: C_6  and  C_7
REMARK    7  A    between atoms: C_6  and  C_31
REMARK    8  A    between atoms: C_9  and  O_30
REMARK    9  A    between atoms: C_10  and  C_29
REMARK   10  A    between atoms: C_11  and  C_12
REMARK   11  A    between atoms: C_20  and  C_21
REMARK   12  A    between atoms: C_24  and  O_28
REMARK   13  A    between atoms: C_25  and  C_26
REMARK   14  A    between atoms: C_25  and  C_27
REMARK                            x       y       z     vdW  Elec       q    Type
REMARK                         _______ _______ _______ _____ _____    ______ ____
ROOT
ATOM      1  C   UNL     1      85.468  48.214  43.429  0.00  0.00    -0.030 C 
ATOM      2  C   UNL     1      86.213  48.007  44.781  0.00  0.00    -0.022 C 
ATOM      3  C   UNL     1      86.443  49.406  45.407  0.00  0.00    +0.065 C 
ATOM      4  C   UNL     1      85.533  50.353  44.590  0.00  0.00    +0.025 C 
ATOM      5  C   UNL     1      85.656  49.740  43.154  0.00  0.00    -0.014 C 
ATOM      6  C   UNL     1      87.076  49.986  42.521  0.00  0.00    -0.058 C 
ATOM      7  C   UNL     1      84.604  50.430  42.250  0.00  0.00    -0.028 C 
ATOM      8  C   UNL     1      84.722  51.944  42.332  0.00  0.00    -0.079 C 
ATOM      9  C   UNL     1      85.299  52.614  43.371  0.00  0.00    -0.042 C 
ATOM     10  C   UNL     1      85.902  51.825  44.507  0.00  0.00    -0.039 C 
ATOM     11  C   UNL     1      86.593  52.431  45.487  0.00  0.00    -0.080 C 
ATOM     12  C   UNL     1      86.859  53.906  45.489  0.00  0.00    -0.030 C 
ATOM     13  C   UNL     1      85.706  54.661  44.787  0.00  0.00    -0.021 C 
ATOM     14  C   UNL     1      85.517  54.141  43.309  0.00  0.00    -0.003 C 
ATOM     15  C   UNL     1      86.755  54.352  42.397  0.00  0.00    -0.055 C 
ATOM     16  C   UNL     1      84.280  54.860  42.691  0.00  0.00    -0.041 C 
ATOM     17  C   UNL     1      84.338  56.386  42.812  0.00  0.00    -0.026 C 
ATOM     18  C   UNL     1      84.455  56.831  44.280  0.00  0.00    +0.061 C 
ATOM     19  C   UNL     1      85.698  56.230  45.012  0.00  0.00    -0.005 C 
ATOM     20  C   UNL     1      87.012  56.928  44.564  0.00  0.00    -0.057 C 
ATOM     21  C   UNL     1      85.523  56.529  46.527  0.00  0.00    -0.057 C 
ATOM     22  C   UNL     1      84.084  50.316  45.185  0.00  0.00    -0.053 C 
ENDROOT
BRANCH   1  23
ATOM     23  C   UNL     1      85.925  47.187  42.333  0.00  0.00    -0.040 C 
ATOM     24  C   UNL     1      84.863  46.095  42.096  0.00  0.00    -0.062 C 
BRANCH  23  25
ATOM     25  C   UNL     1      87.271  46.513  42.735  0.00  0.00    -0.047 C 
BRANCH  25  26
ATOM     26  C   UNL     1      88.458  46.981  41.873  0.00  0.00    -0.034 C 
BRANCH  26  29
ATOM     27  C   UNL     1      90.334  49.262  41.328  0.00  0.00    -0.044 C 
ATOM     28  C   UNL     1      90.490  48.343  42.517  0.00  0.00    -0.080 C 
ATOM     29  C   UNL     1      89.652  47.304  42.735  0.00  0.00    -0.085 C 
ATOM     30  C   UNL     1      91.620  48.570  43.488  0.00  0.00    -0.044 C 
ENDBRANCH  26  29
ENDBRANCH  25  26
ENDBRANCH  23  25
ENDBRANCH   1  23
BRANCH  18  31
ATOM     31  O   UNL     1      84.412  58.236  44.381  0.00  0.00    -0.391 OA
ATOM     32  H   UNL     1      85.058  58.624  43.770  0.00  0.00    +0.000 HD
ENDBRANCH  18  31
BRANCH   3  33
ATOM     33  O   UNL     1      86.210  49.439  46.798  0.00  0.00    -0.391 OA
ATOM     34  H   UNL     1      87.026  49.695  47.256  0.00  0.00    +0.000 HD
ENDBRANCH   3  33
TORSDOF 6
ENDMDL
MODEL 9
REMARK VINA RESULT:    -7.157      2.203      8.173
REMARK INTER + INTRA:         -10.612
REMARK INTER:                  -9.249
REMARK INTRA:                  -1.364
REMARK UNBOUND:                -1.364
REMARK  Name = 
REMARK  14 active torsions:
REMARK  status: ('A' for Active; 'I' for Inactive)
REMARK    1  A    between atoms: C_1  and  C_2
REMARK    2  A    between atoms: C_2  and  C_32
REMARK    3  A    between atoms: C_3  and  C_4
REMARK    4  A    between atoms: C_4  and  C_5
REMARK    5  A    between atoms: C_5  and  C_6
REMARK    6  A    between atoms: C_6  and  C_7
REMARK    7  A    between atoms: C_6  and  C_31
REMARK    8  A    between atoms: C_9  and  O_30
REMARK    9  A    between atoms: C_10  and  C_29
REMARK   10  A    between atoms: C_11  and  C_12
REMARK   11  A    between atoms: C_20  and  C_21
REMARK   12  A    between atoms: C_24  and  O_28
REMARK   13  A    between atoms: C_25  and  C_26
REMARK   14  A    between atoms: C_25  and  C_27
REMARK                            x       y       z     vdW  Elec       q    Type
REMARK                         _______ _______ _______ _____ _____    ______ ____
ROOT
ATOM      1  C   UNL     1      86.182  52.963  43.883  0.00  0.00    -0.030 C 
ATOM      2  C   UNL     1      84.681  52.663  44.172  0.00  0.00    -0.022 C 
ATOM      3  C   UNL     1      84.485  51.129  44.082  0.00  0.00    +0.065 C 
ATOM      4  C   UNL     1      85.920  50.552  44.089  0.00  0.00    +0.025 C 
ATOM      5  C   UNL     1      86.692  51.628  43.254  0.00  0.00    -0.014 C 
ATOM      6  C   UNL     1      86.306  51.589  41.729  0.00  0.00    -0.058 C 
ATOM      7  C   UNL     1      88.207  51.326  43.370  0.00  0.00    -0.028 C 
ATOM      8  C   UNL     1      88.504  49.878  43.013  0.00  0.00    -0.079 C 
ATOM      9  C   UNL     1      87.584  48.872  43.058  0.00  0.00    -0.042 C 
ATOM     10  C   UNL     1      86.162  49.195  43.447  0.00  0.00    -0.039 C 
ATOM     11  C   UNL     1      85.193  48.266  43.383  0.00  0.00    -0.080 C 
ATOM     12  C   UNL     1      85.441  46.880  42.871  0.00  0.00    -0.030 C 
ATOM     13  C   UNL     1      86.895  46.447  43.174  0.00  0.00    -0.021 C 
ATOM     14  C   UNL     1      87.923  47.459  42.534  0.00  0.00    -0.003 C 
ATOM     15  C   UNL     1      87.843  47.555  40.988  0.00  0.00    -0.055 C 
ATOM     16  C   UNL     1      89.361  47.033  42.960  0.00  0.00    -0.041 C 
ATOM     17  C   UNL     1      89.671  45.561  42.670  0.00  0.00    -0.026 C 
ATOM     18  C   UNL     1      88.675  44.625  43.375  0.00  0.00    +0.061 C 
ATOM     19  C   UNL     1      87.186  44.901  42.988  0.00  0.00    -0.005 C 
ATOM     20  C   UNL     1      86.865  44.376  41.562  0.00  0.00    -0.057 C 
ATOM     21  C   UNL     1      86.302  44.091  43.977  0.00  0.00    -0.057 C 
ATOM     22  C   UNL     1      86.412  50.410  45.570  0.00  0.00    -0.053 C 
ENDROOT
BRANCH   1  23
ATOM     23  C   UNL     1      86.379  54.300  43.084  0.00  0.00    -0.040 C 
ATOM     24  C   UNL     1      87.604  55.091  43.588  0.00  0.00    -0.062 C 
BRANCH  23  25
ATOM     25  C   UNL     1      85.111  55.198  43.188  0.00  0.00    -0.047 C 
BRANCH  25  26
ATOM     26  C   UNL     1      85.262  56.333  44.217  0.00  0.00    -0.034 C 
BRANCH  26  29
ATOM     27  C   UNL     1      86.341  55.359  46.845  0.00  0.00    -0.044 C 
ATOM     28  C   UNL     1      84.877  55.662  46.626  0.00  0.00    -0.080 C 
ATOM     29  C   UNL     1      84.402  56.075  45.429  0.00  0.00    -0.085 C 
ATOM     30  C   UNL     1      83.904  55.486  47.763  0.00  0.00    -0.044 C 
ENDBRANCH  26  29
ENDBRANCH  25  26
ENDBRANCH  23  25
ENDBRANCH   1  23
BRANCH  18  31
ATOM     31  O   UNL     1      89.030  43.276  43.175  0.00  0.00    -0.391 OA
ATOM     32  H   UNL     1      89.956  43.224  42.890  0.00  0.00    +0.000 HD
ENDBRANCH  18  31
BRANCH   3  33
ATOM     33  O   UNL     1      83.650  50.613  45.095  0.00  0.00    -0.391 OA
ATOM     34  H   UNL     1      83.648  49.644  45.050  0.00  0.00    +0.000 HD
ENDBRANCH   3  33
TORSDOF 6
ENDMDL
