MODEL 1
REMARK VINA RESULT:    -9.078      0.000      0.000
REMARK INTER + INTRA:         -12.932
REMARK INTER:                 -12.093
REMARK INTRA:                  -0.839
REMARK UNBOUND:                -1.200
REMARK  Name = 
REMARK  14 active torsions:
REMARK  status: ('A' for Active; 'I' for Inactive)
REMARK    1  A    between atoms: C_1  and  C_2
REMARK    2  A    between atoms: C_2  and  C_32
REMARK    3  A    between atoms: C_3  and  C_4
REMARK    4  A    between atoms: C_4  and  C_5
REMARK    5  A    between atoms: C_5  and  C_6
REMARK    6  A    between atoms: C_6  and  C_7
REMARK    7  A    between atoms: C_6  and  C_31
REMARK    8  A    between atoms: C_9  and  O_30
REMARK    9  A    between atoms: C_10  and  C_29
REMARK   10  A    between atoms: C_11  and  C_12
REMARK   11  A    between atoms: C_20  and  C_21
REMARK   12  A    between atoms: C_24  and  O_28
REMARK   13  A    between atoms: C_25  and  C_26
REMARK   14  A    between atoms: C_25  and  C_27
REMARK                            x       y       z     vdW  Elec       q    Type
REMARK                         _______ _______ _______ _____ _____    ______ ____
ROOT
ATOM      1  C   UNL     1      89.770  49.220  42.557  0.00  0.00    -0.030 C 
ATOM      2  C   UNL     1      89.711  49.261  41.000  0.00  0.00    -0.022 C 
ATOM      3  C   UNL     1      88.674  50.341  40.600  0.00  0.00    +0.065 C 
ATOM      4  C   UNL     1      88.416  51.135  41.902  0.00  0.00    +0.025 C 
ATOM      5  C   UNL     1      88.483  49.998  42.977  0.00  0.00    -0.014 C 
ATOM      6  C   UNL     1      87.242  49.033  42.903  0.00  0.00    -0.058 C 
ATOM      7  C   UNL     1      88.486  50.664  44.376  0.00  0.00    -0.028 C 
ATOM      8  C   UNL     1      87.327  51.639  44.519  0.00  0.00    -0.079 C 
ATOM      9  C   UNL     1      86.677  52.218  43.469  0.00  0.00    -0.042 C 
ATOM     10  C   UNL     1      87.089  51.858  42.063  0.00  0.00    -0.039 C 
ATOM     11  C   UNL     1      86.398  52.301  40.999  0.00  0.00    -0.080 C 
ATOM     12  C   UNL     1      85.153  53.125  41.135  0.00  0.00    -0.030 C 
ATOM     13  C   UNL     1      85.217  53.987  42.417  0.00  0.00    -0.021 C 
ATOM     14  C   UNL     1      85.414  53.077  43.692  0.00  0.00    -0.003 C 
ATOM     15  C   UNL     1      84.259  52.069  43.938  0.00  0.00    -0.055 C 
ATOM     16  C   UNL     1      85.576  54.003  44.935  0.00  0.00    -0.041 C 
ATOM     17  C   UNL     1      84.456  55.038  45.075  0.00  0.00    -0.026 C 
ATOM     18  C   UNL     1      84.360  55.937  43.830  0.00  0.00    +0.061 C 
ATOM     19  C   UNL     1      84.131  55.137  42.506  0.00  0.00    -0.005 C 
ATOM     20  C   UNL     1      82.669  54.620  42.402  0.00  0.00    -0.057 C 
ATOM     21  C   UNL     1      84.342  56.132  41.331  0.00  0.00    -0.057 C 
ATOM     22  C   UNL     1      89.517  52.238  42.061  0.00  0.00    -0.053 C 
ENDROOT
BRANCH   1  23
ATOM     23  C   UNL     1      89.989  47.766  43.107  0.00  0.00    -0.040 C 
ATOM     24  C   UNL     1      91.358  47.618  43.799  0.00  0.00    -0.062 C 
BRANCH  23  25
ATOM     25  C   UNL     1      89.879  46.719  41.959  0.00  0.00    -0.047 C 
BRANCH  25  26
ATOM     26  C   UNL     1      88.623  45.837  42.068  0.00  0.00    -0.034 C 
BRANCH  26  29
ATOM     27  C   UNL     1      86.640  43.635  42.558  0.00  0.00    -0.044 C 
ATOM     28  C   UNL     1      87.950  43.734  43.304  0.00  0.00    -0.080 C 
ATOM     29  C   UNL     1      88.821  44.746  43.090  0.00  0.00    -0.085 C 
ATOM     30  C   UNL     1      88.301  42.689  44.331  0.00  0.00    -0.044 C 
ENDBRANCH  26  29
ENDBRANCH  25  26
ENDBRANCH  23  25
ENDBRANCH   1  23
BRANCH  18  31
ATOM     31  O   UNL     1      83.389  56.942  44.012  0.00  0.00    -0.391 OA
ATOM     32  H   UNL     1      82.504  56.545  43.990  0.00  0.00    +0.000 HD
ENDBRANCH  18  31
BRANCH   3  33
ATOM     33  O   UNL     1      89.091  51.136  39.512  0.00  0.00    -0.391 OA
ATOM     34  H   UNL     1      89.622  50.599  38.904  0.00  0.00    +0.000 HD
ENDBRANCH   3  33
TORSDOF 6
ENDMDL
MODEL 2
REMARK VINA RESULT:    -8.496      1.527      2.014
REMARK INTER + INTRA:         -12.180
REMARK INTER:                 -11.532
REMARK INTRA:                  -0.647
REMARK UNBOUND:                -1.200
REMARK  Name = 
REMARK  14 active torsions:
REMARK  status: ('A' for Active; 'I' for Inactive)
REMARK    1  A    between atoms: C_1  and  C_2
REMARK    2  A    between atoms: C_2  and  C_32
REMARK    3  A    between atoms: C_3  and  C_4
REMARK    4  A    between atoms: C_4  and  C_5
REMARK    5  A    between atoms: C_5  and  C_6
REMARK    6  A    between atoms: C_6  and  C_7
REMARK    7  A    between atoms: C_6  and  C_31
REMARK    8  A    between atoms: C_9  and  O_30
REMARK    9  A    between atoms: C_10  and  C_29
REMARK   10  A    between atoms: C_11  and  C_12
REMARK   11  A    between atoms: C_20  and  C_21
REMARK   12  A    between atoms: C_24  and  O_28
REMARK   13  A    between atoms: C_25  and  C_26
REMARK   14  A    between atoms: C_25  and  C_27
REMARK                            x       y       z     vdW  Elec       q    Type
REMARK                         _______ _______ _______ _____ _____    ______ ____
ROOT
ATOM      1  C   UNL     1      88.559  48.665  42.774  0.00  0.00    -0.030 C 
ATOM      2  C   UNL     1      88.164  48.985  41.302  0.00  0.00    -0.022 C 
ATOM      3  C   UNL     1      87.462  50.367  41.296  0.00  0.00    +0.065 C 
ATOM      4  C   UNL     1      87.774  50.967  42.688  0.00  0.00    +0.025 C 
ATOM      5  C   UNL     1      87.718  49.692  43.595  0.00  0.00    -0.014 C 
ATOM      6  C   UNL     1      86.252  49.147  43.768  0.00  0.00    -0.058 C 
ATOM      7  C   UNL     1      88.250  50.081  44.997  0.00  0.00    -0.028 C 
ATOM      8  C   UNL     1      87.527  51.305  45.536  0.00  0.00    -0.079 C 
ATOM      9  C   UNL     1      86.874  52.216  44.758  0.00  0.00    -0.042 C 
ATOM     10  C   UNL     1      86.818  51.999  43.266  0.00  0.00    -0.039 C 
ATOM     11  C   UNL     1      86.081  52.794  42.472  0.00  0.00    -0.080 C 
ATOM     12  C   UNL     1      85.229  53.902  43.013  0.00  0.00    -0.030 C 
ATOM     13  C   UNL     1      85.854  54.479  44.306  0.00  0.00    -0.021 C 
ATOM     14  C   UNL     1      86.035  53.347  45.390  0.00  0.00    -0.003 C 
ATOM     15  C   UNL     1      84.708  52.682  45.843  0.00  0.00    -0.055 C 
ATOM     16  C   UNL     1      86.761  53.962  46.625  0.00  0.00    -0.041 C 
ATOM     17  C   UNL     1      86.092  55.233  47.155  0.00  0.00    -0.026 C 
ATOM     18  C   UNL     1      86.006  56.321  46.071  0.00  0.00    +0.061 C 
ATOM     19  C   UNL     1      85.240  55.857  44.789  0.00  0.00    -0.005 C 
ATOM     20  C   UNL     1      83.707  55.802  45.034  0.00  0.00    -0.057 C 
ATOM     21  C   UNL     1      85.484  56.937  43.698  0.00  0.00    -0.057 C 
ATOM     22  C   UNL     1      89.174  51.669  42.646  0.00  0.00    -0.053 C 
ENDROOT
BRANCH   1  23
ATOM     23  C   UNL     1      88.423  47.136  43.108  0.00  0.00    -0.040 C 
ATOM     24  C   UNL     1      89.685  46.349  42.702  0.00  0.00    -0.062 C 
BRANCH  23  25
ATOM     25  C   UNL     1      87.184  46.523  42.392  0.00  0.00    -0.047 C 
BRANCH  25  26
ATOM     26  C   UNL     1      86.457  45.469  43.246  0.00  0.00    -0.034 C 
BRANCH  26  29
ATOM     27  C   UNL     1      88.195  43.419  44.587  0.00  0.00    -0.044 C 
ATOM     28  C   UNL     1      87.447  43.141  43.304  0.00  0.00    -0.080 C 
ATOM     29  C   UNL     1      86.688  44.083  42.699  0.00  0.00    -0.085 C 
ATOM     30  C   UNL     1      87.554  41.783  42.661  0.00  0.00    -0.044 C 
ENDBRANCH  26  29
ENDBRANCH  25  26
ENDBRANCH  23  25
ENDBRANCH   1  23
BRANCH  18  31
ATOM     31  O   UNL     1      85.474  57.514  46.599  0.00  0.00    -0.391 OA
ATOM     32  H   UNL     1      84.505  57.472  46.580  0.00  0.00    +0.000 HD
ENDBRANCH  18  31
BRANCH   3  33
ATOM     33  O   UNL     1      87.851  51.185  40.215  0.00  0.00    -0.391 OA
ATOM     34  H   UNL     1      88.602  51.738  40.482  0.00  0.00    +0.000 HD
ENDBRANCH   3  33
TORSDOF 6
ENDMDL
MODEL 3
REMARK VINA RESULT:    -8.288      2.526      5.179
REMARK INTER + INTRA:         -11.910
REMARK INTER:                 -11.653
REMARK INTRA:                  -0.257
REMARK UNBOUND:                -1.200
REMARK  Name = 
REMARK  14 active torsions:
REMARK  status: ('A' for Active; 'I' for Inactive)
REMARK    1  A    between atoms: C_1  and  C_2
REMARK    2  A    between atoms: C_2  and  C_32
REMARK    3  A    between atoms: C_3  and  C_4
REMARK    4  A    between atoms: C_4  and  C_5
REMARK    5  A    between atoms: C_5  and  C_6
REMARK    6  A    between atoms: C_6  and  C_7
REMARK    7  A    between atoms: C_6  and  C_31
REMARK    8  A    between atoms: C_9  and  O_30
REMARK    9  A    between atoms: C_10  and  C_29
REMARK   10  A    between atoms: C_11  and  C_12
REMARK   11  A    between atoms: C_20  and  C_21
REMARK   12  A    between atoms: C_24  and  O_28
REMARK   13  A    between atoms: C_25  and  C_26
REMARK   14  A    between atoms: C_25  and  C_27
REMARK                            x       y       z     vdW  Elec       q    Type
REMARK                         _______ _______ _______ _____ _____    ______ ____
ROOT
ATOM      1  C   UNL     1      86.921  49.181  43.022  0.00  0.00    -0.030 C 
ATOM      2  C   UNL     1      87.132  48.480  44.397  0.00  0.00    -0.022 C 
ATOM      3  C   UNL     1      86.776  49.505  45.503  0.00  0.00    +0.065 C 
ATOM      4  C   UNL     1      86.043  50.645  44.757  0.00  0.00    +0.025 C 
ATOM      5  C   UNL     1      86.835  50.691  43.407  0.00  0.00    -0.014 C 
ATOM      6  C   UNL     1      88.288  51.269  43.587  0.00  0.00    -0.058 C 
ATOM      7  C   UNL     1      86.068  51.625  42.437  0.00  0.00    -0.028 C 
ATOM      8  C   UNL     1      85.788  52.973  43.083  0.00  0.00    -0.079 C 
ATOM      9  C   UNL     1      85.759  53.187  44.430  0.00  0.00    -0.042 C 
ATOM     10  C   UNL     1      86.060  52.039  45.362  0.00  0.00    -0.039 C 
ATOM     11  C   UNL     1      86.171  52.228  46.688  0.00  0.00    -0.080 C 
ATOM     12  C   UNL     1      86.063  53.583  47.319  0.00  0.00    -0.030 C 
ATOM     13  C   UNL     1      85.115  54.485  46.495  0.00  0.00    -0.021 C 
ATOM     14  C   UNL     1      85.620  54.613  45.005  0.00  0.00    -0.003 C 
ATOM     15  C   UNL     1      87.022  55.263  44.863  0.00  0.00    -0.055 C 
ATOM     16  C   UNL     1      84.573  55.443  44.202  0.00  0.00    -0.041 C 
ATOM     17  C   UNL     1      84.222  56.781  44.859  0.00  0.00    -0.026 C 
ATOM     18  C   UNL     1      83.673  56.585  46.282  0.00  0.00    +0.061 C 
ATOM     19  C   UNL     1      84.656  55.816  47.223  0.00  0.00    -0.005 C 
ATOM     20  C   UNL     1      85.839  56.720  47.668  0.00  0.00    -0.057 C 
ATOM     21  C   UNL     1      83.861  55.448  48.508  0.00  0.00    -0.057 C 
ATOM     22  C   UNL     1      84.529  50.271  44.605  0.00  0.00    -0.053 C 
ENDROOT
BRANCH   1  23
ATOM     23  C   UNL     1      87.982  48.731  41.955  0.00  0.00    -0.040 C 
ATOM     24  C   UNL     1      87.936  47.210  41.710  0.00  0.00    -0.062 C 
BRANCH  23  25
ATOM     25  C   UNL     1      89.419  49.135  42.401  0.00  0.00    -0.047 C 
BRANCH  25  26
ATOM     26  C   UNL     1      90.177  49.939  41.330  0.00  0.00    -0.034 C 
BRANCH  26  29
ATOM     27  C   UNL     1      90.236  52.924  41.001  0.00  0.00    -0.044 C 
ATOM     28  C   UNL     1      89.246  52.042  40.274  0.00  0.00    -0.080 C 
ATOM     29  C   UNL     1      89.216  50.702  40.453  0.00  0.00    -0.085 C 
ATOM     30  C   UNL     1      88.249  52.665  39.333  0.00  0.00    -0.044 C 
ENDBRANCH  26  29
ENDBRANCH  25  26
ENDBRANCH  23  25
ENDBRANCH   1  23
BRANCH  18  31
ATOM     31  O   UNL     1      83.267  57.816  46.836  0.00  0.00    -0.391 OA
ATOM     32  H   UNL     1      83.714  57.950  47.687  0.00  0.00    +0.000 HD
ENDBRANCH  18  31
BRANCH   3  33
ATOM     33  O   UNL     1      86.039  48.943  46.567  0.00  0.00    -0.391 OA
ATOM     34  H   UNL     1      86.267  49.397  47.393  0.00  0.00    +0.000 HD
ENDBRANCH   3  33
TORSDOF 6
ENDMDL
MODEL 4
REMARK VINA RESULT:    -8.232      2.291      3.789
REMARK INTER + INTRA:         -11.838
REMARK INTER:                 -11.232
REMARK INTRA:                  -0.605
REMARK UNBOUND:                -1.200
REMARK  Name = 
REMARK  14 active torsions:
REMARK  status: ('A' for Active; 'I' for Inactive)
REMARK    1  A    between atoms: C_1  and  C_2
REMARK    2  A    between atoms: C_2  and  C_32
REMARK    3  A    between atoms: C_3  and  C_4
REMARK    4  A    between atoms: C_4  and  C_5
REMARK    5  A    between atoms: C_5  and  C_6
REMARK    6  A    between atoms: C_6  and  C_7
REMARK    7  A    between atoms: C_6  and  C_31
REMARK    8  A    between atoms: C_9  and  O_30
REMARK    9  A    between atoms: C_10  and  C_29
REMARK   10  A    between atoms: C_11  and  C_12
REMARK   11  A    between atoms: C_20  and  C_21
REMARK   12  A    between atoms: C_24  and  O_28
REMARK   13  A    between atoms: C_25  and  C_26
REMARK   14  A    between atoms: C_25  and  C_27
REMARK                            x       y       z     vdW  Elec       q    Type
REMARK                         _______ _______ _______ _____ _____    ______ ____
ROOT
ATOM      1  C   UNL     1      86.394  49.471  42.916  0.00  0.00    -0.030 C 
ATOM      2  C   UNL     1      85.352  48.824  43.876  0.00  0.00    -0.022 C 
ATOM      3  C   UNL     1      84.717  49.963  44.713  0.00  0.00    +0.065 C 
ATOM      4  C   UNL     1      85.143  51.262  43.989  0.00  0.00    +0.025 C 
ATOM      5  C   UNL     1      86.592  50.896  43.522  0.00  0.00    -0.014 C 
ATOM      6  C   UNL     1      87.604  50.817  44.724  0.00  0.00    -0.058 C 
ATOM      7  C   UNL     1      87.079  52.010  42.561  0.00  0.00    -0.028 C 
ATOM      8  C   UNL     1      86.917  53.384  43.192  0.00  0.00    -0.079 C 
ATOM      9  C   UNL     1      86.052  53.665  44.209  0.00  0.00    -0.042 C 
ATOM     10  C   UNL     1      85.218  52.551  44.791  0.00  0.00    -0.039 C 
ATOM     11  C   UNL     1      84.449  52.749  45.875  0.00  0.00    -0.080 C 
ATOM     12  C   UNL     1      84.411  54.056  46.606  0.00  0.00    -0.030 C 
ATOM     13  C   UNL     1      84.670  55.227  45.629  0.00  0.00    -0.021 C 
ATOM     14  C   UNL     1      86.057  55.047  44.898  0.00  0.00    -0.003 C 
ATOM     15  C   UNL     1      87.281  55.037  45.851  0.00  0.00    -0.055 C 
ATOM     16  C   UNL     1      86.214  56.194  43.854  0.00  0.00    -0.041 C 
ATOM     17  C   UNL     1      85.996  57.590  44.445  0.00  0.00    -0.026 C 
ATOM     18  C   UNL     1      84.602  57.723  45.082  0.00  0.00    +0.061 C 
ATOM     19  C   UNL     1      84.331  56.665  46.201  0.00  0.00    -0.005 C 
ATOM     20  C   UNL     1      85.100  57.011  47.506  0.00  0.00    -0.057 C 
ATOM     21  C   UNL     1      82.815  56.737  46.537  0.00  0.00    -0.057 C 
ATOM     22  C   UNL     1      84.142  51.552  42.819  0.00  0.00    -0.053 C 
ENDROOT
BRANCH   1  23
ATOM     23  C   UNL     1      87.654  48.558  42.703  0.00  0.00    -0.040 C 
ATOM     24  C   UNL     1      88.390  48.898  41.391  0.00  0.00    -0.062 C 
BRANCH  23  25
ATOM     25  C   UNL     1      87.250  47.054  42.688  0.00  0.00    -0.047 C 
BRANCH  25  26
ATOM     26  C   UNL     1      88.326  46.149  42.060  0.00  0.00    -0.034 C 
BRANCH  26  29
ATOM     27  C   UNL     1      86.814  43.588  42.487  0.00  0.00    -0.044 C 
ATOM     28  C   UNL     1      88.100  43.908  43.214  0.00  0.00    -0.080 C 
ATOM     29  C   UNL     1      88.755  45.076  43.029  0.00  0.00    -0.085 C 
ATOM     30  C   UNL     1      88.671  42.909  44.187  0.00  0.00    -0.044 C 
ENDBRANCH  26  29
ENDBRANCH  25  26
ENDBRANCH  23  25
ENDBRANCH   1  23
BRANCH  18  31
ATOM     31  O   UNL     1      84.383  59.038  45.537  0.00  0.00    -0.391 OA
ATOM     32  H   UNL     1      84.924  59.654  45.018  0.00  0.00    +0.000 HD
ENDBRANCH  18  31
BRANCH   3  33
ATOM     33  O   UNL     1      83.323  49.824  44.877  0.00  0.00    -0.391 OA
ATOM     34  H   UNL     1      83.069  50.129  45.762  0.00  0.00    +0.000 HD
ENDBRANCH   3  33
TORSDOF 6
ENDMDL
MODEL 5
REMARK VINA RESULT:    -8.099      2.616      8.184
REMARK INTER + INTRA:         -11.666
REMARK INTER:                 -10.446
REMARK INTRA:                  -1.220
REMARK UNBOUND:                -1.200
REMARK  Name = 
REMARK  14 active torsions:
REMARK  status: ('A' for Active; 'I' for Inactive)
REMARK    1  A    between atoms: C_1  and  C_2
REMARK    2  A    between atoms: C_2  and  C_32
REMARK    3  A    between atoms: C_3  and  C_4
REMARK    4  A    between atoms: C_4  and  C_5
REMARK    5  A    between atoms: C_5  and  C_6
REMARK    6  A    between atoms: C_6  and  C_7
REMARK    7  A    between atoms: C_6  and  C_31
REMARK    8  A    between atoms: C_9  and  O_30
REMARK    9  A    between atoms: C_10  and  C_29
REMARK   10  A    between atoms: C_11  and  C_12
REMARK   11  A    between atoms: C_20  and  C_21
REMARK   12  A    between atoms: C_24  and  O_28
REMARK   13  A    between atoms: C_25  and  C_26
REMARK   14  A    between atoms: C_25  and  C_27
REMARK                            x       y       z     vdW  Elec       q    Type
REMARK                         _______ _______ _______ _____ _____    ______ ____
ROOT
ATOM      1  C   UNL     1      85.394  54.357  43.645  0.00  0.00    -0.030 C 
ATOM      2  C   UNL     1      86.882  54.563  43.230  0.00  0.00    -0.022 C 
ATOM      3  C   UNL     1      87.502  53.161  43.002  0.00  0.00    +0.065 C 
ATOM      4  C   UNL     1      86.288  52.203  42.948  0.00  0.00    +0.025 C 
ATOM      5  C   UNL     1      85.340  52.842  44.018  0.00  0.00    -0.014 C 
ATOM      6  C   UNL     1      85.877  52.645  45.484  0.00  0.00    -0.058 C 
ATOM      7  C   UNL     1      83.963  52.138  43.915  0.00  0.00    -0.028 C 
ATOM      8  C   UNL     1      84.116  50.627  43.989  0.00  0.00    -0.079 C 
ATOM      9  C   UNL     1      85.268  49.957  43.699  0.00  0.00    -0.042 C 
ATOM     10  C   UNL     1      86.497  50.743  43.315  0.00  0.00    -0.039 C 
ATOM     11  C   UNL     1      87.686  50.140  43.146  0.00  0.00    -0.080 C 
ATOM     12  C   UNL     1      87.884  48.673  43.380  0.00  0.00    -0.030 C 
ATOM     13  C   UNL     1      86.582  47.898  43.067  0.00  0.00    -0.021 C 
ATOM     14  C   UNL     1      85.387  48.437  43.945  0.00  0.00    -0.003 C 
ATOM     15  C   UNL     1      85.597  48.274  45.474  0.00  0.00    -0.055 C 
ATOM     16  C   UNL     1      84.086  47.695  43.512  0.00  0.00    -0.041 C 
ATOM     17  C   UNL     1      84.225  46.169  43.515  0.00  0.00    -0.026 C 
ATOM     18  C   UNL     1      85.362  45.703  42.590  0.00  0.00    +0.061 C 
ATOM     19  C   UNL     1      86.749  46.326  42.953  0.00  0.00    -0.005 C 
ATOM     20  C   UNL     1      87.348  45.671  44.228  0.00  0.00    -0.057 C 
ATOM     21  C   UNL     1      87.716  45.998  41.780  0.00  0.00    -0.057 C 
ATOM     22  C   UNL     1      85.705  52.191  41.494  0.00  0.00    -0.053 C 
ENDROOT
BRANCH   1  23
ATOM     23  C   UNL     1      84.920  55.415  44.705  0.00  0.00    -0.040 C 
ATOM     24  C   UNL     1      83.995  56.476  44.076  0.00  0.00    -0.062 C 
BRANCH  23  25
ATOM     25  C   UNL     1      86.141  56.124  45.362  0.00  0.00    -0.047 C 
BRANCH  25  26
ATOM     26  C   UNL     1      85.915  56.454  46.848  0.00  0.00    -0.034 C 
BRANCH  26  29
ATOM     27  C   UNL     1      83.448  55.376  48.180  0.00  0.00    -0.044 C 
ATOM     28  C   UNL     1      84.790  54.684  48.264  0.00  0.00    -0.080 C 
ATOM     29  C   UNL     1      85.897  55.196  47.680  0.00  0.00    -0.085 C 
ATOM     30  C   UNL     1      84.913  53.394  49.032  0.00  0.00    -0.044 C 
ENDBRANCH  26  29
ENDBRANCH  25  26
ENDBRANCH  23  25
ENDBRANCH   1  23
BRANCH  18  31
ATOM     31  O   UNL     1      85.415  44.296  42.532  0.00  0.00    -0.391 OA
ATOM     32  H   UNL     1      84.535  43.948  42.318  0.00  0.00    +0.000 HD
ENDBRANCH  18  31
BRANCH   3  33
ATOM     33  O   UNL     1      88.337  53.099  41.867  0.00  0.00    -0.391 OA
ATOM     34  H   UNL     1      88.642  53.992  41.642  0.00  0.00    +0.000 HD
ENDBRANCH   3  33
TORSDOF 6
ENDMDL
MODEL 6
REMARK VINA RESULT:    -7.906      2.900      4.114
REMARK INTER + INTRA:         -11.417
REMARK INTER:                 -11.468
REMARK INTRA:                   0.051
REMARK UNBOUND:                -1.200
REMARK  Name = 
REMARK  14 active torsions:
REMARK  status: ('A' for Active; 'I' for Inactive)
REMARK    1  A    between atoms: C_1  and  C_2
REMARK    2  A    between atoms: C_2  and  C_32
REMARK    3  A    between atoms: C_3  and  C_4
REMARK    4  A    between atoms: C_4  and  C_5
REMARK    5  A    between atoms: C_5  and  C_6
REMARK    6  A    between atoms: C_6  and  C_7
REMARK    7  A    between atoms: C_6  and  C_31
REMARK    8  A    between atoms: C_9  and  O_30
REMARK    9  A    between atoms: C_10  and  C_29
REMARK   10  A    between atoms: C_11  and  C_12
REMARK   11  A    between atoms: C_20  and  C_21
REMARK   12  A    between atoms: C_24  and  O_28
REMARK   13  A    between atoms: C_25  and  C_26
REMARK   14  A    between atoms: C_25  and  C_27
REMARK                            x       y       z     vdW  Elec       q    Type
REMARK                         _______ _______ _______ _____ _____    ______ ____
ROOT
ATOM      1  C   UNL     1      86.825  47.581  43.647  0.00  0.00    -0.030 C 
ATOM      2  C   UNL     1      86.986  48.000  42.155  0.00  0.00    -0.022 C 
ATOM      3  C   UNL     1      86.867  49.544  42.088  0.00  0.00    +0.065 C 
ATOM      4  C   UNL     1      86.990  50.008  43.559  0.00  0.00    +0.025 C 
ATOM      5  C   UNL     1      86.230  48.863  44.310  0.00  0.00    -0.014 C 
ATOM      6  C   UNL     1      84.678  48.911  44.056  0.00  0.00    -0.058 C 
ATOM      7  C   UNL     1      86.470  49.049  45.829  0.00  0.00    -0.028 C 
ATOM      8  C   UNL     1      86.128  50.464  46.267  0.00  0.00    -0.079 C 
ATOM      9  C   UNL     1      86.089  51.539  45.428  0.00  0.00    -0.042 C 
ATOM     10  C   UNL     1      86.360  51.333  43.959  0.00  0.00    -0.039 C 
ATOM     11  C   UNL     1      86.207  52.333  43.074  0.00  0.00    -0.080 C 
ATOM     12  C   UNL     1      85.707  53.688  43.471  0.00  0.00    -0.030 C 
ATOM     13  C   UNL     1      86.127  54.011  44.924  0.00  0.00    -0.021 C 
ATOM     14  C   UNL     1      85.584  52.913  45.919  0.00  0.00    -0.003 C 
ATOM     15  C   UNL     1      84.036  52.803  45.960  0.00  0.00    -0.055 C 
ATOM     16  C   UNL     1      86.125  53.233  47.346  0.00  0.00    -0.041 C 
ATOM     17  C   UNL     1      85.850  54.672  47.794  0.00  0.00    -0.026 C 
ATOM     18  C   UNL     1      86.462  55.693  46.820  0.00  0.00    +0.061 C 
ATOM     19  C   UNL     1      85.955  55.528  45.350  0.00  0.00    -0.005 C 
ATOM     20  C   UNL     1      84.502  56.056  45.190  0.00  0.00    -0.057 C 
ATOM     21  C   UNL     1      86.860  56.417  44.453  0.00  0.00    -0.057 C 
ATOM     22  C   UNL     1      88.505  50.133  43.936  0.00  0.00    -0.053 C 
ENDROOT
BRANCH   1  23
ATOM     23  C   UNL     1      86.055  46.221  43.804  0.00  0.00    -0.040 C 
ATOM     24  C   UNL     1      86.987  45.011  43.595  0.00  0.00    -0.062 C 
BRANCH  23  25
ATOM     25  C   UNL     1      84.871  46.137  42.796  0.00  0.00    -0.047 C 
BRANCH  25  26
ATOM     26  C   UNL     1      83.521  45.851  43.477  0.00  0.00    -0.034 C 
BRANCH  26  29
ATOM     27  C   UNL     1      81.004  46.253  45.066  0.00  0.00    -0.044 C 
ATOM     28  C   UNL     1      81.425  47.186  43.953  0.00  0.00    -0.080 C 
ATOM     29  C   UNL     1      82.548  46.977  43.230  0.00  0.00    -0.085 C 
ATOM     30  C   UNL     1      80.567  48.378  43.620  0.00  0.00    -0.044 C 
ENDBRANCH  26  29
ENDBRANCH  25  26
ENDBRANCH  23  25
ENDBRANCH   1  23
BRANCH  18  31
ATOM     31  O   UNL     1      86.283  57.008  47.294  0.00  0.00    -0.391 OA
ATOM     32  H   UNL     1      87.147  57.442  47.377  0.00  0.00    +0.000 HD
ENDBRANCH  18  31
BRANCH   3  33
ATOM     33  O   UNL     1      87.803  50.137  41.215  0.00  0.00    -0.391 OA
ATOM     34  H   UNL     1      87.772  49.689  40.356  0.00  0.00    +0.000 HD
ENDBRANCH   3  33
TORSDOF 6
ENDMDL
MODEL 7
REMARK VINA RESULT:    -7.741      2.449      4.499
REMARK INTER + INTRA:         -11.204
REMARK INTER:                 -11.481
REMARK INTRA:                   0.277
REMARK UNBOUND:                -1.200
REMARK  Name = 
REMARK  14 active torsions:
REMARK  status: ('A' for Active; 'I' for Inactive)
REMARK    1  A    between atoms: C_1  and  C_2
REMARK    2  A    between atoms: C_2  and  C_32
REMARK    3  A    between atoms: C_3  and  C_4
REMARK    4  A    between atoms: C_4  and  C_5
REMARK    5  A    between atoms: C_5  and  C_6
REMARK    6  A    between atoms: C_6  and  C_7
REMARK    7  A    between atoms: C_6  and  C_31
REMARK    8  A    between atoms: C_9  and  O_30
REMARK    9  A    between atoms: C_10  and  C_29
REMARK   10  A    between atoms: C_11  and  C_12
REMARK   11  A    between atoms: C_20  and  C_21
REMARK   12  A    between atoms: C_24  and  O_28
REMARK   13  A    between atoms: C_25  and  C_26
REMARK   14  A    between atoms: C_25  and  C_27
REMARK                            x       y       z     vdW  Elec       q    Type
REMARK                         _______ _______ _______ _____ _____    ______ ____
ROOT
ATOM      1  C   UNL     1      86.498  49.105  42.821  0.00  0.00    -0.030 C 
ATOM      2  C   UNL     1      86.865  48.447  44.185  0.00  0.00    -0.022 C 
ATOM      3  C   UNL     1      86.659  49.514  45.289  0.00  0.00    +0.065 C 
ATOM      4  C   UNL     1      85.855  50.640  44.598  0.00  0.00    +0.025 C 
ATOM      5  C   UNL     1      86.478  50.629  43.161  0.00  0.00    -0.014 C 
ATOM      6  C   UNL     1      87.949  51.187  43.145  0.00  0.00    -0.058 C 
ATOM      7  C   UNL     1      85.611  51.543  42.259  0.00  0.00    -0.028 C 
ATOM      8  C   UNL     1      85.429  52.916  42.887  0.00  0.00    -0.079 C 
ATOM      9  C   UNL     1      85.566  53.175  44.219  0.00  0.00    -0.042 C 
ATOM     10  C   UNL     1      85.963  52.054  45.147  0.00  0.00    -0.039 C 
ATOM     11  C   UNL     1      86.236  52.284  46.443  0.00  0.00    -0.080 C 
ATOM     12  C   UNL     1      86.222  53.661  47.035  0.00  0.00    -0.030 C 
ATOM     13  C   UNL     1      85.193  54.551  46.300  0.00  0.00    -0.021 C 
ATOM     14  C   UNL     1      85.515  54.621  44.757  0.00  0.00    -0.003 C 
ATOM     15  C   UNL     1      86.898  55.242  44.424  0.00  0.00    -0.055 C 
ATOM     16  C   UNL     1      84.390  55.441  44.057  0.00  0.00    -0.041 C 
ATOM     17  C   UNL     1      84.137  56.807  44.705  0.00  0.00    -0.026 C 
ATOM     18  C   UNL     1      83.762  56.667  46.190  0.00  0.00    +0.061 C 
ATOM     19  C   UNL     1      84.842  55.912  47.032  0.00  0.00    -0.005 C 
ATOM     20  C   UNL     1      86.081  56.811  47.299  0.00  0.00    -0.057 C 
ATOM     21  C   UNL     1      84.204  55.601  48.415  0.00  0.00    -0.057 C 
ATOM     22  C   UNL     1      84.329  50.288  44.642  0.00  0.00    -0.053 C 
ENDROOT
BRANCH   1  23
ATOM     23  C   UNL     1      87.417  48.603  41.651  0.00  0.00    -0.040 C 
ATOM     24  C   UNL     1      87.940  47.176  41.908  0.00  0.00    -0.062 C 
BRANCH  23  25
ATOM     25  C   UNL     1      88.626  49.563  41.448  0.00  0.00    -0.047 C 
BRANCH  25  26
ATOM     26  C   UNL     1      89.966  48.820  41.307  0.00  0.00    -0.034 C 
BRANCH  26  29
ATOM     27  C   UNL     1      90.946  47.089  43.558  0.00  0.00    -0.044 C 
ATOM     28  C   UNL     1      91.420  48.510  43.355  0.00  0.00    -0.080 C 
ATOM     29  C   UNL     1      90.949  49.285  42.352  0.00  0.00    -0.085 C 
ATOM     30  C   UNL     1      92.433  49.098  44.302  0.00  0.00    -0.044 C 
ENDBRANCH  26  29
ENDBRANCH  25  26
ENDBRANCH  23  25
ENDBRANCH   1  23
BRANCH  18  31
ATOM     31  O   UNL     1      83.442  57.921  46.746  0.00  0.00    -0.391 OA
ATOM     32  H   UNL     1      83.422  57.850  47.713  0.00  0.00    +0.000 HD
ENDBRANCH  18  31
BRANCH   3  33
ATOM     33  O   UNL     1      86.048  49.000  46.453  0.00  0.00    -0.391 OA
ATOM     34  H   UNL     1      86.462  49.396  47.236  0.00  0.00    +0.000 HD
ENDBRANCH   3  33
TORSDOF 6
ENDMDL
MODEL 8
REMARK VINA RESULT:    -7.600      1.900      3.267
REMARK INTER + INTRA:         -11.022
REMARK INTER:                 -11.303
REMARK INTRA:                   0.281
REMARK UNBOUND:                -1.200
REMARK  Name = 
REMARK  14 active torsions:
REMARK  status: ('A' for Active; 'I' for Inactive)
REMARK    1  A    between atoms: C_1  and  C_2
REMARK    2  A    between atoms: C_2  and  C_32
REMARK    3  A    between atoms: C_3  and  C_4
REMARK    4  A    between atoms: C_4  and  C_5
REMARK    5  A    between atoms: C_5  and  C_6
REMARK    6  A    between atoms: C_6  and  C_7
REMARK    7  A    between atoms: C_6  and  C_31
REMARK    8  A    between atoms: C_9  and  O_30
REMARK    9  A    between atoms: C_10  and  C_29
REMARK   10  A    between atoms: C_11  and  C_12
REMARK   11  A    between atoms: C_20  and  C_21
REMARK   12  A    between atoms: C_24  and  O_28
REMARK   13  A    between atoms: C_25  and  C_26
REMARK   14  A    between atoms: C_25  and  C_27
REMARK                            x       y       z     vdW  Elec       q    Type
REMARK                         _______ _______ _______ _____ _____    ______ ____
ROOT
ATOM      1  C   UNL     1      87.053  47.838  43.119  0.00  0.00    -0.030 C 
ATOM      2  C   UNL     1      87.173  48.368  41.659  0.00  0.00    -0.022 C 
ATOM      3  C   UNL     1      86.985  49.906  41.703  0.00  0.00    +0.065 C 
ATOM      4  C   UNL     1      87.108  50.270  43.201  0.00  0.00    +0.025 C 
ATOM      5  C   UNL     1      86.411  49.042  43.878  0.00  0.00    -0.014 C 
ATOM      6  C   UNL     1      84.855  49.037  43.645  0.00  0.00    -0.058 C 
ATOM      7  C   UNL     1      86.665  49.131  45.404  0.00  0.00    -0.028 C 
ATOM      8  C   UNL     1      86.266  50.495  45.945  0.00  0.00    -0.079 C 
ATOM      9  C   UNL     1      86.167  51.623  45.185  0.00  0.00    -0.042 C 
ATOM     10  C   UNL     1      86.426  51.533  43.702  0.00  0.00    -0.039 C 
ATOM     11  C   UNL     1      86.216  52.585  42.892  0.00  0.00    -0.080 C 
ATOM     12  C   UNL     1      85.662  53.885  43.390  0.00  0.00    -0.030 C 
ATOM     13  C   UNL     1      86.088  54.124  44.858  0.00  0.00    -0.021 C 
ATOM     14  C   UNL     1      85.608  52.935  45.778  0.00  0.00    -0.003 C 
ATOM     15  C   UNL     1      84.068  52.751  45.828  0.00  0.00    -0.055 C 
ATOM     16  C   UNL     1      86.155  53.177  47.218  0.00  0.00    -0.041 C 
ATOM     17  C   UNL     1      85.823  54.567  47.770  0.00  0.00    -0.026 C 
ATOM     18  C   UNL     1      86.375  55.681  46.864  0.00  0.00    +0.061 C 
ATOM     19  C   UNL     1      85.854  55.597  45.393  0.00  0.00    -0.005 C 
ATOM     20  C   UNL     1      84.377  56.068  45.287  0.00  0.00    -0.057 C 
ATOM     21  C   UNL     1      86.706  56.588  44.551  0.00  0.00    -0.057 C 
ATOM     22  C   UNL     1      88.622  50.437  43.569  0.00  0.00    -0.053 C 
ENDROOT
BRANCH   1  23
ATOM     23  C   UNL     1      86.347  46.437  43.187  0.00  0.00    -0.040 C 
ATOM     24  C   UNL     1      86.072  46.007  44.642  0.00  0.00    -0.062 C 
BRANCH  23  25
ATOM     25  C   UNL     1      87.212  45.348  42.486  0.00  0.00    -0.047 C 
BRANCH  25  26
ATOM     26  C   UNL     1      88.713  45.479  42.800  0.00  0.00    -0.034 C 
BRANCH  26  29
ATOM     27  C   UNL     1      90.858  47.361  43.737  0.00  0.00    -0.044 C 
ATOM     28  C   UNL     1      90.341  47.355  42.317  0.00  0.00    -0.080 C 
ATOM     29  C   UNL     1      89.357  46.518  41.917  0.00  0.00    -0.085 C 
ATOM     30  C   UNL     1      90.920  48.316  41.312  0.00  0.00    -0.044 C 
ENDBRANCH  26  29
ENDBRANCH  25  26
ENDBRANCH  23  25
ENDBRANCH   1  23
BRANCH  18  31
ATOM     31  O   UNL     1      86.144  56.949  47.433  0.00  0.00    -0.391 OA
ATOM     32  H   UNL     1      86.990  57.411  47.548  0.00  0.00    +0.000 HD
ENDBRANCH  18  31
BRANCH   3  33
ATOM     33  O   UNL     1      87.881  50.601  40.864  0.00  0.00    -0.391 OA
ATOM     34  H   UNL     1      88.063  51.476  41.241  0.00  0.00    +0.000 HD
ENDBRANCH   3  33
TORSDOF 6
ENDMDL
MODEL 9
REMARK VINA RESULT:    -7.452      2.444      8.529
REMARK INTER + INTRA:         -10.831
REMARK INTER:                  -9.630
REMARK INTRA:                  -1.200
REMARK UNBOUND:                -1.200
REMARK  Name = 
REMARK  14 active torsions:
REMARK  status: ('A' for Active; 'I' for Inactive)
REMARK    1  A    between atoms: C_1  and  C_2
REMARK    2  A    between atoms: C_2  and  C_32
REMARK    3  A    between atoms: C_3  and  C_4
REMARK    4  A    between atoms: C_4  and  C_5
REMARK    5  A    between atoms: C_5  and  C_6
REMARK    6  A    between atoms: C_6  and  C_7
REMARK    7  A    between atoms: C_6  and  C_31
REMARK    8  A    between atoms: C_9  and  O_30
REMARK    9  A    between atoms: C_10  and  C_29
REMARK   10  A    between atoms: C_11  and  C_12
REMARK   11  A    between atoms: C_20  and  C_21
REMARK   12  A    between atoms: C_24  and  O_28
REMARK   13  A    between atoms: C_25  and  C_26
REMARK   14  A    between atoms: C_25  and  C_27
REMARK                            x       y       z     vdW  Elec       q    Type
REMARK                         _______ _______ _______ _____ _____    ______ ____
ROOT
ATOM      1  C   UNL     1      86.022  53.050  44.162  0.00  0.00    -0.030 C 
ATOM      2  C   UNL     1      84.531  52.727  44.474  0.00  0.00    -0.022 C 
ATOM      3  C   UNL     1      84.360  51.189  44.399  0.00  0.00    +0.065 C 
ATOM      4  C   UNL     1      85.805  50.637  44.392  0.00  0.00    +0.025 C 
ATOM      5  C   UNL     1      86.546  51.719  43.537  0.00  0.00    -0.014 C 
ATOM      6  C   UNL     1      86.141  51.659  42.018  0.00  0.00    -0.058 C 
ATOM      7  C   UNL     1      88.068  51.443  43.635  0.00  0.00    -0.028 C 
ATOM      8  C   UNL     1      88.385  49.998  43.286  0.00  0.00    -0.079 C 
ATOM      9  C   UNL     1      87.483  48.976  43.353  0.00  0.00    -0.042 C 
ATOM     10  C   UNL     1      86.062  49.279  43.759  0.00  0.00    -0.039 C 
ATOM     11  C   UNL     1      85.108  48.333  43.716  0.00  0.00    -0.080 C 
ATOM     12  C   UNL     1      85.373  46.946  43.213  0.00  0.00    -0.030 C 
ATOM     13  C   UNL     1      86.838  46.542  43.500  0.00  0.00    -0.021 C 
ATOM     14  C   UNL     1      87.840  47.566  42.837  0.00  0.00    -0.003 C 
ATOM     15  C   UNL     1      87.737  47.646  41.291  0.00  0.00    -0.055 C 
ATOM     16  C   UNL     1      89.290  47.168  43.246  0.00  0.00    -0.041 C 
ATOM     17  C   UNL     1      89.622  45.699  42.965  0.00  0.00    -0.026 C 
ATOM     18  C   UNL     1      88.652  44.752  43.692  0.00  0.00    +0.061 C 
ATOM     19  C   UNL     1      87.153  44.999  43.323  0.00  0.00    -0.005 C 
ATOM     20  C   UNL     1      86.821  44.455  41.906  0.00  0.00    -0.057 C 
ATOM     21  C   UNL     1      86.296  44.183  44.331  0.00  0.00    -0.057 C 
ATOM     22  C   UNL     1      86.319  50.517  45.867  0.00  0.00    -0.053 C 
ENDROOT
BRANCH   1  23
ATOM     23  C   UNL     1      86.186  54.384  43.348  0.00  0.00    -0.040 C 
ATOM     24  C   UNL     1      86.982  55.441  44.139  0.00  0.00    -0.062 C 
BRANCH  23  25
ATOM     25  C   UNL     1      84.795  54.970  42.965  0.00  0.00    -0.047 C 
BRANCH  25  26
ATOM     26  C   UNL     1      84.466  54.810  41.470  0.00  0.00    -0.034 C 
BRANCH  26  29
ATOM     27  C   UNL     1      82.401  52.632  41.595  0.00  0.00    -0.044 C 
ATOM     28  C   UNL     1      82.051  54.072  41.295  0.00  0.00    -0.080 C 
ATOM     29  C   UNL     1      82.996  55.036  41.217  0.00  0.00    -0.085 C 
ATOM     30  C   UNL     1      80.614  54.453  41.058  0.00  0.00    -0.044 C 
ENDBRANCH  26  29
ENDBRANCH  25  26
ENDBRANCH  23  25
ENDBRANCH   1  23
BRANCH  18  31
ATOM     31  O   UNL     1      89.027  43.407  43.499  0.00  0.00    -0.391 OA
ATOM     32  H   UNL     1      88.355  42.958  42.963  0.00  0.00    +0.000 HD
ENDBRANCH  18  31
BRANCH   3  33
ATOM     33  O   UNL     1      83.548  50.668  45.429  0.00  0.00    -0.391 OA
ATOM     34  H   UNL     1      82.882  50.076  45.046  0.00  0.00    +0.000 HD
ENDBRANCH   3  33
TORSDOF 6
ENDMDL
