MODEL 1
REMARK VINA RESULT:    -8.434      0.000      0.000
REMARK INTER + INTRA:          -9.256
REMARK INTER:                  -9.173
REMARK INTRA:                  -0.083
REMARK UNBOUND:                -0.082
REMARK  Name = 
REMARK  3 active torsions:
REMARK  status: ('A' for Active; 'I' for Inactive)
REMARK    1  A    between atoms: C_1  and  O_2
REMARK    2  A    between atoms: O_2  and  C_3
REMARK    3  A    between atoms: C_19  and  O_20
REMARK                            x       y       z     vdW  Elec       q    Type
REMARK                         _______ _______ _______ _____ _____    ______ ____
ROOT
ATOM      1  C   UNL     1      86.807  53.118  43.574  0.00  0.00    +0.163 A 
ATOM      2  C   UNL     1      87.496  51.934  43.907  0.00  0.00    -0.016 A 
ATOM      3  C   UNL     1      87.448  51.425  45.209  0.00  0.00    -0.050 A 
ATOM      4  C   UNL     1      86.707  52.086  46.198  0.00  0.00    -0.014 A 
ATOM      5  C   UNL     1      86.009  53.266  45.866  0.00  0.00    +0.037 A 
ATOM      6  C   UNL     1      86.065  53.782  44.562  0.00  0.00    +0.182 A 
ATOM      7  O   UNL     1      85.425  54.907  44.268  0.00  0.00    -0.418 OA
ATOM      8  C   UNL     1      84.697  55.591  45.149  0.00  0.00    +0.349 A 
ATOM      9  O   UNL     1      84.182  56.672  44.767  0.00  0.00    -0.244 OA
ATOM     10  C   UNL     1      84.542  55.121  46.481  0.00  0.00    +0.109 A 
ATOM     11  C   UNL     1      85.251  53.945  46.836  0.00  0.00    +0.011 A 
ATOM     12  C   UNL     1      85.211  53.445  48.157  0.00  0.00    -0.016 A 
ATOM     13  C   UNL     1      85.914  52.273  48.484  0.00  0.00    -0.053 A 
ATOM     14  C   UNL     1      86.653  51.595  47.510  0.00  0.00    -0.053 A 
ATOM     15  C   UNL     1      84.477  54.125  49.130  0.00  0.00    -0.051 A 
ATOM     16  C   UNL     1      83.761  55.272  48.792  0.00  0.00    -0.019 A 
ATOM     17  C   UNL     1      83.754  55.765  47.482  0.00  0.00    +0.131 A 
ENDROOT
BRANCH   1  19
ATOM     18  C   UNL     1      86.206  53.080  41.145  0.00  0.00    +0.079 C 
ATOM     19  O   UNL     1      86.838  53.663  42.280  0.00  0.00    -0.491 OA
ENDBRANCH   1  19
BRANCH  17  20
ATOM     20  O   UNL     1      82.929  56.868  47.238  0.00  0.00    -0.506 OA
ATOM     21  H   UNL     1      82.186  57.027  47.785  0.00  0.00    +0.000 HD
ENDBRANCH  17  20
TORSDOF 2
ENDMDL
MODEL 2
REMARK VINA RESULT:    -8.399      2.312      3.112
REMARK INTER + INTRA:          -9.218
REMARK INTER:                  -9.150
REMARK INTRA:                  -0.068
REMARK UNBOUND:                -0.082
REMARK  Name = 
REMARK  3 active torsions:
REMARK  status: ('A' for Active; 'I' for Inactive)
REMARK    1  A    between atoms: C_1  and  O_2
REMARK    2  A    between atoms: O_2  and  C_3
REMARK    3  A    between atoms: C_19  and  O_20
REMARK                            x       y       z     vdW  Elec       q    Type
REMARK                         _______ _______ _______ _____ _____    ______ ____
ROOT
ATOM      1  C   UNL     1      84.574  54.608  41.059  0.00  0.00    +0.163 A 
ATOM      2  C   UNL     1      84.348  53.222  40.940  0.00  0.00    -0.016 A 
ATOM      3  C   UNL     1      84.252  52.416  42.079  0.00  0.00    -0.050 A 
ATOM      4  C   UNL     1      84.374  52.982  43.356  0.00  0.00    -0.014 A 
ATOM      5  C   UNL     1      84.590  54.370  43.479  0.00  0.00    +0.037 A 
ATOM      6  C   UNL     1      84.696  55.177  42.335  0.00  0.00    +0.182 A 
ATOM      7  O   UNL     1      84.926  56.478  42.463  0.00  0.00    -0.418 OA
ATOM      8  C   UNL     1      85.049  57.091  43.638  0.00  0.00    +0.349 A 
ATOM      9  O   UNL     1      85.320  58.319  43.632  0.00  0.00    -0.244 OA
ATOM     10  C   UNL     1      84.910  56.366  44.852  0.00  0.00    +0.109 A 
ATOM     11  C   UNL     1      84.707  54.966  44.746  0.00  0.00    +0.011 A 
ATOM     12  C   UNL     1      84.628  54.155  45.901  0.00  0.00    -0.016 A 
ATOM     13  C   UNL     1      84.419  52.772  45.773  0.00  0.00    -0.053 A 
ATOM     14  C   UNL     1      84.288  52.190  44.508  0.00  0.00    -0.053 A 
ATOM     15  C   UNL     1      84.764  54.737  47.163  0.00  0.00    -0.051 A 
ATOM     16  C   UNL     1      84.944  56.114  47.283  0.00  0.00    -0.019 A 
ATOM     17  C   UNL     1      84.988  56.943  46.156  0.00  0.00    +0.131 A 
ENDROOT
BRANCH   1  19
ATOM     18  C   UNL     1      83.907  55.312  38.752  0.00  0.00    +0.079 C 
ATOM     19  O   UNL     1      84.683  55.447  39.938  0.00  0.00    -0.491 OA
ENDBRANCH   1  19
BRANCH  17  20
ATOM     20  O   UNL     1      85.082  58.317  46.399  0.00  0.00    -0.506 OA
ATOM     21  H   UNL     1      84.645  58.693  47.137  0.00  0.00    +0.000 HD
ENDBRANCH  17  20
TORSDOF 2
ENDMDL
MODEL 3
REMARK VINA RESULT:    -8.307      1.431      2.168
REMARK INTER + INTRA:          -9.118
REMARK INTER:                  -9.053
REMARK INTRA:                  -0.065
REMARK UNBOUND:                -0.082
REMARK  Name = 
REMARK  3 active torsions:
REMARK  status: ('A' for Active; 'I' for Inactive)
REMARK    1  A    between atoms: C_1  and  O_2
REMARK    2  A    between atoms: O_2  and  C_3
REMARK    3  A    between atoms: C_19  and  O_20
REMARK                            x       y       z     vdW  Elec       q    Type
REMARK                         _______ _______ _______ _____ _____    ______ ____
ROOT
ATOM      1  C   UNL     1      87.329  51.680  45.191  0.00  0.00    +0.163 A 
ATOM      2  C   UNL     1      87.448  50.800  46.286  0.00  0.00    -0.016 A 
ATOM      3  C   UNL     1      86.839  51.100  47.509  0.00  0.00    -0.050 A 
ATOM      4  C   UNL     1      86.099  52.281  47.657  0.00  0.00    -0.014 A 
ATOM      5  C   UNL     1      85.970  53.159  46.561  0.00  0.00    +0.037 A 
ATOM      6  C   UNL     1      86.589  52.862  45.337  0.00  0.00    +0.182 A 
ATOM      7  O   UNL     1      86.483  53.709  44.319  0.00  0.00    -0.418 OA
ATOM      8  C   UNL     1      85.795  54.847  44.378  0.00  0.00    +0.349 A 
ATOM      9  O   UNL     1      85.812  55.593  43.367  0.00  0.00    -0.244 OA
ATOM     10  C   UNL     1      85.095  55.210  45.561  0.00  0.00    +0.109 A 
ATOM     11  C   UNL     1      85.226  54.346  46.678  0.00  0.00    +0.011 A 
ATOM     12  C   UNL     1      84.623  54.664  47.916  0.00  0.00    -0.016 A 
ATOM     13  C   UNL     1      84.759  53.789  49.007  0.00  0.00    -0.053 A 
ATOM     14  C   UNL     1      85.488  52.603  48.877  0.00  0.00    -0.053 A 
ATOM     15  C   UNL     1      83.899  55.851  48.045  0.00  0.00    -0.051 A 
ATOM     16  C   UNL     1      83.746  56.700  46.951  0.00  0.00    -0.019 A 
ATOM     17  C   UNL     1      84.302  56.388  45.705  0.00  0.00    +0.131 A 
ENDROOT
BRANCH   1  19
ATOM     18  C   UNL     1      88.309  50.118  43.499  0.00  0.00    +0.079 C 
ATOM     19  O   UNL     1      87.933  51.415  43.951  0.00  0.00    -0.491 OA
ENDBRANCH   1  19
BRANCH  17  20
ATOM     20  O   UNL     1      84.009  57.267  44.657  0.00  0.00    -0.506 OA
ATOM     21  H   UNL     1      84.474  58.076  44.580  0.00  0.00    +0.000 HD
ENDBRANCH  17  20
TORSDOF 2
ENDMDL
MODEL 4
REMARK VINA RESULT:    -8.295      1.214      1.495
REMARK INTER + INTRA:          -9.105
REMARK INTER:                  -9.041
REMARK INTRA:                  -0.064
REMARK UNBOUND:                -0.082
REMARK  Name = 
REMARK  3 active torsions:
REMARK  status: ('A' for Active; 'I' for Inactive)
REMARK    1  A    between atoms: C_1  and  O_2
REMARK    2  A    between atoms: O_2  and  C_3
REMARK    3  A    between atoms: C_19  and  O_20
REMARK                            x       y       z     vdW  Elec       q    Type
REMARK                         _______ _______ _______ _____ _____    ______ ____
ROOT
ATOM      1  C   UNL     1      87.365  52.838  42.613  0.00  0.00    +0.163 A 
ATOM      2  C   UNL     1      87.809  51.601  43.124  0.00  0.00    -0.016 A 
ATOM      3  C   UNL     1      87.607  51.272  44.468  0.00  0.00    -0.050 A 
ATOM      4  C   UNL     1      86.954  52.171  45.324  0.00  0.00    -0.014 A 
ATOM      5  C   UNL     1      86.501  53.405  44.814  0.00  0.00    +0.037 A 
ATOM      6  C   UNL     1      86.712  53.739  43.467  0.00  0.00    +0.182 A 
ATOM      7  O   UNL     1      86.304  54.914  43.005  0.00  0.00    -0.418 OA
ATOM      8  C   UNL     1      85.674  55.819  43.751  0.00  0.00    +0.349 A 
ATOM      9  O   UNL     1      85.384  56.919  43.215  0.00  0.00    -0.244 OA
ATOM     10  C   UNL     1      85.373  55.552  45.114  0.00  0.00    +0.109 A 
ATOM     11  C   UNL     1      85.836  54.322  45.646  0.00  0.00    +0.011 A 
ATOM     12  C   UNL     1      85.644  54.004  47.010  0.00  0.00    -0.016 A 
ATOM     13  C   UNL     1      86.103  52.776  47.514  0.00  0.00    -0.053 A 
ATOM     14  C   UNL     1      86.750  51.863  46.676  0.00  0.00    -0.053 A 
ATOM     15  C   UNL     1      85.002  54.918  47.848  0.00  0.00    -0.051 A 
ATOM     16  C   UNL     1      84.525  56.123  47.334  0.00  0.00    -0.019 A 
ATOM     17  C   UNL     1      84.670  56.444  45.979  0.00  0.00    +0.131 A 
ENDROOT
BRANCH   1  19
ATOM     18  C   UNL     1      87.937  52.303  40.237  0.00  0.00    +0.079 C 
ATOM     19  O   UNL     1      87.556  53.204  41.271  0.00  0.00    -0.491 OA
ENDBRANCH   1  19
BRANCH  17  20
ATOM     20  O   UNL     1      84.074  57.637  45.557  0.00  0.00    -0.506 OA
ATOM     21  H   UNL     1      84.357  58.454  45.916  0.00  0.00    +0.000 HD
ENDBRANCH  17  20
TORSDOF 2
ENDMDL
MODEL 5
REMARK VINA RESULT:    -8.242      1.409      4.950
REMARK INTER + INTRA:          -9.048
REMARK INTER:                  -8.964
REMARK INTRA:                  -0.084
REMARK UNBOUND:                -0.082
REMARK  Name = 
REMARK  3 active torsions:
REMARK  status: ('A' for Active; 'I' for Inactive)
REMARK    1  A    between atoms: C_1  and  O_2
REMARK    2  A    between atoms: O_2  and  C_3
REMARK    3  A    between atoms: C_19  and  O_20
REMARK                            x       y       z     vdW  Elec       q    Type
REMARK                         _______ _______ _______ _____ _____    ______ ____
ROOT
ATOM      1  C   UNL     1      85.528  54.440  47.617  0.00  0.00    +0.163 A 
ATOM      2  C   UNL     1      85.525  53.641  48.779  0.00  0.00    -0.016 A 
ATOM      3  C   UNL     1      86.021  52.334  48.744  0.00  0.00    -0.050 A 
ATOM      4  C   UNL     1      86.534  51.805  47.552  0.00  0.00    -0.014 A 
ATOM      5  C   UNL     1      86.547  52.605  46.390  0.00  0.00    +0.037 A 
ATOM      6  C   UNL     1      86.039  53.913  46.423  0.00  0.00    +0.182 A 
ATOM      7  O   UNL     1      86.033  54.648  45.317  0.00  0.00    -0.418 OA
ATOM      8  C   UNL     1      86.505  54.221  44.147  0.00  0.00    +0.349 A 
ATOM      9  O   UNL     1      86.395  54.988  43.158  0.00  0.00    -0.244 OA
ATOM     10  C   UNL     1      87.082  52.928  44.028  0.00  0.00    +0.109 A 
ATOM     11  C   UNL     1      87.062  52.104  45.182  0.00  0.00    +0.011 A 
ATOM     12  C   UNL     1      87.550  50.779  45.136  0.00  0.00    -0.016 A 
ATOM     13  C   UNL     1      87.529  49.984  46.294  0.00  0.00    -0.053 A 
ATOM     14  C   UNL     1      87.028  50.495  47.496  0.00  0.00    -0.053 A 
ATOM     15  C   UNL     1      88.046  50.267  43.935  0.00  0.00    -0.051 A 
ATOM     16  C   UNL     1      88.088  51.071  42.797  0.00  0.00    -0.019 A 
ATOM     17  C   UNL     1      87.646  52.399  42.827  0.00  0.00    +0.131 A 
ENDROOT
BRANCH   1  19
ATOM     18  C   UNL     1      83.647  56.091  47.617  0.00  0.00    +0.079 C 
ATOM     19  O   UNL     1      85.031  55.754  47.613  0.00  0.00    -0.491 OA
ENDBRANCH   1  19
BRANCH  17  20
ATOM     20  O   UNL     1      87.819  53.138  41.653  0.00  0.00    -0.506 OA
ATOM     21  H   UNL     1      88.598  53.644  41.528  0.00  0.00    +0.000 HD
ENDBRANCH  17  20
TORSDOF 2
ENDMDL
MODEL 6
REMARK VINA RESULT:    -8.078      1.796      4.178
REMARK INTER + INTRA:          -8.869
REMARK INTER:                  -8.786
REMARK INTRA:                  -0.083
REMARK UNBOUND:                -0.082
REMARK  Name = 
REMARK  3 active torsions:
REMARK  status: ('A' for Active; 'I' for Inactive)
REMARK    1  A    between atoms: C_1  and  O_2
REMARK    2  A    between atoms: O_2  and  C_3
REMARK    3  A    between atoms: C_19  and  O_20
REMARK                            x       y       z     vdW  Elec       q    Type
REMARK                         _______ _______ _______ _____ _____    ______ ____
ROOT
ATOM      1  C   UNL     1      85.209  55.716  44.501  0.00  0.00    +0.163 A 
ATOM      2  C   UNL     1      84.449  56.641  45.246  0.00  0.00    -0.016 A 
ATOM      3  C   UNL     1      84.166  56.406  46.596  0.00  0.00    -0.050 A 
ATOM      4  C   UNL     1      84.641  55.247  47.225  0.00  0.00    -0.014 A 
ATOM      5  C   UNL     1      85.410  54.324  46.485  0.00  0.00    +0.037 A 
ATOM      6  C   UNL     1      85.685  54.555  45.128  0.00  0.00    +0.182 A 
ATOM      7  O   UNL     1      86.387  53.667  44.435  0.00  0.00    -0.418 OA
ATOM      8  C   UNL     1      86.878  52.546  44.960  0.00  0.00    +0.349 A 
ATOM      9  O   UNL     1      87.481  51.756  44.191  0.00  0.00    -0.244 OA
ATOM     10  C   UNL     1      86.691  52.248  46.337  0.00  0.00    +0.109 A 
ATOM     11  C   UNL     1      85.907  53.158  47.091  0.00  0.00    +0.011 A 
ATOM     12  C   UNL     1      85.611  52.906  48.450  0.00  0.00    -0.016 A 
ATOM     13  C   UNL     1      84.840  53.825  49.181  0.00  0.00    -0.053 A 
ATOM     14  C   UNL     1      84.362  54.990  48.574  0.00  0.00    -0.053 A 
ATOM     15  C   UNL     1      86.085  51.740  49.055  0.00  0.00    -0.051 A 
ATOM     16  C   UNL     1      86.872  50.846  48.330  0.00  0.00    -0.019 A 
ATOM     17  C   UNL     1      87.210  51.092  46.994  0.00  0.00    +0.131 A 
ENDROOT
BRANCH   1  19
ATOM     18  C   UNL     1      84.597  55.666  42.075  0.00  0.00    +0.079 C 
ATOM     19  O   UNL     1      85.506  55.915  43.143  0.00  0.00    -0.491 OA
ENDBRANCH   1  19
BRANCH  17  20
ATOM     20  O   UNL     1      88.078  50.175  46.394  0.00  0.00    -0.506 OA
ATOM     21  H   UNL     1      87.931  49.898  45.511  0.00  0.00    +0.000 HD
ENDBRANCH  17  20
TORSDOF 2
ENDMDL
MODEL 7
REMARK VINA RESULT:    -7.982      2.139      5.602
REMARK INTER + INTRA:          -8.764
REMARK INTER:                  -8.680
REMARK INTRA:                  -0.084
REMARK UNBOUND:                -0.082
REMARK  Name = 
REMARK  3 active torsions:
REMARK  status: ('A' for Active; 'I' for Inactive)
REMARK    1  A    between atoms: C_1  and  O_2
REMARK    2  A    between atoms: O_2  and  C_3
REMARK    3  A    between atoms: C_19  and  O_20
REMARK                            x       y       z     vdW  Elec       q    Type
REMARK                         _______ _______ _______ _____ _____    ______ ____
ROOT
ATOM      1  C   UNL     1      86.093  54.943  44.143  0.00  0.00    +0.163 A 
ATOM      2  C   UNL     1      85.911  54.920  45.540  0.00  0.00    -0.016 A 
ATOM      3  C   UNL     1      86.288  53.799  46.288  0.00  0.00    -0.050 A 
ATOM      4  C   UNL     1      86.857  52.686  45.654  0.00  0.00    -0.014 A 
ATOM      5  C   UNL     1      87.048  52.710  44.256  0.00  0.00    +0.037 A 
ATOM      6  C   UNL     1      86.661  53.831  43.505  0.00  0.00    +0.182 A 
ATOM      7  O   UNL     1      86.823  53.831  42.187  0.00  0.00    -0.418 OA
ATOM      8  C   UNL     1      87.359  52.817  41.512  0.00  0.00    +0.349 A 
ATOM      9  O   UNL     1      87.410  52.911  40.259  0.00  0.00    -0.244 OA
ATOM     10  C   UNL     1      87.824  51.659  42.191  0.00  0.00    +0.109 A 
ATOM     11  C   UNL     1      87.624  51.612  43.594  0.00  0.00    +0.011 A 
ATOM     12  C   UNL     1      87.992  50.470  44.341  0.00  0.00    -0.016 A 
ATOM     13  C   UNL     1      87.793  50.449  45.732  0.00  0.00    -0.053 A 
ATOM     14  C   UNL     1      87.233  51.551  46.385  0.00  0.00    -0.053 A 
ATOM     15  C   UNL     1      88.546  49.367  43.688  0.00  0.00    -0.051 A 
ATOM     16  C   UNL     1      88.765  49.406  42.312  0.00  0.00    -0.019 A 
ATOM     17  C   UNL     1      88.445  50.541  41.557  0.00  0.00    +0.131 A 
ENDROOT
BRANCH   1  19
ATOM     18  C   UNL     1      84.378  56.366  43.004  0.00  0.00    +0.079 C 
ATOM     19  O   UNL     1      85.720  56.047  43.359  0.00  0.00    -0.491 OA
ENDBRANCH   1  19
BRANCH  17  20
ATOM     20  O   UNL     1      88.791  50.503  40.202  0.00  0.00    -0.506 OA
ATOM     21  H   UNL     1      89.162  49.724  39.835  0.00  0.00    +0.000 HD
ENDBRANCH  17  20
TORSDOF 2
ENDMDL
MODEL 8
REMARK VINA RESULT:    -7.863      5.534      7.888
REMARK INTER + INTRA:          -8.635
REMARK INTER:                  -8.567
REMARK INTRA:                  -0.068
REMARK UNBOUND:                -0.082
REMARK  Name = 
REMARK  3 active torsions:
REMARK  status: ('A' for Active; 'I' for Inactive)
REMARK    1  A    between atoms: C_1  and  O_2
REMARK    2  A    between atoms: O_2  and  C_3
REMARK    3  A    between atoms: C_19  and  O_20
REMARK                            x       y       z     vdW  Elec       q    Type
REMARK                         _______ _______ _______ _____ _____    ______ ____
ROOT
ATOM      1  C   UNL     1      88.201  49.842  42.942  0.00  0.00    +0.163 A 
ATOM      2  C   UNL     1      89.450  49.462  42.409  0.00  0.00    -0.016 A 
ATOM      3  C   UNL     1      89.735  48.117  42.153  0.00  0.00    -0.050 A 
ATOM      4  C   UNL     1      88.776  47.130  42.419  0.00  0.00    -0.014 A 
ATOM      5  C   UNL     1      87.523  47.507  42.944  0.00  0.00    +0.037 A 
ATOM      6  C   UNL     1      87.241  48.856  43.211  0.00  0.00    +0.182 A 
ATOM      7  O   UNL     1      86.067  49.196  43.729  0.00  0.00    -0.418 OA
ATOM      8  C   UNL     1      85.103  48.320  44.006  0.00  0.00    +0.349 A 
ATOM      9  O   UNL     1      84.055  48.756  44.545  0.00  0.00    -0.244 OA
ATOM     10  C   UNL     1      85.279  46.938  43.727  0.00  0.00    +0.109 A 
ATOM     11  C   UNL     1      86.539  46.539  43.213  0.00  0.00    +0.011 A 
ATOM     12  C   UNL     1      86.826  45.177  42.972  0.00  0.00    -0.016 A 
ATOM     13  C   UNL     1      88.079  44.805  42.455  0.00  0.00    -0.053 A 
ATOM     14  C   UNL     1      89.046  45.776  42.176  0.00  0.00    -0.053 A 
ATOM     15  C   UNL     1      85.862  44.208  43.256  0.00  0.00    -0.051 A 
ATOM     16  C   UNL     1      84.612  44.586  43.743  0.00  0.00    -0.019 A 
ATOM     17  C   UNL     1      84.291  45.933  43.954  0.00  0.00    +0.131 A 
ENDROOT
BRANCH   1  19
ATOM     18  C   UNL     1      88.247  52.283  42.394  0.00  0.00    +0.079 C 
ATOM     19  O   UNL     1      87.883  51.181  43.220  0.00  0.00    -0.491 OA
ENDBRANCH   1  19
BRANCH  17  20
ATOM     20  O   UNL     1      82.979  46.202  44.358  0.00  0.00    -0.506 OA
ATOM     21  H   UNL     1      82.776  47.014  44.778  0.00  0.00    +0.000 HD
ENDBRANCH  17  20
TORSDOF 2
ENDMDL
MODEL 9
REMARK VINA RESULT:    -7.735      6.060      8.558
REMARK INTER + INTRA:          -8.496
REMARK INTER:                  -8.414
REMARK INTRA:                  -0.082
REMARK UNBOUND:                -0.082
REMARK  Name = 
REMARK  3 active torsions:
REMARK  status: ('A' for Active; 'I' for Inactive)
REMARK    1  A    between atoms: C_1  and  O_2
REMARK    2  A    between atoms: O_2  and  C_3
REMARK    3  A    between atoms: C_19  and  O_20
REMARK                            x       y       z     vdW  Elec       q    Type
REMARK                         _______ _______ _______ _____ _____    ______ ____
ROOT
ATOM      1  C   UNL     1      83.956  46.638  43.957  0.00  0.00    +0.163 A 
ATOM      2  C   UNL     1      83.796  45.237  43.967  0.00  0.00    -0.016 A 
ATOM      3  C   UNL     1      84.855  44.398  43.604  0.00  0.00    -0.050 A 
ATOM      4  C   UNL     1      86.091  44.944  43.231  0.00  0.00    -0.014 A 
ATOM      5  C   UNL     1      86.257  46.344  43.229  0.00  0.00    +0.037 A 
ATOM      6  C   UNL     1      85.191  47.186  43.583  0.00  0.00    +0.182 A 
ATOM      7  O   UNL     1      85.350  48.504  43.552  0.00  0.00    -0.418 OA
ATOM      8  C   UNL     1      86.493  49.099  43.214  0.00  0.00    +0.349 A 
ATOM      9  O   UNL     1      86.506  50.355  43.169  0.00  0.00    -0.244 OA
ATOM     10  C   UNL     1      87.641  48.329  42.885  0.00  0.00    +0.109 A 
ATOM     11  C   UNL     1      87.488  46.919  42.867  0.00  0.00    +0.011 A 
ATOM     12  C   UNL     1      88.557  46.078  42.483  0.00  0.00    -0.016 A 
ATOM     13  C   UNL     1      88.385  44.684  42.481  0.00  0.00    -0.053 A 
ATOM     14  C   UNL     1      87.162  44.120  42.856  0.00  0.00    -0.053 A 
ATOM     15  C   UNL     1      89.776  46.642  42.104  0.00  0.00    -0.051 A 
ATOM     16  C   UNL     1      89.947  48.025  42.134  0.00  0.00    -0.019 A 
ATOM     17  C   UNL     1      88.915  48.877  42.547  0.00  0.00    +0.131 A 
ENDROOT
BRANCH   1  19
ATOM     18  C   UNL     1      81.715  47.678  43.555  0.00  0.00    +0.079 C 
ATOM     19  O   UNL     1      82.913  47.511  44.307  0.00  0.00    -0.491 OA
ENDBRANCH   1  19
BRANCH  17  20
ATOM     20  O   UNL     1      89.227  50.237  42.626  0.00  0.00    -0.506 OA
ATOM     21  H   UNL     1      89.379  50.636  43.460  0.00  0.00    +0.000 HD
ENDBRANCH  17  20
TORSDOF 2
ENDMDL
