MODEL 1
REMARK VINA RESULT:    -4.940      0.000      0.000
REMARK INTER + INTRA:          -6.018
REMARK INTER:                  -6.154
REMARK INTRA:                   0.136
REMARK UNBOUND:                -0.068
REMARK  Name = 
REMARK  7 active torsions:
REMARK  status: ('A' for Active; 'I' for Inactive)
REMARK    1  A    between atoms: C_1  and  O_2
REMARK    2  A    between atoms: O_2  and  C_3
REMARK    3  A    between atoms: C_4  and  O_5
REMARK    4  A    between atoms: C_6  and  O_7
REMARK    5  A    between atoms: C_8  and  O_13
REMARK    6  A    between atoms: C_9  and  O_12
REMARK    7  A    between atoms: C_10  and  O_11
REMARK                            x       y       z     vdW  Elec       q    Type
REMARK                         _______ _______ _______ _____ _____    ______ ____
ROOT
ATOM      1  C   UNL     1      84.876  50.066  56.084  0.00  0.00    +0.115 C 
ATOM      2  C   UNL     1      84.280  50.576  57.425  0.00  0.00    +0.112 C 
ATOM      3  C   UNL     1      82.853  50.026  57.643  0.00  0.00    +0.112 C 
ATOM      4  C   UNL     1      81.874  50.493  56.526  0.00  0.00    +0.112 C 
ATOM      5  C   UNL     1      82.597  50.828  55.196  0.00  0.00    +0.112 C 
ATOM      6  C   UNL     1      83.802  49.894  54.972  0.00  0.00    +0.112 C 
ENDROOT
BRANCH   1   8
ATOM      7  C   UNL     1      84.846  47.789  55.569  0.00  0.00    +0.037 C 
ATOM      8  O   UNL     1      85.502  48.807  56.293  0.00  0.00    -0.374 OA
ENDBRANCH   1   8
BRANCH   2   9
ATOM      9  O   UNL     1      85.115  50.199  58.491  0.00  0.00    -0.386 OA
ATOM     10  H   UNL     1      84.773  49.388  58.900  0.00  0.00    +0.000 HD
ENDBRANCH   2   9
BRANCH   3  11
ATOM     11  O   UNL     1      82.358  50.382  58.911  0.00  0.00    -0.386 OA
ATOM     12  H   UNL     1      82.892  51.105  59.274  0.00  0.00    +0.000 HD
ENDBRANCH   3  11
BRANCH   6  13
ATOM     13  O   UNL     1      84.373  50.157  53.717  0.00  0.00    -0.386 OA
ATOM     14  H   UNL     1      84.767  51.045  53.719  0.00  0.00    +0.000 HD
ENDBRANCH   6  13
BRANCH   5  15
ATOM     15  O   UNL     1      81.691  50.723  54.125  0.00  0.00    -0.386 OA
ATOM     16  H   UNL     1      81.842  49.888  53.654  0.00  0.00    +0.000 HD
ENDBRANCH   5  15
BRANCH   4  17
ATOM     17  O   UNL     1      80.910  49.492  56.305  0.00  0.00    -0.386 OA
ATOM     18  H   UNL     1      80.033  49.832  56.539  0.00  0.00    +0.000 HD
ENDBRANCH   4  17
TORSDOF 6
ENDMDL
MODEL 2
REMARK VINA RESULT:    -4.783     11.214     12.827
REMARK INTER + INTRA:          -5.829
REMARK INTER:                  -5.762
REMARK INTRA:                  -0.068
REMARK UNBOUND:                -0.068
REMARK  Name = 
REMARK  7 active torsions:
REMARK  status: ('A' for Active; 'I' for Inactive)
REMARK    1  A    between atoms: C_1  and  O_2
REMARK    2  A    between atoms: O_2  and  C_3
REMARK    3  A    between atoms: C_4  and  O_5
REMARK    4  A    between atoms: C_6  and  O_7
REMARK    5  A    between atoms: C_8  and  O_13
REMARK    6  A    between atoms: C_9  and  O_12
REMARK    7  A    between atoms: C_10  and  O_11
REMARK                            x       y       z     vdW  Elec       q    Type
REMARK                         _______ _______ _______ _____ _____    ______ ____
ROOT
ATOM      1  C   UNL     1      85.668  55.732  44.384  0.00  0.00    +0.115 C 
ATOM      2  C   UNL     1      85.953  55.284  45.844  0.00  0.00    +0.112 C 
ATOM      3  C   UNL     1      84.738  55.560  46.757  0.00  0.00    +0.112 C 
ATOM      4  C   UNL     1      84.398  57.079  46.826  0.00  0.00    +0.112 C 
ATOM      5  C   UNL     1      84.873  57.859  45.573  0.00  0.00    +0.112 C 
ATOM      6  C   UNL     1      84.755  56.990  44.305  0.00  0.00    +0.112 C 
ENDROOT
BRANCH   1   8
ATOM      7  C   UNL     1      85.701  54.389  42.475  0.00  0.00    +0.037 C 
ATOM      8  O   UNL     1      85.027  54.676  43.681  0.00  0.00    -0.374 OA
ENDBRANCH   1   8
BRANCH   2   9
ATOM      9  O   UNL     1      86.278  53.916  45.866  0.00  0.00    -0.386 OA
ATOM     10  H   UNL     1      86.572  53.639  44.984  0.00  0.00    +0.000 HD
ENDBRANCH   2   9
BRANCH   3  11
ATOM     11  O   UNL     1      84.944  55.044  48.048  0.00  0.00    -0.386 OA
ATOM     12  H   UNL     1      85.462  55.675  48.570  0.00  0.00    +0.000 HD
ENDBRANCH   3  11
BRANCH   6  13
ATOM     13  O   UNL     1      85.098  57.755  43.178  0.00  0.00    -0.386 OA
ATOM     14  H   UNL     1      85.127  58.694  43.421  0.00  0.00    +0.000 HD
ENDBRANCH   6  13
BRANCH   5  15
ATOM     15  O   UNL     1      84.115  59.035  45.431  0.00  0.00    -0.386 OA
ATOM     16  H   UNL     1      83.769  59.303  46.297  0.00  0.00    +0.000 HD
ENDBRANCH   5  15
BRANCH   4  17
ATOM     17  O   UNL     1      83.009  57.236  46.987  0.00  0.00    -0.386 OA
ATOM     18  H   UNL     1      82.835  57.990  47.570  0.00  0.00    +0.000 HD
ENDBRANCH   4  17
TORSDOF 6
ENDMDL
MODEL 3
REMARK VINA RESULT:    -4.707     22.949     24.437
REMARK INTER + INTRA:          -5.738
REMARK INTER:                  -5.814
REMARK INTRA:                   0.075
REMARK UNBOUND:                -0.068
REMARK  Name = 
REMARK  7 active torsions:
REMARK  status: ('A' for Active; 'I' for Inactive)
REMARK    1  A    between atoms: C_1  and  O_2
REMARK    2  A    between atoms: O_2  and  C_3
REMARK    3  A    between atoms: C_4  and  O_5
REMARK    4  A    between atoms: C_6  and  O_7
REMARK    5  A    between atoms: C_8  and  O_13
REMARK    6  A    between atoms: C_9  and  O_12
REMARK    7  A    between atoms: C_10  and  O_11
REMARK                            x       y       z     vdW  Elec       q    Type
REMARK                         _______ _______ _______ _____ _____    ______ ____
ROOT
ATOM      1  C   UNL     1      76.186  47.255  32.642  0.00  0.00    +0.115 C 
ATOM      2  C   UNL     1      77.098  48.306  31.951  0.00  0.00    +0.112 C 
ATOM      3  C   UNL     1      77.294  49.547  32.850  0.00  0.00    +0.112 C 
ATOM      4  C   UNL     1      75.945  50.268  33.146  0.00  0.00    +0.112 C 
ATOM      5  C   UNL     1      74.723  49.319  33.047  0.00  0.00    +0.112 C 
ATOM      6  C   UNL     1      75.084  47.902  33.530  0.00  0.00    +0.112 C 
ENDROOT
BRANCH   1   8
ATOM      7  C   UNL     1      76.907  46.807  34.817  0.00  0.00    +0.037 C 
ATOM      8  O   UNL     1      76.978  46.409  33.465  0.00  0.00    -0.374 OA
ENDBRANCH   1   8
BRANCH   2   9
ATOM      9  O   UNL     1      78.342  47.727  31.643  0.00  0.00    -0.386 OA
ATOM     10  H   UNL     1      78.841  47.579  32.461  0.00  0.00    +0.000 HD
ENDBRANCH   2   9
BRANCH   3  11
ATOM     11  O   UNL     1      78.217  50.445  32.284  0.00  0.00    -0.386 OA
ATOM     12  H   UNL     1      79.054  49.986  32.119  0.00  0.00    +0.000 HD
ENDBRANCH   3  11
BRANCH   6  13
ATOM     13  O   UNL     1      73.934  47.095  33.521  0.00  0.00    -0.386 OA
ATOM     14  H   UNL     1      74.009  46.418  34.212  0.00  0.00    +0.000 HD
ENDBRANCH   6  13
BRANCH   5  15
ATOM     15  O   UNL     1      73.658  49.838  33.805  0.00  0.00    -0.386 OA
ATOM     16  H   UNL     1      72.849  49.838  33.269  0.00  0.00    +0.000 HD
ENDBRANCH   5  15
BRANCH   4  17
ATOM     17  O   UNL     1      75.999  50.844  34.428  0.00  0.00    -0.386 OA
ATOM     18  H   UNL     1      75.683  50.203  35.083  0.00  0.00    +0.000 HD
ENDBRANCH   4  17
TORSDOF 6
ENDMDL
MODEL 4
REMARK VINA RESULT:    -4.691     11.900     12.779
REMARK INTER + INTRA:          -5.719
REMARK INTER:                  -5.667
REMARK INTRA:                  -0.052
REMARK UNBOUND:                -0.068
REMARK  Name = 
REMARK  7 active torsions:
REMARK  status: ('A' for Active; 'I' for Inactive)
REMARK    1  A    between atoms: C_1  and  O_2
REMARK    2  A    between atoms: O_2  and  C_3
REMARK    3  A    between atoms: C_4  and  O_5
REMARK    4  A    between atoms: C_6  and  O_7
REMARK    5  A    between atoms: C_8  and  O_13
REMARK    6  A    between atoms: C_9  and  O_12
REMARK    7  A    between atoms: C_10  and  O_11
REMARK                            x       y       z     vdW  Elec       q    Type
REMARK                         _______ _______ _______ _____ _____    ______ ____
ROOT
ATOM      1  C   UNL     1      81.504  49.242  43.599  0.00  0.00    +0.115 C 
ATOM      2  C   UNL     1      80.292  50.044  43.050  0.00  0.00    +0.112 C 
ATOM      3  C   UNL     1      79.228  50.264  44.149  0.00  0.00    +0.112 C 
ATOM      4  C   UNL     1      78.655  48.917  44.679  0.00  0.00    +0.112 C 
ATOM      5  C   UNL     1      79.639  47.732  44.497  0.00  0.00    +0.112 C 
ATOM      6  C   UNL     1      81.098  48.194  44.675  0.00  0.00    +0.112 C 
ENDROOT
BRANCH   1   8
ATOM      7  C   UNL     1      83.755  49.835  43.773  0.00  0.00    +0.037 C 
ATOM      8  O   UNL     1      82.439  50.138  44.183  0.00  0.00    -0.374 OA
ENDBRANCH   1   8
BRANCH   2   9
ATOM      9  O   UNL     1      80.730  51.280  42.542  0.00  0.00    -0.386 OA
ATOM     10  H   UNL     1      81.479  51.599  43.069  0.00  0.00    +0.000 HD
ENDBRANCH   2   9
BRANCH   3  11
ATOM     11  O   UNL     1      78.189  51.095  43.692  0.00  0.00    -0.386 OA
ATOM     12  H   UNL     1      77.781  50.700  42.907  0.00  0.00    +0.000 HD
ENDBRANCH   3  11
BRANCH   6  13
ATOM     13  O   UNL     1      81.955  47.084  44.603  0.00  0.00    -0.386 OA
ATOM     14  H   UNL     1      81.524  46.316  45.011  0.00  0.00    +0.000 HD
ENDBRANCH   6  13
BRANCH   5  15
ATOM     15  O   UNL     1      79.332  46.716  45.420  0.00  0.00    -0.386 OA
ATOM     16  H   UNL     1      79.098  45.905  44.942  0.00  0.00    +0.000 HD
ENDBRANCH   5  15
BRANCH   4  17
ATOM     17  O   UNL     1      78.323  49.057  46.039  0.00  0.00    -0.386 OA
ATOM     18  H   UNL     1      77.362  48.992  46.145  0.00  0.00    +0.000 HD
ENDBRANCH   4  17
TORSDOF 6
ENDMDL
MODEL 5
REMARK VINA RESULT:    -4.670     23.143     24.379
REMARK INTER + INTRA:          -5.693
REMARK INTER:                  -5.624
REMARK INTRA:                  -0.069
REMARK UNBOUND:                -0.068
REMARK  Name = 
REMARK  7 active torsions:
REMARK  status: ('A' for Active; 'I' for Inactive)
REMARK    1  A    between atoms: C_1  and  O_2
REMARK    2  A    between atoms: O_2  and  C_3
REMARK    3  A    between atoms: C_4  and  O_5
REMARK    4  A    between atoms: C_6  and  O_7
REMARK    5  A    between atoms: C_8  and  O_13
REMARK    6  A    between atoms: C_9  and  O_12
REMARK    7  A    between atoms: C_10  and  O_11
REMARK                            x       y       z     vdW  Elec       q    Type
REMARK                         _______ _______ _______ _____ _____    ______ ____
ROOT
ATOM      1  C   UNL     1      97.750  66.467  43.153  0.00  0.00    +0.115 C 
ATOM      2  C   UNL     1      97.413  67.209  44.476  0.00  0.00    +0.112 C 
ATOM      3  C   UNL     1      96.404  66.402  45.324  0.00  0.00    +0.112 C 
ATOM      4  C   UNL     1      95.051  66.202  44.579  0.00  0.00    +0.112 C 
ATOM      5  C   UNL     1      95.198  66.266  43.037  0.00  0.00    +0.112 C 
ATOM      6  C   UNL     1      96.543  65.665  42.586  0.00  0.00    +0.112 C 
ENDROOT
BRANCH   1   8
ATOM      7  C   UNL     1      99.852  65.748  42.436  0.00  0.00    +0.037 C 
ATOM      8  O   UNL     1      98.819  65.559  43.378  0.00  0.00    -0.374 OA
ENDBRANCH   1   8
BRANCH   2   9
ATOM      9  O   UNL     1      98.592  67.435  45.208  0.00  0.00    -0.386 OA
ATOM     10  H   UNL     1      98.978  66.584  45.472  0.00  0.00    +0.000 HD
ENDBRANCH   2   9
BRANCH   3  11
ATOM     11  O   UNL     1      96.192  67.007  46.575  0.00  0.00    -0.386 OA
ATOM     12  H   UNL     1      95.989  67.946  46.450  0.00  0.00    +0.000 HD
ENDBRANCH   3  11
BRANCH   6  13
ATOM     13  O   UNL     1      96.603  65.647  41.184  0.00  0.00    -0.386 OA
ATOM     14  H   UNL     1      96.555  66.555  40.846  0.00  0.00    +0.000 HD
ENDBRANCH   6  13
BRANCH   5  15
ATOM     15  O   UNL     1      94.130  65.581  42.431  0.00  0.00    -0.386 OA
ATOM     16  H   UNL     1      94.411  65.242  41.566  0.00  0.00    +0.000 HD
ENDBRANCH   5  15
BRANCH   4  17
ATOM     17  O   UNL     1      94.493  64.966  44.955  0.00  0.00    -0.386 OA
ATOM     18  H   UNL     1      95.203  64.327  45.113  0.00  0.00    +0.000 HD
ENDBRANCH   4  17
TORSDOF 6
ENDMDL
MODEL 6
REMARK VINA RESULT:    -4.652     11.547     13.517
REMARK INTER + INTRA:          -5.672
REMARK INTER:                  -5.603
REMARK INTRA:                  -0.069
REMARK UNBOUND:                -0.068
REMARK  Name = 
REMARK  7 active torsions:
REMARK  status: ('A' for Active; 'I' for Inactive)
REMARK    1  A    between atoms: C_1  and  O_2
REMARK    2  A    between atoms: O_2  and  C_3
REMARK    3  A    between atoms: C_4  and  O_5
REMARK    4  A    between atoms: C_6  and  O_7
REMARK    5  A    between atoms: C_8  and  O_13
REMARK    6  A    between atoms: C_9  and  O_12
REMARK    7  A    between atoms: C_10  and  O_11
REMARK                            x       y       z     vdW  Elec       q    Type
REMARK                         _______ _______ _______ _____ _____    ______ ____
ROOT
ATOM      1  C   UNL     1      85.139  54.690  45.383  0.00  0.00    +0.115 C 
ATOM      2  C   UNL     1      84.721  54.584  43.891  0.00  0.00    +0.112 C 
ATOM      3  C   UNL     1      85.224  55.802  43.085  0.00  0.00    +0.112 C 
ATOM      4  C   UNL     1      84.618  57.136  43.613  0.00  0.00    +0.112 C 
ATOM      5  C   UNL     1      84.201  57.058  45.104  0.00  0.00    +0.112 C 
ATOM      6  C   UNL     1      85.165  56.158  45.900  0.00  0.00    +0.112 C 
ENDROOT
BRANCH   1   8
ATOM      7  C   UNL     1      86.449  53.173  46.580  0.00  0.00    +0.037 C 
ATOM      8  O   UNL     1      86.438  54.139  45.552  0.00  0.00    -0.374 OA
ENDBRANCH   1   8
BRANCH   2   9
ATOM      9  O   UNL     1      85.227  53.393  43.339  0.00  0.00    -0.386 OA
ATOM     10  H   UNL     1      84.567  52.687  43.432  0.00  0.00    +0.000 HD
ENDBRANCH   2   9
BRANCH   3  11
ATOM     11  O   UNL     1      84.957  55.650  41.713  0.00  0.00    -0.386 OA
ATOM     12  H   UNL     1      85.148  56.481  41.252  0.00  0.00    +0.000 HD
ENDBRANCH   3  11
BRANCH   6  13
ATOM     13  O   UNL     1      84.820  56.187  47.261  0.00  0.00    -0.386 OA
ATOM     14  H   UNL     1      85.533  55.788  47.785  0.00  0.00    +0.000 HD
ENDBRANCH   6  13
BRANCH   5  15
ATOM     15  O   UNL     1      84.172  58.351  45.656  0.00  0.00    -0.386 OA
ATOM     16  H   UNL     1      83.510  58.386  46.366  0.00  0.00    +0.000 HD
ENDBRANCH   5  15
BRANCH   4  17
ATOM     17  O   UNL     1      85.551  58.173  43.433  0.00  0.00    -0.386 OA
ATOM     18  H   UNL     1      85.229  58.977  43.869  0.00  0.00    +0.000 HD
ENDBRANCH   4  17
TORSDOF 6
ENDMDL
MODEL 7
REMARK VINA RESULT:    -4.636     22.981     24.919
REMARK INTER + INTRA:          -5.652
REMARK INTER:                  -5.583
REMARK INTRA:                  -0.069
REMARK UNBOUND:                -0.068
REMARK  Name = 
REMARK  7 active torsions:
REMARK  status: ('A' for Active; 'I' for Inactive)
REMARK    1  A    between atoms: C_1  and  O_2
REMARK    2  A    between atoms: O_2  and  C_3
REMARK    3  A    between atoms: C_4  and  O_5
REMARK    4  A    between atoms: C_6  and  O_7
REMARK    5  A    between atoms: C_8  and  O_13
REMARK    6  A    between atoms: C_9  and  O_12
REMARK    7  A    between atoms: C_10  and  O_11
REMARK                            x       y       z     vdW  Elec       q    Type
REMARK                         _______ _______ _______ _____ _____    ______ ____
ROOT
ATOM      1  C   UNL     1      74.257  47.188  32.818  0.00  0.00    +0.115 C 
ATOM      2  C   UNL     1      73.191  48.308  32.961  0.00  0.00    +0.112 C 
ATOM      3  C   UNL     1      73.857  49.696  33.085  0.00  0.00    +0.112 C 
ATOM      4  C   UNL     1      74.764  49.794  34.348  0.00  0.00    +0.112 C 
ATOM      5  C   UNL     1      75.292  48.413  34.816  0.00  0.00    +0.112 C 
ATOM      6  C   UNL     1      75.560  47.488  33.614  0.00  0.00    +0.112 C 
ENDROOT
BRANCH   1   8
ATOM      7  C   UNL     1      74.495  45.685  31.047  0.00  0.00    +0.037 C 
ATOM      8  O   UNL     1      74.601  47.033  31.448  0.00  0.00    -0.374 OA
ENDBRANCH   1   8
BRANCH   2   9
ATOM      9  O   UNL     1      72.322  48.282  31.855  0.00  0.00    -0.386 OA
ATOM     10  H   UNL     1      72.724  47.764  31.140  0.00  0.00    +0.000 HD
ENDBRANCH   2   9
BRANCH   3  11
ATOM     11  O   UNL     1      72.896  50.723  33.089  0.00  0.00    -0.386 OA
ATOM     12  H   UNL     1      72.483  50.782  32.215  0.00  0.00    +0.000 HD
ENDBRANCH   3  11
BRANCH   6  13
ATOM     13  O   UNL     1      76.129  46.286  34.063  0.00  0.00    -0.386 OA
ATOM     14  H   UNL     1      76.191  46.299  35.032  0.00  0.00    +0.000 HD
ENDBRANCH   6  13
BRANCH   5  15
ATOM     15  O   UNL     1      76.465  48.586  35.571  0.00  0.00    -0.386 OA
ATOM     16  H   UNL     1      76.323  49.278  36.237  0.00  0.00    +0.000 HD
ENDBRANCH   5  15
BRANCH   4  17
ATOM     17  O   UNL     1      75.845  50.651  34.078  0.00  0.00    -0.386 OA
ATOM     18  H   UNL     1      76.290  50.363  33.266  0.00  0.00    +0.000 HD
ENDBRANCH   4  17
TORSDOF 6
ENDMDL
MODEL 8
REMARK VINA RESULT:    -4.574     22.745     24.200
REMARK INTER + INTRA:          -5.579
REMARK INTER:                  -5.510
REMARK INTRA:                  -0.068
REMARK UNBOUND:                -0.068
REMARK  Name = 
REMARK  7 active torsions:
REMARK  status: ('A' for Active; 'I' for Inactive)
REMARK    1  A    between atoms: C_1  and  O_2
REMARK    2  A    between atoms: O_2  and  C_3
REMARK    3  A    between atoms: C_4  and  O_5
REMARK    4  A    between atoms: C_6  and  O_7
REMARK    5  A    between atoms: C_8  and  O_13
REMARK    6  A    between atoms: C_9  and  O_12
REMARK    7  A    between atoms: C_10  and  O_11
REMARK                            x       y       z     vdW  Elec       q    Type
REMARK                         _______ _______ _______ _____ _____    ______ ____
ROOT
ATOM      1  C   UNL     1      97.203  65.517  42.274  0.00  0.00    +0.115 C 
ATOM      2  C   UNL     1      95.826  65.653  42.980  0.00  0.00    +0.112 C 
ATOM      3  C   UNL     1      95.961  65.444  44.505  0.00  0.00    +0.112 C 
ATOM      4  C   UNL     1      96.489  64.020  44.850  0.00  0.00    +0.112 C 
ATOM      5  C   UNL     1      97.322  63.393  43.702  0.00  0.00    +0.112 C 
ATOM      6  C   UNL     1      98.132  64.471  42.956  0.00  0.00    +0.112 C 
ENDROOT
BRANCH   1   8
ATOM      7  C   UNL     1      98.322  67.119  40.996  0.00  0.00    +0.037 C 
ATOM      8  O   UNL     1      97.868  66.773  42.286  0.00  0.00    -0.374 OA
ENDBRANCH   1   8
BRANCH   2   9
ATOM      9  O   UNL     1      95.276  66.919  42.710  0.00  0.00    -0.386 OA
ATOM     10  H   UNL     1      94.951  66.942  41.796  0.00  0.00    +0.000 HD
ENDBRANCH   2   9
BRANCH   3  11
ATOM     11  O   UNL     1      94.742  65.689  45.162  0.00  0.00    -0.386 OA
ATOM     12  H   UNL     1      94.602  65.015  45.844  0.00  0.00    +0.000 HD
ENDBRANCH   3  11
BRANCH   6  13
ATOM     13  O   UNL     1      98.948  63.861  41.991  0.00  0.00    -0.386 OA
ATOM     14  H   UNL     1      98.876  64.346  41.153  0.00  0.00    +0.000 HD
ENDBRANCH   6  13
BRANCH   5  15
ATOM     15  O   UNL     1      98.181  62.409  44.223  0.00  0.00    -0.386 OA
ATOM     16  H   UNL     1      98.420  62.639  45.135  0.00  0.00    +0.000 HD
ENDBRANCH   5  15
BRANCH   4  17
ATOM     17  O   UNL     1      97.264  64.084  46.022  0.00  0.00    -0.386 OA
ATOM     18  H   UNL     1      96.767  63.698  46.759  0.00  0.00    +0.000 HD
ENDBRANCH   4  17
TORSDOF 6
ENDMDL
MODEL 9
REMARK VINA RESULT:    -4.525     22.960     24.342
REMARK INTER + INTRA:          -5.519
REMARK INTER:                  -5.450
REMARK INTRA:                  -0.069
REMARK UNBOUND:                -0.068
REMARK  Name = 
REMARK  7 active torsions:
REMARK  status: ('A' for Active; 'I' for Inactive)
REMARK    1  A    between atoms: C_1  and  O_2
REMARK    2  A    between atoms: O_2  and  C_3
REMARK    3  A    between atoms: C_4  and  O_5
REMARK    4  A    between atoms: C_6  and  O_7
REMARK    5  A    between atoms: C_8  and  O_13
REMARK    6  A    between atoms: C_9  and  O_12
REMARK    7  A    between atoms: C_10  and  O_11
REMARK                            x       y       z     vdW  Elec       q    Type
REMARK                         _______ _______ _______ _____ _____    ______ ____
ROOT
ATOM      1  C   UNL     1      97.252  66.047  42.310  0.00  0.00    +0.115 C 
ATOM      2  C   UNL     1      97.903  65.037  43.295  0.00  0.00    +0.112 C 
ATOM      3  C   UNL     1      96.829  64.300  44.125  0.00  0.00    +0.112 C 
ATOM      4  C   UNL     1      95.995  65.284  44.998  0.00  0.00    +0.112 C 
ATOM      5  C   UNL     1      95.963  66.722  44.419  0.00  0.00    +0.112 C 
ATOM      6  C   UNL     1      95.957  66.696  42.879  0.00  0.00    +0.112 C 
ENDROOT
BRANCH   1   8
ATOM      7  C   UNL     1      97.440  66.068  39.983  0.00  0.00    +0.037 C 
ATOM      8  O   UNL     1      96.919  65.381  41.100  0.00  0.00    -0.374 OA
ENDBRANCH   1   8
BRANCH   2   9
ATOM      9  O   UNL     1      98.685  64.113  42.580  0.00  0.00    -0.386 OA
ATOM     10  H   UNL     1      99.095  63.488  43.199  0.00  0.00    +0.000 HD
ENDBRANCH   2   9
BRANCH   3  11
ATOM     11  O   UNL     1      97.404  63.298  44.927  0.00  0.00    -0.386 OA
ATOM     12  H   UNL     1      97.160  63.445  45.853  0.00  0.00    +0.000 HD
ENDBRANCH   3  11
BRANCH   6  13
ATOM     13  O   UNL     1      95.829  68.006  42.388  0.00  0.00    -0.386 OA
ATOM     14  H   UNL     1      94.920  68.317  42.530  0.00  0.00    +0.000 HD
ENDBRANCH   6  13
BRANCH   5  15
ATOM     15  O   UNL     1      94.830  67.401  44.901  0.00  0.00    -0.386 OA
ATOM     16  H   UNL     1      94.936  67.577  45.849  0.00  0.00    +0.000 HD
ENDBRANCH   5  15
BRANCH   4  17
ATOM     17  O   UNL     1      94.683  64.792  45.126  0.00  0.00    -0.386 OA
ATOM     18  H   UNL     1      94.111  65.224  44.473  0.00  0.00    +0.000 HD
ENDBRANCH   4  17
TORSDOF 6
ENDMDL
