MODEL 1
REMARK VINA RESULT:    -5.133      0.000      0.000
REMARK INTER + INTRA:          -6.226
REMARK INTER:                  -6.311
REMARK INTRA:                   0.085
REMARK UNBOUND:                -0.043
REMARK  Name = 
REMARK  7 active torsions:
REMARK  status: ('A' for Active; 'I' for Inactive)
REMARK    1  A    between atoms: C_1  and  O_2
REMARK    2  A    between atoms: O_2  and  C_3
REMARK    3  A    between atoms: C_4  and  O_5
REMARK    4  A    between atoms: C_6  and  O_7
REMARK    5  A    between atoms: C_8  and  O_13
REMARK    6  A    between atoms: C_9  and  O_12
REMARK    7  A    between atoms: C_10  and  O_11
REMARK                            x       y       z     vdW  Elec       q    Type
REMARK                         _______ _______ _______ _____ _____    ______ ____
ROOT
ATOM      1  C   UNL     1      86.246  56.180  44.400  0.00  0.00    +0.115 C 
ATOM      2  C   UNL     1      86.301  55.660  45.863  0.00  0.00    +0.112 C 
ATOM      3  C   UNL     1      84.914  55.753  46.537  0.00  0.00    +0.112 C 
ATOM      4  C   UNL     1      84.404  57.222  46.615  0.00  0.00    +0.112 C 
ATOM      5  C   UNL     1      85.018  58.130  45.518  0.00  0.00    +0.112 C 
ATOM      6  C   UNL     1      85.234  57.346  44.210  0.00  0.00    +0.112 C 
ENDROOT
BRANCH   1   8
ATOM      7  C   UNL     1      84.548  55.294  43.065  0.00  0.00    +0.037 C 
ATOM      8  O   UNL     1      85.867  55.119  43.534  0.00  0.00    -0.374 OA
ENDBRANCH   1   8
BRANCH   2   9
ATOM      9  O   UNL     1      86.762  54.332  45.879  0.00  0.00    -0.386 OA
ATOM     10  H   UNL     1      86.689  53.953  44.988  0.00  0.00    +0.000 HD
ENDBRANCH   2   9
BRANCH   3  11
ATOM     11  O   UNL     1      84.929  55.169  47.816  0.00  0.00    -0.386 OA
ATOM     12  H   UNL     1      84.530  55.779  48.454  0.00  0.00    +0.000 HD
ENDBRANCH   3  11
BRANCH   6  13
ATOM     13  O   UNL     1      85.697  58.217  43.211  0.00  0.00    -0.386 OA
ATOM     14  H   UNL     1      85.513  57.835  42.337  0.00  0.00    +0.000 HD
ENDBRANCH   6  13
BRANCH   5  15
ATOM     15  O   UNL     1      84.177  59.235  45.293  0.00  0.00    -0.386 OA
ATOM     16  H   UNL     1      83.434  59.209  45.917  0.00  0.00    +0.000 HD
ENDBRANCH   5  15
BRANCH   4  17
ATOM     17  O   UNL     1      83.001  57.233  46.512  0.00  0.00    -0.386 OA
ATOM     18  H   UNL     1      82.613  56.959  47.357  0.00  0.00    +0.000 HD
ENDBRANCH   4  17
TORSDOF 6
ENDMDL
MODEL 2
REMARK VINA RESULT:    -4.668      7.718      9.168
REMARK INTER + INTRA:          -5.666
REMARK INTER:                  -5.612
REMARK INTRA:                  -0.054
REMARK UNBOUND:                -0.043
REMARK  Name = 
REMARK  7 active torsions:
REMARK  status: ('A' for Active; 'I' for Inactive)
REMARK    1  A    between atoms: C_1  and  O_2
REMARK    2  A    between atoms: O_2  and  C_3
REMARK    3  A    between atoms: C_4  and  O_5
REMARK    4  A    between atoms: C_6  and  O_7
REMARK    5  A    between atoms: C_8  and  O_13
REMARK    6  A    between atoms: C_9  and  O_12
REMARK    7  A    between atoms: C_10  and  O_11
REMARK                            x       y       z     vdW  Elec       q    Type
REMARK                         _______ _______ _______ _____ _____    ______ ____
ROOT
ATOM      1  C   UNL     1      81.505  50.185  43.182  0.00  0.00    +0.115 C 
ATOM      2  C   UNL     1      82.616  49.309  43.824  0.00  0.00    +0.112 C 
ATOM      3  C   UNL     1      82.325  47.806  43.619  0.00  0.00    +0.112 C 
ATOM      4  C   UNL     1      80.988  47.376  44.292  0.00  0.00    +0.112 C 
ATOM      5  C   UNL     1      79.988  48.551  44.445  0.00  0.00    +0.112 C 
ATOM      6  C   UNL     1      80.098  49.527  43.257  0.00  0.00    +0.112 C 
ENDROOT
BRANCH   1   8
ATOM      7  C   UNL     1      81.895  51.797  41.538  0.00  0.00    +0.037 C 
ATOM      8  O   UNL     1      81.815  50.415  41.814  0.00  0.00    -0.374 OA
ENDBRANCH   1   8
BRANCH   2   9
ATOM      9  O   UNL     1      83.865  49.643  43.270  0.00  0.00    -0.386 OA
ATOM     10  H   UNL     1      83.902  50.599  43.108  0.00  0.00    +0.000 HD
ENDBRANCH   2   9
BRANCH   3  11
ATOM     11  O   UNL     1      83.389  47.013  44.087  0.00  0.00    -0.386 OA
ATOM     12  H   UNL     1      84.144  47.099  43.486  0.00  0.00    +0.000 HD
ENDBRANCH   3  11
BRANCH   6  13
ATOM     13  O   UNL     1      79.114  50.522  43.374  0.00  0.00    -0.386 OA
ATOM     14  H   UNL     1      79.078  50.835  44.292  0.00  0.00    +0.000 HD
ENDBRANCH   6  13
BRANCH   5  15
ATOM     15  O   UNL     1      78.679  48.048  44.545  0.00  0.00    -0.386 OA
ATOM     16  H   UNL     1      78.463  47.890  45.478  0.00  0.00    +0.000 HD
ENDBRANCH   5  15
BRANCH   4  17
ATOM     17  O   UNL     1      80.400  46.344  43.539  0.00  0.00    -0.386 OA
ATOM     18  H   UNL     1      79.582  46.667  43.133  0.00  0.00    +0.000 HD
ENDBRANCH   4  17
TORSDOF 6
ENDMDL
MODEL 3
REMARK VINA RESULT:    -4.660      5.633      7.658
REMARK INTER + INTRA:          -5.656
REMARK INTER:                  -5.588
REMARK INTRA:                  -0.068
REMARK UNBOUND:                -0.043
REMARK  Name = 
REMARK  7 active torsions:
REMARK  status: ('A' for Active; 'I' for Inactive)
REMARK    1  A    between atoms: C_1  and  O_2
REMARK    2  A    between atoms: O_2  and  C_3
REMARK    3  A    between atoms: C_4  and  O_5
REMARK    4  A    between atoms: C_6  and  O_7
REMARK    5  A    between atoms: C_8  and  O_13
REMARK    6  A    between atoms: C_9  and  O_12
REMARK    7  A    between atoms: C_10  and  O_11
REMARK                            x       y       z     vdW  Elec       q    Type
REMARK                         _______ _______ _______ _____ _____    ______ ____
ROOT
ATOM      1  C   UNL     1      86.737  51.623  41.283  0.00  0.00    +0.115 C 
ATOM      2  C   UNL     1      87.802  50.493  41.334  0.00  0.00    +0.112 C 
ATOM      3  C   UNL     1      89.232  51.075  41.272  0.00  0.00    +0.112 C 
ATOM      4  C   UNL     1      89.485  51.852  39.946  0.00  0.00    +0.112 C 
ATOM      5  C   UNL     1      88.180  52.401  39.313  0.00  0.00    +0.112 C 
ATOM      6  C   UNL     1      87.176  52.828  40.402  0.00  0.00    +0.112 C 
ENDROOT
BRANCH   1   8
ATOM      7  C   UNL     1      85.113  52.070  42.900  0.00  0.00    +0.037 C 
ATOM      8  O   UNL     1      86.491  52.102  42.598  0.00  0.00    -0.374 OA
ENDBRANCH   1   8
BRANCH   2   9
ATOM      9  O   UNL     1      87.636  49.736  42.508  0.00  0.00    -0.386 OA
ATOM     10  H   UNL     1      86.819  49.217  42.445  0.00  0.00    +0.000 HD
ENDBRANCH   2   9
BRANCH   3  11
ATOM     11  O   UNL     1      90.199  50.069  41.444  0.00  0.00    -0.386 OA
ATOM     12  H   UNL     1      90.557  50.115  42.343  0.00  0.00    +0.000 HD
ENDBRANCH   3  11
BRANCH   6  13
ATOM     13  O   UNL     1      86.049  53.410  39.800  0.00  0.00    -0.386 OA
ATOM     14  H   UNL     1      86.286  53.736  38.916  0.00  0.00    +0.000 HD
ENDBRANCH   6  13
BRANCH   5  15
ATOM     15  O   UNL     1      88.481  53.488  38.473  0.00  0.00    -0.386 OA
ATOM     16  H   UNL     1      89.369  53.820  38.681  0.00  0.00    +0.000 HD
ENDBRANCH   5  15
BRANCH   4  17
ATOM     17  O   UNL     1      90.378  52.911  40.191  0.00  0.00    -0.386 OA
ATOM     18  H   UNL     1      90.332  53.547  39.461  0.00  0.00    +0.000 HD
ENDBRANCH   4  17
TORSDOF 6
ENDMDL
MODEL 4
REMARK VINA RESULT:    -4.651      1.213      3.336
REMARK INTER + INTRA:          -5.645
REMARK INTER:                  -5.580
REMARK INTRA:                  -0.065
REMARK UNBOUND:                -0.043
REMARK  Name = 
REMARK  7 active torsions:
REMARK  status: ('A' for Active; 'I' for Inactive)
REMARK    1  A    between atoms: C_1  and  O_2
REMARK    2  A    between atoms: O_2  and  C_3
REMARK    3  A    between atoms: C_4  and  O_5
REMARK    4  A    between atoms: C_6  and  O_7
REMARK    5  A    between atoms: C_8  and  O_13
REMARK    6  A    between atoms: C_9  and  O_12
REMARK    7  A    between atoms: C_10  and  O_11
REMARK                            x       y       z     vdW  Elec       q    Type
REMARK                         _______ _______ _______ _____ _____    ______ ____
ROOT
ATOM      1  C   UNL     1      84.532  55.304  46.150  0.00  0.00    +0.115 C 
ATOM      2  C   UNL     1      85.046  54.646  44.840  0.00  0.00    +0.112 C 
ATOM      3  C   UNL     1      86.175  55.485  44.202  0.00  0.00    +0.112 C 
ATOM      4  C   UNL     1      85.687  56.911  43.810  0.00  0.00    +0.112 C 
ATOM      5  C   UNL     1      84.477  57.386  44.657  0.00  0.00    +0.112 C 
ATOM      6  C   UNL     1      84.574  56.859  46.101  0.00  0.00    +0.112 C 
ENDROOT
BRANCH   1   8
ATOM      7  C   UNL     1      84.529  54.437  48.317  0.00  0.00    +0.037 C 
ATOM      8  O   UNL     1      85.332  54.873  47.242  0.00  0.00    -0.374 OA
ENDBRANCH   1   8
BRANCH   2   9
ATOM      9  O   UNL     1      85.501  53.343  45.110  0.00  0.00    -0.386 OA
ATOM     10  H   UNL     1      85.599  52.855  44.276  0.00  0.00    +0.000 HD
ENDBRANCH   2   9
BRANCH   3  11
ATOM     11  O   UNL     1      86.728  54.831  43.087  0.00  0.00    -0.386 OA
ATOM     12  H   UNL     1      87.630  54.545  43.295  0.00  0.00    +0.000 HD
ENDBRANCH   3  11
BRANCH   6  13
ATOM     13  O   UNL     1      83.521  57.386  46.865  0.00  0.00    -0.386 OA
ATOM     14  H   UNL     1      83.019  58.021  46.330  0.00  0.00    +0.000 HD
ENDBRANCH   6  13
BRANCH   5  15
ATOM     15  O   UNL     1      84.419  58.791  44.652  0.00  0.00    -0.386 OA
ATOM     16  H   UNL     1      84.016  59.096  43.823  0.00  0.00    +0.000 HD
ENDBRANCH   5  15
BRANCH   4  17
ATOM     17  O   UNL     1      86.751  57.820  43.948  0.00  0.00    -0.386 OA
ATOM     18  H   UNL     1      87.328  57.762  43.171  0.00  0.00    +0.000 HD
ENDBRANCH   4  17
TORSDOF 6
ENDMDL
MODEL 5
REMARK VINA RESULT:    -4.484      1.436      3.858
REMARK INTER + INTRA:          -5.445
REMARK INTER:                  -5.380
REMARK INTRA:                  -0.065
REMARK UNBOUND:                -0.043
REMARK  Name = 
REMARK  7 active torsions:
REMARK  status: ('A' for Active; 'I' for Inactive)
REMARK    1  A    between atoms: C_1  and  O_2
REMARK    2  A    between atoms: O_2  and  C_3
REMARK    3  A    between atoms: C_4  and  O_5
REMARK    4  A    between atoms: C_6  and  O_7
REMARK    5  A    between atoms: C_8  and  O_13
REMARK    6  A    between atoms: C_9  and  O_12
REMARK    7  A    between atoms: C_10  and  O_11
REMARK                            x       y       z     vdW  Elec       q    Type
REMARK                         _______ _______ _______ _____ _____    ______ ____
ROOT
ATOM      1  C   UNL     1      85.284  54.905  46.381  0.00  0.00    +0.115 C 
ATOM      2  C   UNL     1      85.000  56.432  46.425  0.00  0.00    +0.112 C 
ATOM      3  C   UNL     1      84.586  56.959  45.033  0.00  0.00    +0.112 C 
ATOM      4  C   UNL     1      85.712  56.755  43.977  0.00  0.00    +0.112 C 
ATOM      5  C   UNL     1      86.664  55.584  44.332  0.00  0.00    +0.112 C 
ATOM      6  C   UNL     1      85.898  54.443  45.029  0.00  0.00    +0.112 C 
ENDROOT
BRANCH   1   8
ATOM      7  C   UNL     1      84.189  53.286  47.658  0.00  0.00    +0.037 C 
ATOM      8  O   UNL     1      84.071  54.192  46.584  0.00  0.00    -0.374 OA
ENDBRANCH   1   8
BRANCH   2   9
ATOM      9  O   UNL     1      83.992  56.702  47.367  0.00  0.00    -0.386 OA
ATOM     10  H   UNL     1      83.695  57.620  47.270  0.00  0.00    +0.000 HD
ENDBRANCH   2   9
BRANCH   3  11
ATOM     11  O   UNL     1      84.207  58.312  45.093  0.00  0.00    -0.386 OA
ATOM     12  H   UNL     1      84.626  58.731  45.861  0.00  0.00    +0.000 HD
ENDBRANCH   3  11
BRANCH   6  13
ATOM     13  O   UNL     1      86.765  53.360  45.247  0.00  0.00    -0.386 OA
ATOM     14  H   UNL     1      87.662  53.692  45.413  0.00  0.00    +0.000 HD
ENDBRANCH   6  13
BRANCH   5  15
ATOM     15  O   UNL     1      87.289  55.111  43.164  0.00  0.00    -0.386 OA
ATOM     16  H   UNL     1      87.848  54.348  43.383  0.00  0.00    +0.000 HD
ENDBRANCH   5  15
BRANCH   4  17
ATOM     17  O   UNL     1      85.130  56.531  42.716  0.00  0.00    -0.386 OA
ATOM     18  H   UNL     1      85.793  56.156  42.116  0.00  0.00    +0.000 HD
ENDBRANCH   4  17
TORSDOF 6
ENDMDL
MODEL 6
REMARK VINA RESULT:    -4.398      6.772      8.277
REMARK INTER + INTRA:          -5.340
REMARK INTER:                  -5.281
REMARK INTRA:                  -0.060
REMARK UNBOUND:                -0.043
REMARK  Name = 
REMARK  7 active torsions:
REMARK  status: ('A' for Active; 'I' for Inactive)
REMARK    1  A    between atoms: C_1  and  O_2
REMARK    2  A    between atoms: O_2  and  C_3
REMARK    3  A    between atoms: C_4  and  O_5
REMARK    4  A    between atoms: C_6  and  O_7
REMARK    5  A    between atoms: C_8  and  O_13
REMARK    6  A    between atoms: C_9  and  O_12
REMARK    7  A    between atoms: C_10  and  O_11
REMARK                            x       y       z     vdW  Elec       q    Type
REMARK                         _______ _______ _______ _____ _____    ______ ____
ROOT
ATOM      1  C   UNL     1      81.252  48.684  43.311  0.00  0.00    +0.115 C 
ATOM      2  C   UNL     1      82.785  48.453  43.204  0.00  0.00    +0.112 C 
ATOM      3  C   UNL     1      83.566  49.722  43.610  0.00  0.00    +0.112 C 
ATOM      4  C   UNL     1      83.241  50.927  42.678  0.00  0.00    +0.112 C 
ATOM      5  C   UNL     1      81.845  50.813  42.014  0.00  0.00    +0.112 C 
ATOM      6  C   UNL     1      80.835  50.142  42.965  0.00  0.00    +0.112 C 
ENDROOT
BRANCH   1   8
ATOM      7  C   UNL     1      79.805  47.424  44.641  0.00  0.00    +0.037 C 
ATOM      8  O   UNL     1      80.822  48.402  44.635  0.00  0.00    -0.374 OA
ENDBRANCH   1   8
BRANCH   2   9
ATOM      9  O   UNL     1      83.160  47.369  44.017  0.00  0.00    -0.386 OA
ATOM     10  H   UNL     1      82.677  47.412  44.858  0.00  0.00    +0.000 HD
ENDBRANCH   2   9
BRANCH   3  11
ATOM     11  O   UNL     1      84.952  49.480  43.636  0.00  0.00    -0.386 OA
ATOM     12  H   UNL     1      85.131  48.686  44.162  0.00  0.00    +0.000 HD
ENDBRANCH   3  11
BRANCH   6  13
ATOM     13  O   UNL     1      79.561  50.144  42.374  0.00  0.00    -0.386 OA
ATOM     14  H   UNL     1      79.651  50.229  41.411  0.00  0.00    +0.000 HD
ENDBRANCH   6  13
BRANCH   5  15
ATOM     15  O   UNL     1      81.392  52.091  41.642  0.00  0.00    -0.386 OA
ATOM     16  H   UNL     1      82.045  52.757  41.910  0.00  0.00    +0.000 HD
ENDBRANCH   5  15
BRANCH   4  17
ATOM     17  O   UNL     1      83.321  52.120  43.418  0.00  0.00    -0.386 OA
ATOM     18  H   UNL     1      83.097  52.870  42.847  0.00  0.00    +0.000 HD
ENDBRANCH   4  17
TORSDOF 6
ENDMDL
MODEL 7
REMARK VINA RESULT:    -4.367      1.669      2.368
REMARK INTER + INTRA:          -5.303
REMARK INTER:                  -5.234
REMARK INTRA:                  -0.069
REMARK UNBOUND:                -0.043
REMARK  Name = 
REMARK  7 active torsions:
REMARK  status: ('A' for Active; 'I' for Inactive)
REMARK    1  A    between atoms: C_1  and  O_2
REMARK    2  A    between atoms: O_2  and  C_3
REMARK    3  A    between atoms: C_4  and  O_5
REMARK    4  A    between atoms: C_6  and  O_7
REMARK    5  A    between atoms: C_8  and  O_13
REMARK    6  A    between atoms: C_9  and  O_12
REMARK    7  A    between atoms: C_10  and  O_11
REMARK                            x       y       z     vdW  Elec       q    Type
REMARK                         _______ _______ _______ _____ _____    ______ ____
ROOT
ATOM      1  C   UNL     1      85.497  54.118  44.862  0.00  0.00    +0.115 C 
ATOM      2  C   UNL     1      85.082  54.586  46.285  0.00  0.00    +0.112 C 
ATOM      3  C   UNL     1      84.250  55.886  46.221  0.00  0.00    +0.112 C 
ATOM      4  C   UNL     1      85.058  57.061  45.594  0.00  0.00    +0.112 C 
ATOM      5  C   UNL     1      86.185  56.577  44.646  0.00  0.00    +0.112 C 
ATOM      6  C   UNL     1      85.760  55.304  43.889  0.00  0.00    +0.112 C 
ENDROOT
BRANCH   1   8
ATOM      7  C   UNL     1      84.979  52.083  43.843  0.00  0.00    +0.037 C 
ATOM      8  O   UNL     1      84.466  53.312  44.309  0.00  0.00    -0.374 OA
ENDBRANCH   1   8
BRANCH   2   9
ATOM      9  O   UNL     1      84.349  53.570  46.924  0.00  0.00    -0.386 OA
ATOM     10  H   UNL     1      84.608  53.523  47.858  0.00  0.00    +0.000 HD
ENDBRANCH   2   9
BRANCH   3  11
ATOM     11  O   UNL     1      83.767  56.244  47.492  0.00  0.00    -0.386 OA
ATOM     12  H   UNL     1      84.442  56.050  48.160  0.00  0.00    +0.000 HD
ENDBRANCH   3  11
BRANCH   6  13
ATOM     13  O   UNL     1      86.760  54.949  42.969  0.00  0.00    -0.386 OA
ATOM     14  H   UNL     1      87.187  55.751  42.630  0.00  0.00    +0.000 HD
ENDBRANCH   6  13
BRANCH   5  15
ATOM     15  O   UNL     1      86.511  57.600  43.737  0.00  0.00    -0.386 OA
ATOM     16  H   UNL     1      87.048  58.272  44.186  0.00  0.00    +0.000 HD
ENDBRANCH   5  15
BRANCH   4  17
ATOM     17  O   UNL     1      84.178  57.908  44.896  0.00  0.00    -0.386 OA
ATOM     18  H   UNL     1      83.896  58.630  45.478  0.00  0.00    +0.000 HD
ENDBRANCH   4  17
TORSDOF 6
ENDMDL
MODEL 8
REMARK VINA RESULT:    -4.290      8.372      9.935
REMARK INTER + INTRA:          -5.211
REMARK INTER:                  -5.168
REMARK INTRA:                  -0.043
REMARK UNBOUND:                -0.043
REMARK  Name = 
REMARK  7 active torsions:
REMARK  status: ('A' for Active; 'I' for Inactive)
REMARK    1  A    between atoms: C_1  and  O_2
REMARK    2  A    between atoms: O_2  and  C_3
REMARK    3  A    between atoms: C_4  and  O_5
REMARK    4  A    between atoms: C_6  and  O_7
REMARK    5  A    between atoms: C_8  and  O_13
REMARK    6  A    between atoms: C_9  and  O_12
REMARK    7  A    between atoms: C_10  and  O_11
REMARK                            x       y       z     vdW  Elec       q    Type
REMARK                         _______ _______ _______ _____ _____    ______ ____
ROOT
ATOM      1  C   UNL     1      82.911  46.695  43.207  0.00  0.00    +0.115 C 
ATOM      2  C   UNL     1      84.195  45.821  43.162  0.00  0.00    +0.112 C 
ATOM      3  C   UNL     1      85.195  46.247  44.261  0.00  0.00    +0.112 C 
ATOM      4  C   UNL     1      85.663  47.721  44.079  0.00  0.00    +0.112 C 
ATOM      5  C   UNL     1      84.635  48.588  43.307  0.00  0.00    +0.112 C 
ATOM      6  C   UNL     1      83.193  48.162  43.643  0.00  0.00    +0.112 C 
ENDROOT
BRANCH   1   8
ATOM      7  C   UNL     1      80.680  46.128  43.594  0.00  0.00    +0.037 C 
ATOM      8  O   UNL     1      81.986  46.130  44.126  0.00  0.00    -0.374 OA
ENDBRANCH   1   8
BRANCH   2   9
ATOM      9  O   UNL     1      83.854  44.466  43.314  0.00  0.00    -0.386 OA
ATOM     10  H   UNL     1      84.623  43.913  43.103  0.00  0.00    +0.000 HD
ENDBRANCH   2   9
BRANCH   3  11
ATOM     11  O   UNL     1      86.302  45.381  44.305  0.00  0.00    -0.386 OA
ATOM     12  H   UNL     1      86.532  45.198  45.229  0.00  0.00    +0.000 HD
ENDBRANCH   3  11
BRANCH   6  13
ATOM     13  O   UNL     1      82.288  49.027  43.008  0.00  0.00    -0.386 OA
ATOM     14  H   UNL     1      81.454  48.559  42.842  0.00  0.00    +0.000 HD
ENDBRANCH   6  13
BRANCH   5  15
ATOM     15  O   UNL     1      84.829  49.945  43.621  0.00  0.00    -0.386 OA
ATOM     16  H   UNL     1      84.005  50.317  43.973  0.00  0.00    +0.000 HD
ENDBRANCH   5  15
BRANCH   4  17
ATOM     17  O   UNL     1      85.913  48.288  45.342  0.00  0.00    -0.386 OA
ATOM     18  H   UNL     1      86.757  47.957  45.684  0.00  0.00    +0.000 HD
ENDBRANCH   4  17
TORSDOF 6
ENDMDL
MODEL 9
REMARK VINA RESULT:    -4.279      1.910      3.885
REMARK INTER + INTRA:          -5.197
REMARK INTER:                  -5.131
REMARK INTRA:                  -0.066
REMARK UNBOUND:                -0.043
REMARK  Name = 
REMARK  7 active torsions:
REMARK  status: ('A' for Active; 'I' for Inactive)
REMARK    1  A    between atoms: C_1  and  O_2
REMARK    2  A    between atoms: O_2  and  C_3
REMARK    3  A    between atoms: C_4  and  O_5
REMARK    4  A    between atoms: C_6  and  O_7
REMARK    5  A    between atoms: C_8  and  O_13
REMARK    6  A    between atoms: C_9  and  O_12
REMARK    7  A    between atoms: C_10  and  O_11
REMARK                            x       y       z     vdW  Elec       q    Type
REMARK                         _______ _______ _______ _____ _____    ______ ____
ROOT
ATOM      1  C   UNL     1      84.900  54.268  42.887  0.00  0.00    +0.115 C 
ATOM      2  C   UNL     1      84.573  55.767  42.646  0.00  0.00    +0.112 C 
ATOM      3  C   UNL     1      85.393  56.673  43.591  0.00  0.00    +0.112 C 
ATOM      4  C   UNL     1      85.071  56.392  45.089  0.00  0.00    +0.112 C 
ATOM      5  C   UNL     1      84.544  54.954  45.330  0.00  0.00    +0.112 C 
ATOM      6  C   UNL     1      85.222  53.951  44.376  0.00  0.00    +0.112 C 
ENDROOT
BRANCH   1   8
ATOM      7  C   UNL     1      85.732  52.776  41.296  0.00  0.00    +0.037 C 
ATOM      8  O   UNL     1      86.025  53.896  42.102  0.00  0.00    -0.374 OA
ENDBRANCH   1   8
BRANCH   2   9
ATOM      9  O   UNL     1      84.832  56.101  41.305  0.00  0.00    -0.386 OA
ATOM     10  H   UNL     1      85.531  55.524  40.957  0.00  0.00    +0.000 HD
ENDBRANCH   2   9
BRANCH   3  11
ATOM     11  O   UNL     1      85.195  58.033  43.292  0.00  0.00    -0.386 OA
ATOM     12  H   UNL     1      84.252  58.246  43.368  0.00  0.00    +0.000 HD
ENDBRANCH   3  11
BRANCH   6  13
ATOM     13  O   UNL     1      84.798  52.648  44.686  0.00  0.00    -0.386 OA
ATOM     14  H   UNL     1      84.539  52.606  45.620  0.00  0.00    +0.000 HD
ENDBRANCH   6  13
BRANCH   5  15
ATOM     15  O   UNL     1      84.771  54.585  46.668  0.00  0.00    -0.386 OA
ATOM     16  H   UNL     1      84.026  54.052  46.988  0.00  0.00    +0.000 HD
ENDBRANCH   5  15
BRANCH   4  17
ATOM     17  O   UNL     1      86.225  56.613  45.861  0.00  0.00    -0.386 OA
ATOM     18  H   UNL     1      86.269  57.547  46.116  0.00  0.00    +0.000 HD
ENDBRANCH   4  17
TORSDOF 6
ENDMDL
