MODEL 1
REMARK VINA RESULT:    -8.747      0.000      0.000
REMARK INTER + INTRA:         -10.069
REMARK INTER:                  -9.767
REMARK INTRA:                  -0.302
REMARK UNBOUND:                -0.299
REMARK  Name = 
REMARK  6 active torsions:
REMARK  status: ('A' for Active; 'I' for Inactive)
REMARK    1  A    between atoms: C_1  and  C_2
REMARK    2  A    between atoms: C_2  and  C_3
REMARK    3  A    between atoms: C_12  and  C_16
REMARK    4  A    between atoms: C_16  and  C_17
REMARK    5  A    between atoms: C_19  and  C_20
REMARK    6  A    between atoms: C_19  and  C_21
REMARK                            x       y       z     vdW  Elec       q    Type
REMARK                         _______ _______ _______ _____ _____    ______ ____
ROOT
ATOM      1  C   UNL     1      83.608  54.610  47.394  0.00  0.00    -0.021 C 
ATOM      2  C   UNL     1      85.068  54.147  47.474  0.00  0.00    +0.124 C 
ATOM      3  C   UNL     1      85.985  55.348  47.734  0.00  0.00    -0.021 C 
ATOM      4  C   UNL     1      85.218  53.155  48.619  0.00  0.00    -0.041 C 
ATOM      5  C   UNL     1      85.969  52.054  48.510  0.00  0.00    -0.051 C 
ATOM      6  C   UNL     1      86.586  51.689  47.227  0.00  0.00    +0.019 A 
ATOM      7  C   UNL     1      86.276  52.464  46.094  0.00  0.00    +0.153 A 
ATOM      8  O   UNL     1      85.424  53.566  46.209  0.00  0.00    -0.480 OA
ATOM      9  C   UNL     1      86.822  52.087  44.869  0.00  0.00    +0.090 A 
ATOM     10  N   UNL     1      86.632  52.671  43.672  0.00  0.00    -0.358 N 
ATOM     11  C   UNL     1      87.347  51.943  42.784  0.00  0.00    +0.006 A 
ATOM     12  C   UNL     1      88.004  50.900  43.428  0.00  0.00    -0.020 A 
ATOM     13  C   UNL     1      87.649  50.999  44.759  0.00  0.00    +0.007 A 
ATOM     14  C   UNL     1      87.977  50.207  45.862  0.00  0.00    -0.052 A 
ATOM     15  C   UNL     1      87.433  50.562  47.111  0.00  0.00    -0.050 A 
ATOM     16  H   UNL     1      86.084  53.467  43.482  0.00  0.00    +0.000 HD
ENDROOT
BRANCH  12  17
ATOM     17  C   UNL     1      88.834  49.832  42.783  0.00  0.00    +0.003 C 
BRANCH  17  18
ATOM     18  C   UNL     1      87.957  48.619  42.449  0.00  0.00    +0.092 C 
ATOM     19  O   UNL     1      87.931  48.349  41.061  0.00  0.00    -0.365 OA
ATOM     20  C   UNL     1      88.605  47.409  41.868  0.00  0.00    +0.091 C 
ATOM     21  C   UNL     1      90.114  47.376  41.600  0.00  0.00    -0.034 C 
ATOM     22  C   UNL     1      87.848  46.085  41.972  0.00  0.00    -0.034 C 
ENDBRANCH  17  18
ENDBRANCH  12  17
TORSDOF 2
ENDMDL
MODEL 2
REMARK VINA RESULT:    -8.316      1.660      7.399
REMARK INTER + INTRA:          -9.587
REMARK INTER:                  -9.361
REMARK INTRA:                  -0.227
REMARK UNBOUND:                -0.299
REMARK  Name = 
REMARK  6 active torsions:
REMARK  status: ('A' for Active; 'I' for Inactive)
REMARK    1  A    between atoms: C_1  and  C_2
REMARK    2  A    between atoms: C_2  and  C_3
REMARK    3  A    between atoms: C_12  and  C_16
REMARK    4  A    between atoms: C_16  and  C_17
REMARK    5  A    between atoms: C_19  and  C_20
REMARK    6  A    between atoms: C_19  and  C_21
REMARK                            x       y       z     vdW  Elec       q    Type
REMARK                         _______ _______ _______ _____ _____    ______ ____
ROOT
ATOM      1  C   UNL     1      90.177  46.945  42.416  0.00  0.00    -0.021 C 
ATOM      2  C   UNL     1      90.352  48.432  42.750  0.00  0.00    +0.124 C 
ATOM      3  C   UNL     1      91.596  48.628  43.625  0.00  0.00    -0.021 C 
ATOM      4  C   UNL     1      90.528  49.220  41.460  0.00  0.00    -0.041 C 
ATOM      5  C   UNL     1      89.944  50.406  41.268  0.00  0.00    -0.051 C 
ATOM      6  C   UNL     1      88.999  50.947  42.255  0.00  0.00    +0.019 A 
ATOM      7  C   UNL     1      88.640  50.137  43.348  0.00  0.00    +0.153 A 
ATOM      8  O   UNL     1      89.199  48.864  43.491  0.00  0.00    -0.480 OA
ATOM      9  C   UNL     1      87.705  50.630  44.256  0.00  0.00    +0.090 A 
ATOM     10  N   UNL     1      87.211  50.010  45.343  0.00  0.00    -0.358 N 
ATOM     11  C   UNL     1      86.326  50.873  45.894  0.00  0.00    +0.006 A 
ATOM     12  C   UNL     1      86.272  52.051  45.155  0.00  0.00    -0.020 A 
ATOM     13  C   UNL     1      87.151  51.875  44.105  0.00  0.00    +0.007 A 
ATOM     14  C   UNL     1      87.482  52.705  43.032  0.00  0.00    -0.052 A 
ATOM     15  C   UNL     1      88.419  52.228  42.096  0.00  0.00    -0.050 A 
ATOM     16  H   UNL     1      87.447  49.112  45.671  0.00  0.00    +0.000 HD
ENDROOT
BRANCH  12  17
ATOM     17  C   UNL     1      85.362  53.216  45.398  0.00  0.00    +0.003 C 
BRANCH  17  18
ATOM     18  C   UNL     1      84.929  53.245  46.869  0.00  0.00    +0.092 C 
ATOM     19  O   UNL     1      85.997  53.593  47.730  0.00  0.00    -0.365 OA
ATOM     20  C   UNL     1      84.964  54.545  47.598  0.00  0.00    +0.091 C 
ATOM     21  C   UNL     1      85.430  55.827  46.899  0.00  0.00    -0.034 C 
ATOM     22  C   UNL     1      84.121  54.664  48.867  0.00  0.00    -0.034 C 
ENDBRANCH  17  18
ENDBRANCH  12  17
TORSDOF 2
ENDMDL
MODEL 3
REMARK VINA RESULT:    -8.196      2.044      2.433
REMARK INTER + INTRA:          -9.453
REMARK INTER:                  -9.137
REMARK INTRA:                  -0.316
REMARK UNBOUND:                -0.299
REMARK  Name = 
REMARK  6 active torsions:
REMARK  status: ('A' for Active; 'I' for Inactive)
REMARK    1  A    between atoms: C_1  and  C_2
REMARK    2  A    between atoms: C_2  and  C_3
REMARK    3  A    between atoms: C_12  and  C_16
REMARK    4  A    between atoms: C_16  and  C_17
REMARK    5  A    between atoms: C_19  and  C_20
REMARK    6  A    between atoms: C_19  and  C_21
REMARK                            x       y       z     vdW  Elec       q    Type
REMARK                         _______ _______ _______ _____ _____    ______ ____
ROOT
ATOM      1  C   UNL     1      84.483  56.274  43.108  0.00  0.00    -0.021 C 
ATOM      2  C   UNL     1      85.597  55.651  43.959  0.00  0.00    +0.124 C 
ATOM      3  C   UNL     1      86.672  56.701  44.263  0.00  0.00    -0.021 C 
ATOM      4  C   UNL     1      85.008  55.154  45.271  0.00  0.00    -0.041 C 
ATOM      5  C   UNL     1      85.374  53.991  45.818  0.00  0.00    -0.051 C 
ATOM      6  C   UNL     1      86.278  53.077  45.104  0.00  0.00    +0.019 A 
ATOM      7  C   UNL     1      86.657  53.405  43.789  0.00  0.00    +0.153 A 
ATOM      8  O   UNL     1      86.198  54.588  43.202  0.00  0.00    -0.480 OA
ATOM      9  C   UNL     1      87.472  52.513  43.096  0.00  0.00    +0.090 A 
ATOM     10  N   UNL     1      87.921  52.625  41.832  0.00  0.00    -0.358 N 
ATOM     11  C   UNL     1      88.656  51.513  41.598  0.00  0.00    +0.006 A 
ATOM     12  C   UNL     1      88.681  50.701  42.727  0.00  0.00    -0.020 A 
ATOM     13  C   UNL     1      87.910  51.349  43.672  0.00  0.00    +0.007 A 
ATOM     14  C   UNL     1      87.553  50.991  44.974  0.00  0.00    -0.052 A 
ATOM     15  C   UNL     1      86.724  51.871  45.694  0.00  0.00    -0.050 A 
ATOM     16  H   UNL     1      87.751  53.366  41.206  0.00  0.00    +0.000 HD
ENDROOT
BRANCH  12  17
ATOM     17  C   UNL     1      89.323  49.353  42.844  0.00  0.00    +0.003 C 
BRANCH  17  18
ATOM     18  C   UNL     1      88.310  48.258  42.487  0.00  0.00    +0.092 C 
ATOM     19  O   UNL     1      88.432  47.840  41.141  0.00  0.00    -0.365 OA
ATOM     20  C   UNL     1      88.820  46.905  42.123  0.00  0.00    +0.091 C 
ATOM     21  C   UNL     1      90.325  46.612  42.097  0.00  0.00    -0.034 C 
ATOM     22  C   UNL     1      87.845  45.733  42.226  0.00  0.00    -0.034 C 
ENDBRANCH  17  18
ENDBRANCH  12  17
TORSDOF 2
ENDMDL
MODEL 4
REMARK VINA RESULT:    -7.770      1.534      2.680
REMARK INTER + INTRA:          -8.977
REMARK INTER:                  -8.690
REMARK INTRA:                  -0.287
REMARK UNBOUND:                -0.299
REMARK  Name = 
REMARK  6 active torsions:
REMARK  status: ('A' for Active; 'I' for Inactive)
REMARK    1  A    between atoms: C_1  and  C_2
REMARK    2  A    between atoms: C_2  and  C_3
REMARK    3  A    between atoms: C_12  and  C_16
REMARK    4  A    between atoms: C_16  and  C_17
REMARK    5  A    between atoms: C_19  and  C_20
REMARK    6  A    between atoms: C_19  and  C_21
REMARK                            x       y       z     vdW  Elec       q    Type
REMARK                         _______ _______ _______ _____ _____    ______ ____
ROOT
ATOM      1  C   UNL     1      85.981  55.314  47.718  0.00  0.00    -0.021 C 
ATOM      2  C   UNL     1      85.539  54.610  46.430  0.00  0.00    +0.124 C 
ATOM      3  C   UNL     1      84.091  54.125  46.569  0.00  0.00    -0.021 C 
ATOM      4  C   UNL     1      85.621  55.589  45.268  0.00  0.00    -0.041 C 
ATOM      5  C   UNL     1      86.083  55.229  44.067  0.00  0.00    -0.051 C 
ATOM      6  C   UNL     1      86.653  53.891  43.851  0.00  0.00    +0.019 A 
ATOM      7  C   UNL     1      86.802  53.042  44.964  0.00  0.00    +0.153 A 
ATOM      8  O   UNL     1      86.387  53.467  46.230  0.00  0.00    -0.480 OA
ATOM      9  C   UNL     1      87.388  51.794  44.768  0.00  0.00    +0.090 A 
ATOM     10  N   UNL     1      87.644  50.854  45.694  0.00  0.00    -0.358 N 
ATOM     11  C   UNL     1      88.233  49.830  45.034  0.00  0.00    +0.006 A 
ATOM     12  C   UNL     1      88.338  50.123  43.678  0.00  0.00    -0.020 A 
ATOM     13  C   UNL     1      87.804  51.387  43.526  0.00  0.00    +0.007 A 
ATOM     14  C   UNL     1      87.673  52.203  42.400  0.00  0.00    -0.052 A 
ATOM     15  C   UNL     1      87.090  53.473  42.572  0.00  0.00    -0.050 A 
ATOM     16  H   UNL     1      87.441  50.900  46.657  0.00  0.00    +0.000 HD
ENDROOT
BRANCH  12  17
ATOM     17  C   UNL     1      88.996  49.280  42.630  0.00  0.00    +0.003 C 
BRANCH  17  18
ATOM     18  C   UNL     1      88.099  48.086  42.280  0.00  0.00    +0.092 C 
ATOM     19  O   UNL     1      88.397  47.555  41.002  0.00  0.00    -0.365 OA
ATOM     20  C   UNL     1      88.730  46.746  42.108  0.00  0.00    +0.091 C 
ATOM     21  C   UNL     1      90.243  46.561  42.270  0.00  0.00    -0.034 C 
ATOM     22  C   UNL     1      87.823  45.521  42.223  0.00  0.00    -0.034 C 
ENDBRANCH  17  18
ENDBRANCH  12  17
TORSDOF 2
ENDMDL
MODEL 5
REMARK VINA RESULT:    -7.685      3.576      4.433
REMARK INTER + INTRA:          -8.882
REMARK INTER:                  -8.593
REMARK INTRA:                  -0.288
REMARK UNBOUND:                -0.299
REMARK  Name = 
REMARK  6 active torsions:
REMARK  status: ('A' for Active; 'I' for Inactive)
REMARK    1  A    between atoms: C_1  and  C_2
REMARK    2  A    between atoms: C_2  and  C_3
REMARK    3  A    between atoms: C_12  and  C_16
REMARK    4  A    between atoms: C_16  and  C_17
REMARK    5  A    between atoms: C_19  and  C_20
REMARK    6  A    between atoms: C_19  and  C_21
REMARK                            x       y       z     vdW  Elec       q    Type
REMARK                         _______ _______ _______ _____ _____    ______ ____
ROOT
ATOM      1  C   UNL     1      83.875  55.129  39.456  0.00  0.00    -0.021 C 
ATOM      2  C   UNL     1      84.036  54.645  40.902  0.00  0.00    +0.124 C 
ATOM      3  C   UNL     1      84.083  55.847  41.853  0.00  0.00    -0.021 C 
ATOM      4  C   UNL     1      82.849  53.768  41.274  0.00  0.00    -0.041 C 
ATOM      5  C   UNL     1      82.991  52.647  41.987  0.00  0.00    -0.051 C 
ATOM      6  C   UNL     1      84.327  52.145  42.340  0.00  0.00    +0.019 A 
ATOM      7  C   UNL     1      85.450  52.810  41.814  0.00  0.00    +0.153 A 
ATOM      8  O   UNL     1      85.281  53.935  41.001  0.00  0.00    -0.480 OA
ATOM      9  C   UNL     1      86.714  52.303  42.108  0.00  0.00    +0.090 A 
ATOM     10  N   UNL     1      87.903  52.770  41.686  0.00  0.00    -0.358 N 
ATOM     11  C   UNL     1      88.836  51.944  42.212  0.00  0.00    +0.006 A 
ATOM     12  C   UNL     1      88.231  50.956  42.982  0.00  0.00    -0.020 A 
ATOM     13  C   UNL     1      86.873  51.193  42.896  0.00  0.00    +0.007 A 
ATOM     14  C   UNL     1      85.782  50.507  43.433  0.00  0.00    -0.052 A 
ATOM     15  C   UNL     1      84.493  50.994  43.146  0.00  0.00    -0.050 A 
ATOM     16  H   UNL     1      88.061  53.555  41.112  0.00  0.00    +0.000 HD
ENDROOT
BRANCH  12  17
ATOM     17  C   UNL     1      88.915  49.813  43.667  0.00  0.00    +0.003 C 
BRANCH  17  18
ATOM     18  C   UNL     1      89.040  48.625  42.705  0.00  0.00    +0.092 C 
ATOM     19  O   UNL     1      90.017  48.850  41.708  0.00  0.00    -0.365 OA
ATOM     20  C   UNL     1      90.322  47.866  42.671  0.00  0.00    +0.091 C 
ATOM     21  C   UNL     1      91.497  48.265  43.571  0.00  0.00    -0.034 C 
ATOM     22  C   UNL     1      90.291  46.454  42.088  0.00  0.00    -0.034 C 
ENDBRANCH  17  18
ENDBRANCH  12  17
TORSDOF 2
ENDMDL
MODEL 6
REMARK VINA RESULT:    -7.668      2.612      3.522
REMARK INTER + INTRA:          -8.863
REMARK INTER:                  -8.469
REMARK INTRA:                  -0.394
REMARK UNBOUND:                -0.299
REMARK  Name = 
REMARK  6 active torsions:
REMARK  status: ('A' for Active; 'I' for Inactive)
REMARK    1  A    between atoms: C_1  and  C_2
REMARK    2  A    between atoms: C_2  and  C_3
REMARK    3  A    between atoms: C_12  and  C_16
REMARK    4  A    between atoms: C_16  and  C_17
REMARK    5  A    between atoms: C_19  and  C_20
REMARK    6  A    between atoms: C_19  and  C_21
REMARK                            x       y       z     vdW  Elec       q    Type
REMARK                         _______ _______ _______ _____ _____    ______ ____
ROOT
ATOM      1  C   UNL     1      84.420  53.991  49.094  0.00  0.00    -0.021 C 
ATOM      2  C   UNL     1      84.279  54.675  47.728  0.00  0.00    +0.124 C 
ATOM      3  C   UNL     1      82.834  55.146  47.525  0.00  0.00    -0.021 C 
ATOM      4  C   UNL     1      85.204  55.882  47.673  0.00  0.00    -0.041 C 
ATOM      5  C   UNL     1      85.913  56.184  46.582  0.00  0.00    -0.051 C 
ATOM      6  C   UNL     1      85.925  55.283  45.421  0.00  0.00    +0.019 A 
ATOM      7  C   UNL     1      85.262  54.046  45.530  0.00  0.00    +0.153 A 
ATOM      8  O   UNL     1      84.592  53.711  46.710  0.00  0.00    -0.480 OA
ATOM      9  C   UNL     1      85.317  53.171  44.446  0.00  0.00    +0.090 A 
ATOM     10  N   UNL     1      84.779  51.942  44.358  0.00  0.00    -0.358 N 
ATOM     11  C   UNL     1      85.111  51.477  43.131  0.00  0.00    +0.006 A 
ATOM     12  C   UNL     1      85.852  52.427  42.436  0.00  0.00    -0.020 A 
ATOM     13  C   UNL     1      85.985  53.500  43.295  0.00  0.00    +0.007 A 
ATOM     14  C   UNL     1      86.654  54.718  43.153  0.00  0.00    -0.052 A 
ATOM     15  C   UNL     1      86.621  55.617  44.235  0.00  0.00    -0.050 A 
ATOM     16  H   UNL     1      84.250  51.475  45.046  0.00  0.00    +0.000 HD
ENDROOT
BRANCH  12  17
ATOM     17  C   UNL     1      86.467  52.264  41.080  0.00  0.00    +0.003 C 
BRANCH  17  18
ATOM     18  C   UNL     1      87.442  51.080  41.087  0.00  0.00    +0.092 C 
ATOM     19  O   UNL     1      88.291  51.087  39.955  0.00  0.00    -0.365 OA
ATOM     20  C   UNL     1      88.902  51.360  41.196  0.00  0.00    +0.091 C 
ATOM     21  C   UNL     1      89.423  52.798  41.293  0.00  0.00    -0.034 C 
ATOM     22  C   UNL     1      89.806  50.219  41.662  0.00  0.00    -0.034 C 
ENDBRANCH  17  18
ENDBRANCH  12  17
TORSDOF 2
ENDMDL
MODEL 7
REMARK VINA RESULT:    -7.598      5.256      7.214
REMARK INTER + INTRA:          -8.785
REMARK INTER:                  -8.278
REMARK INTRA:                  -0.507
REMARK UNBOUND:                -0.299
REMARK  Name = 
REMARK  6 active torsions:
REMARK  status: ('A' for Active; 'I' for Inactive)
REMARK    1  A    between atoms: C_1  and  C_2
REMARK    2  A    between atoms: C_2  and  C_3
REMARK    3  A    between atoms: C_12  and  C_16
REMARK    4  A    between atoms: C_16  and  C_17
REMARK    5  A    between atoms: C_19  and  C_20
REMARK    6  A    between atoms: C_19  and  C_21
REMARK                            x       y       z     vdW  Elec       q    Type
REMARK                         _______ _______ _______ _____ _____    ______ ____
ROOT
ATOM      1  C   UNL     1      80.387  47.156  45.456  0.00  0.00    -0.021 C 
ATOM      2  C   UNL     1      80.795  47.706  44.085  0.00  0.00    +0.124 C 
ATOM      3  C   UNL     1      81.060  46.548  43.115  0.00  0.00    -0.021 C 
ATOM      4  C   UNL     1      79.668  48.565  43.531  0.00  0.00    -0.041 C 
ATOM      5  C   UNL     1      79.900  49.719  42.898  0.00  0.00    -0.051 C 
ATOM      6  C   UNL     1      81.259  50.273  42.820  0.00  0.00    +0.019 A 
ATOM      7  C   UNL     1      82.288  49.617  43.521  0.00  0.00    +0.153 A 
ATOM      8  O   UNL     1      82.012  48.453  44.246  0.00  0.00    -0.480 OA
ATOM      9  C   UNL     1      83.566  50.171  43.487  0.00  0.00    +0.090 A 
ATOM     10  N   UNL     1      84.672  49.719  44.106  0.00  0.00    -0.358 N 
ATOM     11  C   UNL     1      85.656  50.593  43.795  0.00  0.00    +0.006 A 
ATOM     12  C   UNL     1      85.170  51.596  42.962  0.00  0.00    -0.020 A 
ATOM     13  C   UNL     1      83.829  51.318  42.785  0.00  0.00    +0.007 A 
ATOM     14  C   UNL     1      82.833  51.996  42.079  0.00  0.00    -0.052 A 
ATOM     15  C   UNL     1      81.531  51.461  42.102  0.00  0.00    -0.050 A 
ATOM     16  H   UNL     1      84.749  48.915  44.670  0.00  0.00    +0.000 HD
ENDROOT
BRANCH  12  17
ATOM     17  C   UNL     1      85.928  52.786  42.460  0.00  0.00    +0.003 C 
BRANCH  17  18
ATOM     18  C   UNL     1      85.649  54.001  43.354  0.00  0.00    +0.092 C 
ATOM     19  O   UNL     1      86.357  55.148  42.926  0.00  0.00    -0.365 OA
ATOM     20  C   UNL     1      84.956  55.180  42.760  0.00  0.00    +0.091 C 
ATOM     21  C   UNL     1      84.537  55.186  41.285  0.00  0.00    -0.034 C 
ATOM     22  C   UNL     1      84.281  56.158  43.720  0.00  0.00    -0.034 C 
ENDBRANCH  17  18
ENDBRANCH  12  17
TORSDOF 2
ENDMDL
MODEL 8
REMARK VINA RESULT:    -7.590      3.653      4.211
REMARK INTER + INTRA:          -8.776
REMARK INTER:                  -8.488
REMARK INTRA:                  -0.288
REMARK UNBOUND:                -0.299
REMARK  Name = 
REMARK  6 active torsions:
REMARK  status: ('A' for Active; 'I' for Inactive)
REMARK    1  A    between atoms: C_1  and  C_2
REMARK    2  A    between atoms: C_2  and  C_3
REMARK    3  A    between atoms: C_12  and  C_16
REMARK    4  A    between atoms: C_16  and  C_17
REMARK    5  A    between atoms: C_19  and  C_20
REMARK    6  A    between atoms: C_19  and  C_21
REMARK                            x       y       z     vdW  Elec       q    Type
REMARK                         _______ _______ _______ _____ _____    ______ ____
ROOT
ATOM      1  C   UNL     1      84.499  57.649  45.478  0.00  0.00    -0.021 C 
ATOM      2  C   UNL     1      85.494  56.495  45.310  0.00  0.00    +0.124 C 
ATOM      3  C   UNL     1      86.631  56.917  44.372  0.00  0.00    -0.021 C 
ATOM      4  C   UNL     1      86.082  56.136  46.667  0.00  0.00    -0.041 C 
ATOM      5  C   UNL     1      86.281  54.870  47.043  0.00  0.00    -0.051 C 
ATOM      6  C   UNL     1      85.820  53.756  46.202  0.00  0.00    +0.019 A 
ATOM      7  C   UNL     1      85.068  54.056  45.051  0.00  0.00    +0.153 A 
ATOM      8  O   UNL     1      84.800  55.386  44.716  0.00  0.00    -0.480 OA
ATOM      9  C   UNL     1      84.588  52.998  44.282  0.00  0.00    +0.090 A 
ATOM     10  N   UNL     1      83.834  53.068  43.170  0.00  0.00    -0.358 N 
ATOM     11  C   UNL     1      83.604  51.788  42.794  0.00  0.00    +0.006 A 
ATOM     12  C   UNL     1      84.229  50.905  43.669  0.00  0.00    -0.020 A 
ATOM     13  C   UNL     1      84.844  51.694  44.621  0.00  0.00    +0.007 A 
ATOM     14  C   UNL     1      85.585  51.360  45.757  0.00  0.00    -0.052 A 
ATOM     15  C   UNL     1      86.076  52.410  46.555  0.00  0.00    -0.050 A 
ATOM     16  H   UNL     1      83.516  53.884  42.721  0.00  0.00    +0.000 HD
ENDROOT
BRANCH  12  17
ATOM     17  C   UNL     1      84.151  49.410  43.637  0.00  0.00    +0.003 C 
BRANCH  17  18
ATOM     18  C   UNL     1      82.697  48.958  43.815  0.00  0.00    +0.092 C 
ATOM     19  O   UNL     1      82.083  48.645  42.579  0.00  0.00    -0.365 OA
ATOM     20  C   UNL     1      82.333  47.560  43.445  0.00  0.00    +0.091 C 
ATOM     21  C   UNL     1      83.386  46.594  42.890  0.00  0.00    -0.034 C 
ATOM     22  C   UNL     1      81.049  46.985  44.040  0.00  0.00    -0.034 C 
ENDBRANCH  17  18
ENDBRANCH  12  17
TORSDOF 2
ENDMDL
MODEL 9
REMARK VINA RESULT:    -7.489      4.304      5.440
REMARK INTER + INTRA:          -8.663
REMARK INTER:                  -8.364
REMARK INTRA:                  -0.299
REMARK UNBOUND:                -0.299
REMARK  Name = 
REMARK  6 active torsions:
REMARK  status: ('A' for Active; 'I' for Inactive)
REMARK    1  A    between atoms: C_1  and  C_2
REMARK    2  A    between atoms: C_2  and  C_3
REMARK    3  A    between atoms: C_12  and  C_16
REMARK    4  A    between atoms: C_16  and  C_17
REMARK    5  A    between atoms: C_19  and  C_20
REMARK    6  A    between atoms: C_19  and  C_21
REMARK                            x       y       z     vdW  Elec       q    Type
REMARK                         _______ _______ _______ _____ _____    ______ ____
ROOT
ATOM      1  C   UNL     1      84.300  55.251  40.033  0.00  0.00    -0.021 C 
ATOM      2  C   UNL     1      83.651  54.611  41.266  0.00  0.00    +0.124 C 
ATOM      3  C   UNL     1      83.806  55.536  42.479  0.00  0.00    -0.021 C 
ATOM      4  C   UNL     1      82.168  54.395  40.998  0.00  0.00    -0.041 C 
ATOM      5  C   UNL     1      81.532  53.285  41.381  0.00  0.00    -0.051 C 
ATOM      6  C   UNL     1      82.272  52.161  41.973  0.00  0.00    +0.019 A 
ATOM      7  C   UNL     1      83.676  52.240  42.023  0.00  0.00    +0.153 A 
ATOM      8  O   UNL     1      84.332  53.377  41.542  0.00  0.00    -0.480 OA
ATOM      9  C   UNL     1      84.380  51.153  42.539  0.00  0.00    +0.090 A 
ATOM     10  N   UNL     1      85.713  51.018  42.648  0.00  0.00    -0.358 N 
ATOM     11  C   UNL     1      85.921  49.793  43.185  0.00  0.00    +0.006 A 
ATOM     12  C   UNL     1      84.707  49.157  43.428  0.00  0.00    -0.020 A 
ATOM     13  C   UNL     1      83.732  50.036  42.998  0.00  0.00    +0.007 A 
ATOM     14  C   UNL     1      82.341  49.923  42.963  0.00  0.00    -0.052 A 
ATOM     15  C   UNL     1      81.606  51.004  42.441  0.00  0.00    -0.050 A 
ATOM     16  H   UNL     1      86.399  51.676  42.391  0.00  0.00    +0.000 HD
ENDROOT
BRANCH  12  17
ATOM     17  C   UNL     1      84.516  47.765  43.946  0.00  0.00    +0.003 C 
BRANCH  17  18
ATOM     18  C   UNL     1      85.837  46.990  43.865  0.00  0.00    +0.092 C 
ATOM     19  O   UNL     1      85.753  45.731  44.504  0.00  0.00    -0.365 OA
ATOM     20  C   UNL     1      85.868  45.712  43.098  0.00  0.00    +0.091 C 
ATOM     21  C   UNL     1      84.608  45.176  42.409  0.00  0.00    -0.034 C 
ATOM     22  C   UNL     1      87.232  45.202  42.635  0.00  0.00    -0.034 C 
ENDBRANCH  17  18
ENDBRANCH  12  17
TORSDOF 2
ENDMDL
