MODEL 1
REMARK VINA RESULT:    -8.506      0.000      0.000
REMARK INTER + INTRA:          -9.733
REMARK INTER:                  -9.430
REMARK INTRA:                  -0.303
REMARK UNBOUND:                -0.233
REMARK  Name = 
REMARK  6 active torsions:
REMARK  status: ('A' for Active; 'I' for Inactive)
REMARK    1  A    between atoms: C_1  and  C_2
REMARK    2  A    between atoms: C_2  and  C_3
REMARK    3  A    between atoms: C_12  and  C_16
REMARK    4  A    between atoms: C_16  and  C_17
REMARK    5  A    between atoms: C_19  and  C_20
REMARK    6  A    between atoms: C_19  and  C_21
REMARK                            x       y       z     vdW  Elec       q    Type
REMARK                         _______ _______ _______ _____ _____    ______ ____
ROOT
ATOM      1  C   UNL     1      83.691  54.578  47.564  0.00  0.00    -0.021 C 
ATOM      2  C   UNL     1      85.148  54.107  47.627  0.00  0.00    +0.124 C 
ATOM      3  C   UNL     1      86.081  55.313  47.797  0.00  0.00    -0.021 C 
ATOM      4  C   UNL     1      85.325  53.176  48.818  0.00  0.00    -0.041 C 
ATOM      5  C   UNL     1      86.064  52.065  48.748  0.00  0.00    -0.051 C 
ATOM      6  C   UNL     1      86.642  51.628  47.469  0.00  0.00    +0.019 A 
ATOM      7  C   UNL     1      86.306  52.344  46.305  0.00  0.00    +0.153 A 
ATOM      8  O   UNL     1      85.464  53.457  46.386  0.00  0.00    -0.480 OA
ATOM      9  C   UNL     1      86.814  51.898  45.087  0.00  0.00    +0.090 A 
ATOM     10  N   UNL     1      86.593  52.419  43.867  0.00  0.00    -0.358 N 
ATOM     11  C   UNL     1      87.278  51.639  42.999  0.00  0.00    +0.006 A 
ATOM     12  C   UNL     1      87.946  50.626  43.679  0.00  0.00    -0.020 A 
ATOM     13  C   UNL     1      87.630  50.798  45.012  0.00  0.00    +0.007 A 
ATOM     14  C   UNL     1      87.983  50.064  46.146  0.00  0.00    -0.052 A 
ATOM     15  C   UNL     1      87.478  50.489  47.389  0.00  0.00    -0.050 A 
ATOM     16  H   UNL     1      86.046  53.208  43.650  0.00  0.00    +0.000 HD
ENDROOT
BRANCH  12  17
ATOM     17  C   UNL     1      88.749  49.519  43.069  0.00  0.00    +0.003 C 
BRANCH  17  18
ATOM     18  C   UNL     1      87.843  48.318  42.770  0.00  0.00    +0.092 C 
ATOM     19  O   UNL     1      87.858  47.970  41.399  0.00  0.00    -0.365 OA
ATOM     20  C   UNL     1      88.468  47.056  42.282  0.00  0.00    +0.091 C 
ATOM     21  C   UNL     1      89.984  46.957  42.075  0.00  0.00    -0.034 C 
ATOM     22  C   UNL     1      87.662  45.766  42.431  0.00  0.00    -0.034 C 
ENDBRANCH  17  18
ENDBRANCH  12  17
TORSDOF 2
ENDMDL
MODEL 2
REMARK VINA RESULT:    -8.410      1.666      7.479
REMARK INTER + INTRA:          -9.626
REMARK INTER:                  -9.347
REMARK INTRA:                  -0.280
REMARK UNBOUND:                -0.233
REMARK  Name = 
REMARK  6 active torsions:
REMARK  status: ('A' for Active; 'I' for Inactive)
REMARK    1  A    between atoms: C_1  and  C_2
REMARK    2  A    between atoms: C_2  and  C_3
REMARK    3  A    between atoms: C_12  and  C_16
REMARK    4  A    between atoms: C_16  and  C_17
REMARK    5  A    between atoms: C_19  and  C_20
REMARK    6  A    between atoms: C_19  and  C_21
REMARK                            x       y       z     vdW  Elec       q    Type
REMARK                         _______ _______ _______ _____ _____    ______ ____
ROOT
ATOM      1  C   UNL     1      89.887  46.799  42.815  0.00  0.00    -0.021 C 
ATOM      2  C   UNL     1      90.135  48.304  42.973  0.00  0.00    +0.124 C 
ATOM      3  C   UNL     1      91.464  48.543  43.700  0.00  0.00    -0.021 C 
ATOM      4  C   UNL     1      90.203  48.951  41.597  0.00  0.00    -0.041 C 
ATOM      5  C   UNL     1      89.635  50.132  41.339  0.00  0.00    -0.051 C 
ATOM      6  C   UNL     1      88.806  50.804  42.350  0.00  0.00    +0.019 A 
ATOM      7  C   UNL     1      88.536  50.123  43.551  0.00  0.00    +0.153 A 
ATOM      8  O   UNL     1      89.073  48.851  43.772  0.00  0.00    -0.480 OA
ATOM      9  C   UNL     1      87.709  50.741  44.488  0.00  0.00    +0.090 A 
ATOM     10  N   UNL     1      87.309  50.253  45.675  0.00  0.00    -0.358 N 
ATOM     11  C   UNL     1      86.506  51.198  46.216  0.00  0.00    +0.006 A 
ATOM     12  C   UNL     1      86.410  52.297  45.367  0.00  0.00    -0.020 A 
ATOM     13  C   UNL     1      87.176  51.983  44.261  0.00  0.00    +0.007 A 
ATOM     14  C   UNL     1      87.422  52.687  43.080  0.00  0.00    -0.052 A 
ATOM     15  C   UNL     1      88.248  52.083  42.114  0.00  0.00    -0.050 A 
ATOM     16  H   UNL     1      87.552  49.385  46.072  0.00  0.00    +0.000 HD
ENDROOT
BRANCH  12  17
ATOM     17  C   UNL     1      85.561  53.513  45.572  0.00  0.00    +0.003 C 
BRANCH  17  18
ATOM     18  C   UNL     1      85.056  53.561  47.019  0.00  0.00    +0.092 C 
ATOM     19  O   UNL     1      85.971  54.211  47.880  0.00  0.00    -0.365 OA
ATOM     20  C   UNL     1      84.759  54.889  47.628  0.00  0.00    +0.091 C 
ATOM     21  C   UNL     1      84.961  56.183  46.832  0.00  0.00    -0.034 C 
ATOM     22  C   UNL     1      83.845  54.914  48.852  0.00  0.00    -0.034 C 
ENDBRANCH  17  18
ENDBRANCH  12  17
TORSDOF 2
ENDMDL
MODEL 3
REMARK VINA RESULT:    -8.240      1.987      2.416
REMARK INTER + INTRA:          -9.436
REMARK INTER:                  -9.117
REMARK INTRA:                  -0.319
REMARK UNBOUND:                -0.233
REMARK  Name = 
REMARK  6 active torsions:
REMARK  status: ('A' for Active; 'I' for Inactive)
REMARK    1  A    between atoms: C_1  and  C_2
REMARK    2  A    between atoms: C_2  and  C_3
REMARK    3  A    between atoms: C_12  and  C_16
REMARK    4  A    between atoms: C_16  and  C_17
REMARK    5  A    between atoms: C_19  and  C_20
REMARK    6  A    between atoms: C_19  and  C_21
REMARK                            x       y       z     vdW  Elec       q    Type
REMARK                         _______ _______ _______ _____ _____    ______ ____
ROOT
ATOM      1  C   UNL     1      84.128  56.458  43.556  0.00  0.00    -0.021 C 
ATOM      2  C   UNL     1      85.357  55.890  44.276  0.00  0.00    +0.124 C 
ATOM      3  C   UNL     1      86.440  56.969  44.394  0.00  0.00    -0.021 C 
ATOM      4  C   UNL     1      84.957  55.438  45.673  0.00  0.00    -0.041 C 
ATOM      5  C   UNL     1      85.417  54.304  46.211  0.00  0.00    -0.051 C 
ATOM      6  C   UNL     1      86.238  53.377  45.421  0.00  0.00    +0.019 A 
ATOM      7  C   UNL     1      86.434  53.656  44.055  0.00  0.00    +0.153 A 
ATOM      8  O   UNL     1      85.876  54.806  43.488  0.00  0.00    -0.480 OA
ATOM      9  C   UNL     1      87.170  52.750  43.296  0.00  0.00    +0.090 A 
ATOM     10  N   UNL     1      87.446  52.816  41.981  0.00  0.00    -0.358 N 
ATOM     11  C   UNL     1      88.168  51.708  41.695  0.00  0.00    +0.006 A 
ATOM     12  C   UNL     1      88.359  50.943  42.842  0.00  0.00    -0.020 A 
ATOM     13  C   UNL     1      87.705  51.617  43.854  0.00  0.00    +0.007 A 
ATOM     14  C   UNL     1      87.530  51.308  45.204  0.00  0.00    -0.052 A 
ATOM     15  C   UNL     1      86.783  52.203  45.994  0.00  0.00    -0.050 A 
ATOM     16  H   UNL     1      87.179  53.528  41.354  0.00  0.00    +0.000 HD
ENDROOT
BRANCH  12  17
ATOM     17  C   UNL     1      89.040  49.612  42.925  0.00  0.00    +0.003 C 
BRANCH  17  18
ATOM     18  C   UNL     1      88.028  48.489  42.666  0.00  0.00    +0.092 C 
ATOM     19  O   UNL     1      88.023  48.081  41.311  0.00  0.00    -0.365 OA
ATOM     20  C   UNL     1      88.537  47.153  42.242  0.00  0.00    +0.091 C 
ATOM     21  C   UNL     1      90.038  46.905  42.060  0.00  0.00    -0.034 C 
ATOM     22  C   UNL     1      87.611  45.953  42.435  0.00  0.00    -0.034 C 
ENDBRANCH  17  18
ENDBRANCH  12  17
TORSDOF 2
ENDMDL
MODEL 4
REMARK VINA RESULT:    -8.197      4.548      7.626
REMARK INTER + INTRA:          -9.389
REMARK INTER:                  -9.121
REMARK INTRA:                  -0.268
REMARK UNBOUND:                -0.233
REMARK  Name = 
REMARK  6 active torsions:
REMARK  status: ('A' for Active; 'I' for Inactive)
REMARK    1  A    between atoms: C_1  and  C_2
REMARK    2  A    between atoms: C_2  and  C_3
REMARK    3  A    between atoms: C_12  and  C_16
REMARK    4  A    between atoms: C_16  and  C_17
REMARK    5  A    between atoms: C_19  and  C_20
REMARK    6  A    between atoms: C_19  and  C_21
REMARK                            x       y       z     vdW  Elec       q    Type
REMARK                         _______ _______ _______ _____ _____    ______ ____
ROOT
ATOM      1  C   UNL     1      90.904  48.560  43.704  0.00  0.00    -0.021 C 
ATOM      2  C   UNL     1      89.851  48.001  42.739  0.00  0.00    +0.124 C 
ATOM      3  C   UNL     1      89.954  48.712  41.384  0.00  0.00    -0.021 C 
ATOM      4  C   UNL     1      90.095  46.513  42.535  0.00  0.00    -0.041 C 
ATOM      5  C   UNL     1      89.094  45.630  42.485  0.00  0.00    -0.051 C 
ATOM      6  C   UNL     1      87.710  46.047  42.750  0.00  0.00    +0.019 A 
ATOM      7  C   UNL     1      87.481  47.372  43.168  0.00  0.00    +0.153 A 
ATOM      8  O   UNL     1      88.552  48.262  43.294  0.00  0.00    -0.480 OA
ATOM      9  C   UNL     1      86.175  47.752  43.467  0.00  0.00    +0.090 A 
ATOM     10  N   UNL     1      85.750  48.951  43.905  0.00  0.00    -0.358 N 
ATOM     11  C   UNL     1      84.413  48.834  44.074  0.00  0.00    +0.006 A 
ATOM     12  C   UNL     1      83.989  47.555  43.727  0.00  0.00    -0.020 A 
ATOM     13  C   UNL     1      85.130  46.872  43.353  0.00  0.00    +0.007 A 
ATOM     14  C   UNL     1      85.320  45.551  42.943  0.00  0.00    -0.052 A 
ATOM     15  C   UNL     1      86.631  45.138  42.640  0.00  0.00    -0.050 A 
ATOM     16  H   UNL     1      86.300  49.751  44.068  0.00  0.00    +0.000 HD
ENDROOT
BRANCH  12  17
ATOM     17  C   UNL     1      82.599  47.011  43.845  0.00  0.00    +0.003 C 
BRANCH  17  18
ATOM     18  C   UNL     1      81.631  48.131  44.248  0.00  0.00    +0.092 C 
ATOM     19  O   UNL     1      80.376  48.003  43.608  0.00  0.00    -0.365 OA
ATOM     20  C   UNL     1      80.396  47.771  45.000  0.00  0.00    +0.091 C 
ATOM     21  C   UNL     1      80.090  46.312  45.359  0.00  0.00    -0.034 C 
ATOM     22  C   UNL     1      79.698  48.882  45.783  0.00  0.00    -0.034 C 
ENDBRANCH  17  18
ENDBRANCH  12  17
TORSDOF 2
ENDMDL
MODEL 5
REMARK VINA RESULT:    -8.175      6.190      9.329
REMARK INTER + INTRA:          -9.364
REMARK INTER:                  -9.105
REMARK INTRA:                  -0.259
REMARK UNBOUND:                -0.233
REMARK  Name = 
REMARK  6 active torsions:
REMARK  status: ('A' for Active; 'I' for Inactive)
REMARK    1  A    between atoms: C_1  and  C_2
REMARK    2  A    between atoms: C_2  and  C_3
REMARK    3  A    between atoms: C_12  and  C_16
REMARK    4  A    between atoms: C_16  and  C_17
REMARK    5  A    between atoms: C_19  and  C_20
REMARK    6  A    between atoms: C_19  and  C_21
REMARK                            x       y       z     vdW  Elec       q    Type
REMARK                         _______ _______ _______ _____ _____    ______ ____
ROOT
ATOM      1  C   UNL     1      85.398  44.072  42.254  0.00  0.00    -0.021 C 
ATOM      2  C   UNL     1      85.158  45.074  43.390  0.00  0.00    +0.124 C 
ATOM      3  C   UNL     1      85.360  44.387  44.746  0.00  0.00    -0.021 C 
ATOM      4  C   UNL     1      86.150  46.221  43.267  0.00  0.00    -0.041 C 
ATOM      5  C   UNL     1      85.796  47.492  43.476  0.00  0.00    -0.051 C 
ATOM      6  C   UNL     1      84.390  47.851  43.715  0.00  0.00    +0.019 A 
ATOM      7  C   UNL     1      83.417  46.840  43.607  0.00  0.00    +0.153 A 
ATOM      8  O   UNL     1      83.798  45.529  43.306  0.00  0.00    -0.480 OA
ATOM      9  C   UNL     1      82.080  47.191  43.784  0.00  0.00    +0.090 A 
ATOM     10  N   UNL     1      81.004  46.389  43.696  0.00  0.00    -0.358 N 
ATOM     11  C   UNL     1      79.930  47.179  43.925  0.00  0.00    +0.006 A 
ATOM     12  C   UNL     1      80.334  48.488  44.173  0.00  0.00    -0.020 A 
ATOM     13  C   UNL     1      81.711  48.480  44.067  0.00  0.00    +0.007 A 
ATOM     14  C   UNL     1      82.649  49.508  44.180  0.00  0.00    -0.052 A 
ATOM     15  C   UNL     1      84.007  49.183  43.999  0.00  0.00    -0.050 A 
ATOM     16  H   UNL     1      80.998  45.423  43.505  0.00  0.00    +0.000 HD
ENDROOT
BRANCH  12  17
ATOM     17  C   UNL     1      79.443  49.671  44.396  0.00  0.00    +0.003 C 
BRANCH  17  18
ATOM     18  C   UNL     1      78.308  49.297  45.357  0.00  0.00    +0.092 C 
ATOM     19  O   UNL     1      78.033  50.332  46.281  0.00  0.00    -0.365 OA
ATOM     20  C   UNL     1      77.043  50.084  45.307  0.00  0.00    +0.091 C 
ATOM     21  C   UNL     1      76.878  51.249  44.324  0.00  0.00    -0.034 C 
ATOM     22  C   UNL     1      75.790  49.443  45.904  0.00  0.00    -0.034 C 
ENDBRANCH  17  18
ENDBRANCH  12  17
TORSDOF 2
ENDMDL
MODEL 6
REMARK VINA RESULT:    -7.682      1.530      2.714
REMARK INTER + INTRA:          -8.814
REMARK INTER:                  -8.542
REMARK INTRA:                  -0.272
REMARK UNBOUND:                -0.233
REMARK  Name = 
REMARK  6 active torsions:
REMARK  status: ('A' for Active; 'I' for Inactive)
REMARK    1  A    between atoms: C_1  and  C_2
REMARK    2  A    between atoms: C_2  and  C_3
REMARK    3  A    between atoms: C_12  and  C_16
REMARK    4  A    between atoms: C_16  and  C_17
REMARK    5  A    between atoms: C_19  and  C_20
REMARK    6  A    between atoms: C_19  and  C_21
REMARK                            x       y       z     vdW  Elec       q    Type
REMARK                         _______ _______ _______ _____ _____    ______ ____
ROOT
ATOM      1  C   UNL     1      86.043  55.458  47.782  0.00  0.00    -0.021 C 
ATOM      2  C   UNL     1      85.531  54.727  46.535  0.00  0.00    +0.124 C 
ATOM      3  C   UNL     1      84.088  54.261  46.758  0.00  0.00    -0.021 C 
ATOM      4  C   UNL     1      85.565  55.676  45.346  0.00  0.00    -0.041 C 
ATOM      5  C   UNL     1      85.964  55.281  44.133  0.00  0.00    -0.051 C 
ATOM      6  C   UNL     1      86.509  53.932  43.925  0.00  0.00    +0.019 A 
ATOM      7  C   UNL     1      86.705  53.110  45.050  0.00  0.00    +0.153 A 
ATOM      8  O   UNL     1      86.357  53.570  46.323  0.00  0.00    -0.480 OA
ATOM      9  C   UNL     1      87.269  51.851  44.857  0.00  0.00    +0.090 A 
ATOM     10  N   UNL     1      87.561  50.931  45.794  0.00  0.00    -0.358 N 
ATOM     11  C   UNL     1      88.108  49.885  45.132  0.00  0.00    +0.006 A 
ATOM     12  C   UNL     1      88.148  50.143  43.765  0.00  0.00    -0.020 A 
ATOM     13  C   UNL     1      87.619  51.408  43.607  0.00  0.00    +0.007 A 
ATOM     14  C   UNL     1      87.440  52.197  42.469  0.00  0.00    -0.052 A 
ATOM     15  C   UNL     1      86.878  53.477  42.636  0.00  0.00    -0.050 A 
ATOM     16  H   UNL     1      87.408  51.003  46.764  0.00  0.00    +0.000 HD
ENDROOT
BRANCH  12  17
ATOM     17  C   UNL     1      88.746  49.266  42.708  0.00  0.00    +0.003 C 
BRANCH  17  18
ATOM     18  C   UNL     1      87.919  47.982  42.564  0.00  0.00    +0.092 C 
ATOM     19  O   UNL     1      87.963  47.468  41.246  0.00  0.00    -0.365 OA
ATOM     20  C   UNL     1      88.626  46.712  42.235  0.00  0.00    +0.091 C 
ATOM     21  C   UNL     1      90.146  46.685  42.036  0.00  0.00    -0.034 C 
ATOM     22  C   UNL     1      87.903  45.402  42.545  0.00  0.00    -0.034 C 
ENDBRANCH  17  18
ENDBRANCH  12  17
TORSDOF 2
ENDMDL
MODEL 7
REMARK VINA RESULT:    -7.637      4.322      7.647
REMARK INTER + INTRA:          -8.763
REMARK INTER:                  -8.355
REMARK INTRA:                  -0.408
REMARK UNBOUND:                -0.233
REMARK  Name = 
REMARK  6 active torsions:
REMARK  status: ('A' for Active; 'I' for Inactive)
REMARK    1  A    between atoms: C_1  and  C_2
REMARK    2  A    between atoms: C_2  and  C_3
REMARK    3  A    between atoms: C_12  and  C_16
REMARK    4  A    between atoms: C_16  and  C_17
REMARK    5  A    between atoms: C_19  and  C_20
REMARK    6  A    between atoms: C_19  and  C_21
REMARK                            x       y       z     vdW  Elec       q    Type
REMARK                         _______ _______ _______ _____ _____    ______ ____
ROOT
ATOM      1  C   UNL     1      84.596  56.322  38.712  0.00  0.00    -0.021 C 
ATOM      2  C   UNL     1      84.186  55.389  39.857  0.00  0.00    +0.124 C 
ATOM      3  C   UNL     1      82.670  55.156  39.826  0.00  0.00    -0.021 C 
ATOM      4  C   UNL     1      84.893  54.051  39.694  0.00  0.00    -0.041 C 
ATOM      5  C   UNL     1      85.409  53.389  40.733  0.00  0.00    -0.051 C 
ATOM      6  C   UNL     1      85.425  53.990  42.074  0.00  0.00    +0.019 A 
ATOM      7  C   UNL     1      84.986  55.320  42.214  0.00  0.00    +0.153 A 
ATOM      8  O   UNL     1      84.524  56.027  41.099  0.00  0.00    -0.480 OA
ATOM      9  C   UNL     1      85.048  55.906  43.476  0.00  0.00    +0.090 A 
ATOM     10  N   UNL     1      84.707  57.162  43.815  0.00  0.00    -0.358 N 
ATOM     11  C   UNL     1      84.959  57.273  45.140  0.00  0.00    +0.006 A 
ATOM     12  C   UNL     1      85.450  56.072  45.643  0.00  0.00    -0.020 A 
ATOM     13  C   UNL     1      85.513  55.212  44.564  0.00  0.00    +0.007 A 
ATOM     14  C   UNL     1      85.957  53.893  44.462  0.00  0.00    -0.052 A 
ATOM     15  C   UNL     1      85.911  53.278  43.196  0.00  0.00    -0.050 A 
ATOM     16  H   UNL     1      84.346  57.859  43.220  0.00  0.00    +0.000 HD
ENDROOT
BRANCH  12  17
ATOM     17  C   UNL     1      85.916  55.814  47.042  0.00  0.00    +0.003 C 
BRANCH  17  18
ATOM     18  C   UNL     1      84.736  55.361  47.911  0.00  0.00    +0.092 C 
ATOM     19  O   UNL     1      83.946  54.381  47.265  0.00  0.00    -0.365 OA
ATOM     20  C   UNL     1      84.695  53.946  48.378  0.00  0.00    +0.091 C 
ATOM     21  C   UNL     1      85.803  52.958  47.994  0.00  0.00    -0.034 C 
ATOM     22  C   UNL     1      83.810  53.626  49.583  0.00  0.00    -0.034 C 
ENDBRANCH  17  18
ENDBRANCH  12  17
TORSDOF 2
ENDMDL
MODEL 8
REMARK VINA RESULT:    -7.617      3.655      4.440
REMARK INTER + INTRA:          -8.741
REMARK INTER:                  -8.464
REMARK INTRA:                  -0.277
REMARK UNBOUND:                -0.233
REMARK  Name = 
REMARK  6 active torsions:
REMARK  status: ('A' for Active; 'I' for Inactive)
REMARK    1  A    between atoms: C_1  and  C_2
REMARK    2  A    between atoms: C_2  and  C_3
REMARK    3  A    between atoms: C_12  and  C_16
REMARK    4  A    between atoms: C_16  and  C_17
REMARK    5  A    between atoms: C_19  and  C_20
REMARK    6  A    between atoms: C_19  and  C_21
REMARK                            x       y       z     vdW  Elec       q    Type
REMARK                         _______ _______ _______ _____ _____    ______ ____
ROOT
ATOM      1  C   UNL     1      83.559  55.009  39.583  0.00  0.00    -0.021 C 
ATOM      2  C   UNL     1      83.894  54.566  41.012  0.00  0.00    +0.124 C 
ATOM      3  C   UNL     1      84.310  55.780  41.852  0.00  0.00    -0.021 C 
ATOM      4  C   UNL     1      82.664  53.929  41.642  0.00  0.00    -0.041 C 
ATOM      5  C   UNL     1      82.743  52.832  42.401  0.00  0.00    -0.051 C 
ATOM      6  C   UNL     1      84.017  52.117  42.557  0.00  0.00    +0.019 A 
ATOM      7  C   UNL     1      85.123  52.550  41.802  0.00  0.00    +0.153 A 
ATOM      8  O   UNL     1      85.001  53.652  40.950  0.00  0.00    -0.480 OA
ATOM      9  C   UNL     1      86.316  51.841  41.913  0.00  0.00    +0.090 A 
ATOM     10  N   UNL     1      87.471  52.072  41.263  0.00  0.00    -0.358 N 
ATOM     11  C   UNL     1      88.333  51.117  41.681  0.00  0.00    +0.006 A 
ATOM     12  C   UNL     1      87.720  50.284  42.613  0.00  0.00    -0.020 A 
ATOM     13  C   UNL     1      86.427  50.754  42.741  0.00  0.00    +0.007 A 
ATOM     14  C   UNL     1      85.352  50.295  43.504  0.00  0.00    -0.052 A 
ATOM     15  C   UNL     1      84.131  50.990  43.405  0.00  0.00    -0.050 A 
ATOM     16  H   UNL     1      87.653  52.792  40.615  0.00  0.00    +0.000 HD
ENDROOT
BRANCH  12  17
ATOM     17  C   UNL     1      88.316  49.069  43.253  0.00  0.00    +0.003 C 
BRANCH  17  18
ATOM     18  C   UNL     1      87.644  47.805  42.703  0.00  0.00    +0.092 C 
ATOM     19  O   UNL     1      88.010  47.551  41.360  0.00  0.00    -0.365 OA
ATOM     20  C   UNL     1      88.503  46.647  42.324  0.00  0.00    +0.091 C 
ATOM     21  C   UNL     1      90.027  46.715  42.473  0.00  0.00    -0.034 C 
ATOM     22  C   UNL     1      87.835  45.275  42.228  0.00  0.00    -0.034 C 
ENDBRANCH  17  18
ENDBRANCH  12  17
TORSDOF 2
ENDMDL
MODEL 9
REMARK VINA RESULT:    -7.536      1.923      7.461
REMARK INTER + INTRA:          -8.651
REMARK INTER:                  -8.417
REMARK INTRA:                  -0.233
REMARK UNBOUND:                -0.233
REMARK  Name = 
REMARK  6 active torsions:
REMARK  status: ('A' for Active; 'I' for Inactive)
REMARK    1  A    between atoms: C_1  and  C_2
REMARK    2  A    between atoms: C_2  and  C_3
REMARK    3  A    between atoms: C_12  and  C_16
REMARK    4  A    between atoms: C_16  and  C_17
REMARK    5  A    between atoms: C_19  and  C_20
REMARK    6  A    between atoms: C_19  and  C_21
REMARK                            x       y       z     vdW  Elec       q    Type
REMARK                         _______ _______ _______ _____ _____    ______ ____
ROOT
ATOM      1  C   UNL     1      85.173  44.055  42.466  0.00  0.00    -0.021 C 
ATOM      2  C   UNL     1      86.354  44.753  43.150  0.00  0.00    +0.124 C 
ATOM      3  C   UNL     1      86.767  43.974  44.405  0.00  0.00    -0.021 C 
ATOM      4  C   UNL     1      87.533  44.803  42.190  0.00  0.00    -0.041 C 
ATOM      5  C   UNL     1      88.312  45.883  42.077  0.00  0.00    -0.051 C 
ATOM      6  C   UNL     1      87.982  47.125  42.792  0.00  0.00    +0.019 A 
ATOM      7  C   UNL     1      86.771  47.181  43.507  0.00  0.00    +0.153 A 
ATOM      8  O   UNL     1      85.929  46.067  43.548  0.00  0.00    -0.480 OA
ATOM      9  C   UNL     1      86.436  48.375  44.143  0.00  0.00    +0.090 A 
ATOM     10  N   UNL     1      85.323  48.644  44.848  0.00  0.00    -0.358 N 
ATOM     11  C   UNL     1      85.438  49.930  45.251  0.00  0.00    +0.006 A 
ATOM     12  C   UNL     1      86.640  50.473  44.807  0.00  0.00    -0.020 A 
ATOM     13  C   UNL     1      87.261  49.469  44.090  0.00  0.00    +0.007 A 
ATOM     14  C   UNL     1      88.469  49.449  43.390  0.00  0.00    -0.052 A 
ATOM     15  C   UNL     1      88.829  48.257  42.732  0.00  0.00    -0.050 A 
ATOM     16  H   UNL     1      84.577  48.029  45.034  0.00  0.00    +0.000 HD
ENDROOT
BRANCH  12  17
ATOM     17  C   UNL     1      87.102  51.886  44.983  0.00  0.00    +0.003 C 
BRANCH  17  18
ATOM     18  C   UNL     1      86.756  52.378  46.394  0.00  0.00    +0.092 C 
ATOM     19  O   UNL     1      86.870  53.784  46.509  0.00  0.00    -0.365 OA
ATOM     20  C   UNL     1      85.563  53.255  46.572  0.00  0.00    +0.091 C 
ATOM     21  C   UNL     1      84.703  53.666  45.372  0.00  0.00    -0.034 C 
ATOM     22  C   UNL     1      84.964  53.355  47.974  0.00  0.00    -0.034 C 
ENDBRANCH  17  18
ENDBRANCH  12  17
TORSDOF 2
ENDMDL
