MODEL 1
REMARK VINA RESULT:    -6.286      0.000      0.000
REMARK INTER + INTRA:         -11.220
REMARK INTER:                  -9.792
REMARK INTRA:                  -1.428
REMARK UNBOUND:                -1.259
REMARK  Name = 
REMARK  16 active torsions:
REMARK  status: ('A' for Active; 'I' for Inactive)
REMARK    1  A    between atoms: C_1  and  O_2
REMARK    2  A    between atoms: O_2  and  C_3
REMARK    3  A    between atoms: C_3  and  C_5
REMARK    4  A    between atoms: C_6  and  C_7
REMARK    5  A    between atoms: C_7  and  C_8
REMARK    6  A    between atoms: C_8  and  C_9
REMARK    7  A    between atoms: C_10  and  C_11
REMARK    8  A    between atoms: C_10  and  C_20
REMARK    9  A    between atoms: C_11  and  C_12
REMARK   10  A    between atoms: C_12  and  C_13
REMARK   11  A    between atoms: C_12  and  C_19
REMARK   12  A    between atoms: C_13  and  C_14
REMARK   13  A    between atoms: C_13  and  O_18
REMARK   14  A    between atoms: C_14  and  O_15
REMARK   15  A    between atoms: C_14  and  C_16
REMARK   16  A    between atoms: C_14  and  C_17
REMARK                            x       y       z     vdW  Elec       q    Type
REMARK                         _______ _______ _______ _____ _____    ______ ____
ROOT
ATOM      1  C   UNL     1      86.343  52.388  46.391  0.00  0.00    -0.085 C 
ATOM      2  C   UNL     1      85.672  52.911  47.443  0.00  0.00    -0.076 C 
ATOM      3  C   UNL     1      85.746  52.301  48.823  0.00  0.00    -0.044 C 
ENDROOT
BRANCH   1   4
ATOM      4  C   UNL     1      87.204  51.150  46.448  0.00  0.00    -0.031 C 
BRANCH   4   5
ATOM      5  C   UNL     1      87.674  50.729  45.052  0.00  0.00    -0.031 C 
BRANCH   5   7
ATOM      6  C   UNL     1      88.087  51.793  42.853  0.00  0.00    +0.019 C 
ATOM      7  C   UNL     1      87.617  51.891  44.101  0.00  0.00    -0.077 C 
BRANCH   6   8
ATOM      8  C   UNL     1      88.073  52.931  41.922  0.00  0.00    +0.331 C 
ATOM      9  O   UNL     1      89.140  53.253  41.335  0.00  0.00    -0.246 OA
BRANCH   8  11
ATOM     10  C   UNL     1      85.775  53.106  41.018  0.00  0.00    +0.082 C 
ATOM     11  O   UNL     1      86.895  53.654  41.702  0.00  0.00    -0.465 OA
ENDBRANCH   8  11
ENDBRANCH   6   8
ENDBRANCH   5   7
ENDBRANCH   4   5
ENDBRANCH   1   4
BRANCH   2  12
ATOM     12  C   UNL     1      84.805  54.137  47.224  0.00  0.00    -0.027 C 
BRANCH  12  13
ATOM     13  C   UNL     1      85.547  55.260  46.450  0.00  0.00    -0.011 C 
ATOM     14  C   UNL     1      86.164  56.245  47.458  0.00  0.00    -0.060 C 
BRANCH  13  15
ATOM     15  C   UNL     1      84.611  55.919  45.369  0.00  0.00    +0.086 C 
BRANCH  15  16
ATOM     16  C   UNL     1      85.233  56.404  44.010  0.00  0.00    +0.086 C 
ATOM     17  C   UNL     1      85.702  57.875  44.105  0.00  0.00    -0.034 C 
ATOM     18  C   UNL     1      84.269  56.232  42.811  0.00  0.00    -0.034 C 
BRANCH  16  19
ATOM     19  O   UNL     1      86.366  55.594  43.774  0.00  0.00    -0.387 OA
ATOM     20  H   UNL     1      86.455  55.430  42.823  0.00  0.00    +0.000 HD
ENDBRANCH  16  19
ENDBRANCH  15  16
BRANCH  15  21
ATOM     21  O   UNL     1      83.770  56.904  45.922  0.00  0.00    -0.389 OA
ATOM     22  H   UNL     1      82.882  56.824  45.537  0.00  0.00    +0.000 HD
ENDBRANCH  15  21
ENDBRANCH  13  15
ENDBRANCH  12  13
ENDBRANCH   2  12
TORSDOF 11
ENDMDL
MODEL 2
REMARK VINA RESULT:    -6.203      4.263      6.602
REMARK INTER + INTRA:         -11.089
REMARK INTER:                  -9.993
REMARK INTRA:                  -1.095
REMARK UNBOUND:                -1.259
REMARK  Name = 
REMARK  16 active torsions:
REMARK  status: ('A' for Active; 'I' for Inactive)
REMARK    1  A    between atoms: C_1  and  O_2
REMARK    2  A    between atoms: O_2  and  C_3
REMARK    3  A    between atoms: C_3  and  C_5
REMARK    4  A    between atoms: C_6  and  C_7
REMARK    5  A    between atoms: C_7  and  C_8
REMARK    6  A    between atoms: C_8  and  C_9
REMARK    7  A    between atoms: C_10  and  C_11
REMARK    8  A    between atoms: C_10  and  C_20
REMARK    9  A    between atoms: C_11  and  C_12
REMARK   10  A    between atoms: C_12  and  C_13
REMARK   11  A    between atoms: C_12  and  C_19
REMARK   12  A    between atoms: C_13  and  C_14
REMARK   13  A    between atoms: C_13  and  O_18
REMARK   14  A    between atoms: C_14  and  O_15
REMARK   15  A    between atoms: C_14  and  C_16
REMARK   16  A    between atoms: C_14  and  C_17
REMARK                            x       y       z     vdW  Elec       q    Type
REMARK                         _______ _______ _______ _____ _____    ______ ____
ROOT
ATOM      1  C   UNL     1      88.951  49.846  42.722  0.00  0.00    -0.085 C 
ATOM      2  C   UNL     1      87.983  50.341  43.528  0.00  0.00    -0.076 C 
ATOM      3  C   UNL     1      87.888  49.965  44.989  0.00  0.00    -0.044 C 
ENDROOT
BRANCH   1   4
ATOM      4  C   UNL     1      90.011  48.863  43.153  0.00  0.00    -0.031 C 
BRANCH   4   5
ATOM      5  C   UNL     1      90.263  47.803  42.076  0.00  0.00    -0.031 C 
BRANCH   5   7
ATOM      6  C   UNL     1      88.294  46.359  42.488  0.00  0.00    +0.019 C 
ATOM      7  C   UNL     1      89.623  46.499  42.455  0.00  0.00    -0.077 C 
BRANCH   6   8
ATOM      8  C   UNL     1      87.651  45.100  42.893  0.00  0.00    +0.331 C 
ATOM      9  O   UNL     1      88.350  44.055  42.969  0.00  0.00    -0.246 OA
BRANCH   8  11
ATOM     10  C   UNL     1      85.723  45.639  44.349  0.00  0.00    +0.082 C 
ATOM     11  O   UNL     1      86.281  45.060  43.176  0.00  0.00    -0.465 OA
ENDBRANCH   8  11
ENDBRANCH   6   8
ENDBRANCH   5   7
ENDBRANCH   4   5
ENDBRANCH   1   4
BRANCH   2  12
ATOM     12  C   UNL     1      86.954  51.290  42.942  0.00  0.00    -0.027 C 
BRANCH  12  13
ATOM     13  C   UNL     1      87.598  52.561  42.327  0.00  0.00    -0.011 C 
ATOM     14  C   UNL     1      86.946  53.809  42.948  0.00  0.00    -0.060 C 
BRANCH  13  15
ATOM     15  C   UNL     1      87.563  52.511  40.754  0.00  0.00    +0.086 C 
BRANCH  15  16
ATOM     16  C   UNL     1      88.913  52.595  39.954  0.00  0.00    +0.086 C 
ATOM     17  C   UNL     1      89.427  51.185  39.578  0.00  0.00    -0.034 C 
ATOM     18  C   UNL     1      90.014  53.374  40.713  0.00  0.00    -0.034 C 
BRANCH  16  19
ATOM     19  O   UNL     1      88.631  53.294  38.760  0.00  0.00    -0.387 OA
ATOM     20  H   UNL     1      88.972  54.199  38.827  0.00  0.00    +0.000 HD
ENDBRANCH  16  19
ENDBRANCH  15  16
BRANCH  15  21
ATOM     21  O   UNL     1      86.599  53.384  40.214  0.00  0.00    -0.389 OA
ATOM     22  H   UNL     1      86.014  53.698  40.922  0.00  0.00    +0.000 HD
ENDBRANCH  15  21
ENDBRANCH  13  15
ENDBRANCH  12  13
ENDBRANCH   2  12
TORSDOF 11
ENDMDL
MODEL 3
REMARK VINA RESULT:    -6.119      2.275      4.730
REMARK INTER + INTRA:         -10.955
REMARK INTER:                  -9.403
REMARK INTRA:                  -1.552
REMARK UNBOUND:                -1.259
REMARK  Name = 
REMARK  16 active torsions:
REMARK  status: ('A' for Active; 'I' for Inactive)
REMARK    1  A    between atoms: C_1  and  O_2
REMARK    2  A    between atoms: O_2  and  C_3
REMARK    3  A    between atoms: C_3  and  C_5
REMARK    4  A    between atoms: C_6  and  C_7
REMARK    5  A    between atoms: C_7  and  C_8
REMARK    6  A    between atoms: C_8  and  C_9
REMARK    7  A    between atoms: C_10  and  C_11
REMARK    8  A    between atoms: C_10  and  C_20
REMARK    9  A    between atoms: C_11  and  C_12
REMARK   10  A    between atoms: C_12  and  C_13
REMARK   11  A    between atoms: C_12  and  C_19
REMARK   12  A    between atoms: C_13  and  C_14
REMARK   13  A    between atoms: C_13  and  O_18
REMARK   14  A    between atoms: C_14  and  O_15
REMARK   15  A    between atoms: C_14  and  C_16
REMARK   16  A    between atoms: C_14  and  C_17
REMARK                            x       y       z     vdW  Elec       q    Type
REMARK                         _______ _______ _______ _____ _____    ______ ____
ROOT
ATOM      1  C   UNL     1      85.179  56.088  46.878  0.00  0.00    -0.085 C 
ATOM      2  C   UNL     1      84.857  55.176  47.823  0.00  0.00    -0.076 C 
ATOM      3  C   UNL     1      83.467  55.087  48.410  0.00  0.00    -0.044 C 
ENDROOT
BRANCH   1   4
ATOM      4  C   UNL     1      84.233  57.124  46.322  0.00  0.00    -0.031 C 
BRANCH   4   5
ATOM      5  C   UNL     1      84.808  57.794  45.070  0.00  0.00    -0.031 C 
BRANCH   5   7
ATOM      6  C   UNL     1      84.161  56.475  43.075  0.00  0.00    +0.019 C 
ATOM      7  C   UNL     1      85.079  56.775  44.000  0.00  0.00    -0.077 C 
BRANCH   6   8
ATOM      8  C   UNL     1      84.396  55.453  42.044  0.00  0.00    +0.331 C 
ATOM      9  O   UNL     1      84.814  55.814  40.912  0.00  0.00    -0.246 OA
BRANCH   8  11
ATOM     10  C   UNL     1      84.069  53.120  41.287  0.00  0.00    +0.082 C 
ATOM     11  O   UNL     1      84.146  54.103  42.311  0.00  0.00    -0.465 OA
ENDBRANCH   8  11
ENDBRANCH   6   8
ENDBRANCH   5   7
ENDBRANCH   4   5
ENDBRANCH   1   4
BRANCH   2  12
ATOM     12  C   UNL     1      85.929  54.224  48.320  0.00  0.00    -0.027 C 
BRANCH  12  13
ATOM     13  C   UNL     1      85.731  52.777  47.793  0.00  0.00    -0.011 C 
ATOM     14  C   UNL     1      86.132  51.780  48.895  0.00  0.00    -0.060 C 
BRANCH  13  15
ATOM     15  C   UNL     1      86.464  52.570  46.415  0.00  0.00    +0.086 C 
BRANCH  15  16
ATOM     16  C   UNL     1      85.624  52.142  45.158  0.00  0.00    +0.086 C 
ATOM     17  C   UNL     1      84.166  52.648  45.262  0.00  0.00    -0.034 C 
ATOM     18  C   UNL     1      85.637  50.614  44.917  0.00  0.00    -0.034 C 
BRANCH  16  19
ATOM     19  O   UNL     1      86.227  52.763  44.041  0.00  0.00    -0.387 OA
ATOM     20  H   UNL     1      85.599  53.380  43.636  0.00  0.00    +0.000 HD
ENDBRANCH  16  19
ENDBRANCH  15  16
BRANCH  15  21
ATOM     21  O   UNL     1      87.625  51.782  46.541  0.00  0.00    -0.389 OA
ATOM     22  H   UNL     1      88.324  52.143  45.974  0.00  0.00    +0.000 HD
ENDBRANCH  15  21
ENDBRANCH  13  15
ENDBRANCH  12  13
ENDBRANCH   2  12
TORSDOF 11
ENDMDL
MODEL 4
REMARK VINA RESULT:    -6.116      2.960      5.257
REMARK INTER + INTRA:         -10.949
REMARK INTER:                  -9.379
REMARK INTRA:                  -1.570
REMARK UNBOUND:                -1.259
REMARK  Name = 
REMARK  16 active torsions:
REMARK  status: ('A' for Active; 'I' for Inactive)
REMARK    1  A    between atoms: C_1  and  O_2
REMARK    2  A    between atoms: O_2  and  C_3
REMARK    3  A    between atoms: C_3  and  C_5
REMARK    4  A    between atoms: C_6  and  C_7
REMARK    5  A    between atoms: C_7  and  C_8
REMARK    6  A    between atoms: C_8  and  C_9
REMARK    7  A    between atoms: C_10  and  C_11
REMARK    8  A    between atoms: C_10  and  C_20
REMARK    9  A    between atoms: C_11  and  C_12
REMARK   10  A    between atoms: C_12  and  C_13
REMARK   11  A    between atoms: C_12  and  C_19
REMARK   12  A    between atoms: C_13  and  C_14
REMARK   13  A    between atoms: C_13  and  O_18
REMARK   14  A    between atoms: C_14  and  O_15
REMARK   15  A    between atoms: C_14  and  C_16
REMARK   16  A    between atoms: C_14  and  C_17
REMARK                            x       y       z     vdW  Elec       q    Type
REMARK                         _______ _______ _______ _____ _____    ______ ____
ROOT
ATOM      1  C   UNL     1      83.659  52.170  43.698  0.00  0.00    -0.085 C 
ATOM      2  C   UNL     1      82.707  51.492  43.017  0.00  0.00    -0.076 C 
ATOM      3  C   UNL     1      82.217  50.135  43.464  0.00  0.00    -0.044 C 
ENDROOT
BRANCH   1   4
ATOM      4  C   UNL     1      84.355  51.667  44.938  0.00  0.00    -0.031 C 
BRANCH   4   5
ATOM      5  C   UNL     1      84.401  52.741  46.030  0.00  0.00    -0.031 C 
BRANCH   5   7
ATOM      6  C   UNL     1      85.786  54.794  46.026  0.00  0.00    +0.019 C 
ATOM      7  C   UNL     1      84.823  54.063  45.456  0.00  0.00    -0.077 C 
BRANCH   6   8
ATOM      8  C   UNL     1      86.185  56.107  45.498  0.00  0.00    +0.331 C 
ATOM      9  O   UNL     1      87.027  56.159  44.562  0.00  0.00    -0.246 OA
BRANCH   8  11
ATOM     10  C   UNL     1      84.815  58.158  45.288  0.00  0.00    +0.082 C 
ATOM     11  O   UNL     1      85.650  57.283  46.036  0.00  0.00    -0.465 OA
ENDBRANCH   8  11
ENDBRANCH   6   8
ENDBRANCH   5   7
ENDBRANCH   4   5
ENDBRANCH   1   4
BRANCH   2  12
ATOM     12  C   UNL     1      82.128  52.106  41.756  0.00  0.00    -0.027 C 
BRANCH  12  13
ATOM     13  C   UNL     1      82.180  53.658  41.772  0.00  0.00    -0.011 C 
ATOM     14  C   UNL     1      80.743  54.211  41.749  0.00  0.00    -0.060 C 
BRANCH  13  15
ATOM     15  C   UNL     1      83.119  54.206  40.634  0.00  0.00    +0.086 C 
BRANCH  15  16
ATOM     16  C   UNL     1      84.479  54.888  41.025  0.00  0.00    +0.086 C 
ATOM     17  C   UNL     1      85.585  53.833  41.258  0.00  0.00    -0.034 C 
ATOM     18  C   UNL     1      84.357  55.808  42.263  0.00  0.00    -0.034 C 
BRANCH  16  19
ATOM     19  O   UNL     1      84.858  55.689  39.925  0.00  0.00    -0.387 OA
ATOM     20  H   UNL     1      84.776  56.625  40.163  0.00  0.00    +0.000 HD
ENDBRANCH  16  19
ENDBRANCH  15  16
BRANCH  15  21
ATOM     21  O   UNL     1      82.416  54.981  39.691  0.00  0.00    -0.389 OA
ATOM     22  H   UNL     1      81.514  55.142  40.012  0.00  0.00    +0.000 HD
ENDBRANCH  15  21
ENDBRANCH  13  15
ENDBRANCH  12  13
ENDBRANCH   2  12
TORSDOF 11
ENDMDL
MODEL 5
REMARK VINA RESULT:    -6.106      2.015      2.395
REMARK INTER + INTRA:         -10.934
REMARK INTER:                  -9.836
REMARK INTRA:                  -1.098
REMARK UNBOUND:                -1.259
REMARK  Name = 
REMARK  16 active torsions:
REMARK  status: ('A' for Active; 'I' for Inactive)
REMARK    1  A    between atoms: C_1  and  O_2
REMARK    2  A    between atoms: O_2  and  C_3
REMARK    3  A    between atoms: C_3  and  C_5
REMARK    4  A    between atoms: C_6  and  C_7
REMARK    5  A    between atoms: C_7  and  C_8
REMARK    6  A    between atoms: C_8  and  C_9
REMARK    7  A    between atoms: C_10  and  C_11
REMARK    8  A    between atoms: C_10  and  C_20
REMARK    9  A    between atoms: C_11  and  C_12
REMARK   10  A    between atoms: C_12  and  C_13
REMARK   11  A    between atoms: C_12  and  C_19
REMARK   12  A    between atoms: C_13  and  C_14
REMARK   13  A    between atoms: C_13  and  O_18
REMARK   14  A    between atoms: C_14  and  O_15
REMARK   15  A    between atoms: C_14  and  C_16
REMARK   16  A    between atoms: C_14  and  C_17
REMARK                            x       y       z     vdW  Elec       q    Type
REMARK                         _______ _______ _______ _____ _____    ______ ____
ROOT
ATOM      1  C   UNL     1      86.475  52.752  45.610  0.00  0.00    -0.085 C 
ATOM      2  C   UNL     1      85.629  53.160  46.584  0.00  0.00    -0.076 C 
ATOM      3  C   UNL     1      85.784  52.713  48.019  0.00  0.00    -0.044 C 
ENDROOT
BRANCH   1   4
ATOM      4  C   UNL     1      87.632  51.805  45.816  0.00  0.00    -0.031 C 
BRANCH   4   5
ATOM      5  C   UNL     1      87.290  50.390  45.336  0.00  0.00    -0.031 C 
BRANCH   5   7
ATOM      6  C   UNL     1      87.757  49.269  43.178  0.00  0.00    +0.019 C 
ATOM      7  C   UNL     1      87.276  50.328  43.836  0.00  0.00    -0.077 C 
BRANCH   6   8
ATOM      8  C   UNL     1      87.784  49.208  41.709  0.00  0.00    +0.331 C 
ATOM      9  O   UNL     1      87.663  48.090  41.141  0.00  0.00    -0.246 OA
BRANCH   8  11
ATOM     10  C   UNL     1      89.227  50.981  40.760  0.00  0.00    +0.082 C 
ATOM     11  O   UNL     1      87.956  50.373  40.952  0.00  0.00    -0.465 OA
ENDBRANCH   8  11
ENDBRANCH   6   8
ENDBRANCH   5   7
ENDBRANCH   4   5
ENDBRANCH   1   4
BRANCH   2  12
ATOM     12  C   UNL     1      84.479  54.081  46.219  0.00  0.00    -0.027 C 
BRANCH  12  13
ATOM     13  C   UNL     1      84.814  55.577  46.463  0.00  0.00    -0.011 C 
ATOM     14  C   UNL     1      84.196  56.020  47.801  0.00  0.00    -0.060 C 
BRANCH  13  15
ATOM     15  C   UNL     1      84.410  56.459  45.223  0.00  0.00    +0.086 C 
BRANCH  15  16
ATOM     16  C   UNL     1      85.409  56.591  44.018  0.00  0.00    +0.086 C 
ATOM     17  C   UNL     1      84.999  55.664  42.850  0.00  0.00    -0.034 C 
ATOM     18  C   UNL     1      86.878  56.316  44.421  0.00  0.00    -0.034 C 
BRANCH  16  19
ATOM     19  O   UNL     1      85.325  57.928  43.570  0.00  0.00    -0.387 OA
ATOM     20  H   UNL     1      84.798  58.447  44.197  0.00  0.00    +0.000 HD
ENDBRANCH  16  19
ENDBRANCH  15  16
BRANCH  15  21
ATOM     21  O   UNL     1      83.909  57.719  45.607  0.00  0.00    -0.389 OA
ATOM     22  H   UNL     1      83.042  57.861  45.196  0.00  0.00    +0.000 HD
ENDBRANCH  15  21
ENDBRANCH  13  15
ENDBRANCH  12  13
ENDBRANCH   2  12
TORSDOF 11
ENDMDL
MODEL 6
REMARK VINA RESULT:    -6.093      1.720      3.049
REMARK INTER + INTRA:         -10.914
REMARK INTER:                  -9.252
REMARK INTRA:                  -1.662
REMARK UNBOUND:                -1.259
REMARK  Name = 
REMARK  16 active torsions:
REMARK  status: ('A' for Active; 'I' for Inactive)
REMARK    1  A    between atoms: C_1  and  O_2
REMARK    2  A    between atoms: O_2  and  C_3
REMARK    3  A    between atoms: C_3  and  C_5
REMARK    4  A    between atoms: C_6  and  C_7
REMARK    5  A    between atoms: C_7  and  C_8
REMARK    6  A    between atoms: C_8  and  C_9
REMARK    7  A    between atoms: C_10  and  C_11
REMARK    8  A    between atoms: C_10  and  C_20
REMARK    9  A    between atoms: C_11  and  C_12
REMARK   10  A    between atoms: C_12  and  C_13
REMARK   11  A    between atoms: C_12  and  C_19
REMARK   12  A    between atoms: C_13  and  C_14
REMARK   13  A    between atoms: C_13  and  O_18
REMARK   14  A    between atoms: C_14  and  O_15
REMARK   15  A    between atoms: C_14  and  C_16
REMARK   16  A    between atoms: C_14  and  C_17
REMARK                            x       y       z     vdW  Elec       q    Type
REMARK                         _______ _______ _______ _____ _____    ______ ____
ROOT
ATOM      1  C   UNL     1      85.764  54.276  47.335  0.00  0.00    -0.085 C 
ATOM      2  C   UNL     1      84.777  55.196  47.229  0.00  0.00    -0.076 C 
ATOM      3  C   UNL     1      83.551  55.158  48.110  0.00  0.00    -0.044 C 
ENDROOT
BRANCH   1   4
ATOM      4  C   UNL     1      85.758  53.113  48.295  0.00  0.00    -0.031 C 
BRANCH   4   5
ATOM      5  C   UNL     1      86.380  51.862  47.665  0.00  0.00    -0.031 C 
BRANCH   5   7
ATOM      6  C   UNL     1      86.991  51.311  45.328  0.00  0.00    +0.019 C 
ATOM      7  C   UNL     1      86.998  52.190  46.335  0.00  0.00    -0.077 C 
BRANCH   6   8
ATOM      8  C   UNL     1      87.624  51.602  44.033  0.00  0.00    +0.331 C 
ATOM      9  O   UNL     1      87.453  52.736  43.511  0.00  0.00    -0.246 OA
BRANCH   8  11
ATOM     10  C   UNL     1      88.638  49.346  43.943  0.00  0.00    +0.082 C 
ATOM     11  O   UNL     1      88.394  50.631  43.384  0.00  0.00    -0.465 OA
ENDBRANCH   8  11
ENDBRANCH   6   8
ENDBRANCH   5   7
ENDBRANCH   4   5
ENDBRANCH   1   4
BRANCH   2  12
ATOM     12  C   UNL     1      84.900  56.287  46.182  0.00  0.00    -0.027 C 
BRANCH  12  13
ATOM     13  C   UNL     1      85.557  55.782  44.870  0.00  0.00    -0.011 C 
ATOM     14  C   UNL     1      86.900  56.508  44.666  0.00  0.00    -0.060 C 
BRANCH  13  15
ATOM     15  C   UNL     1      84.558  55.886  43.657  0.00  0.00    +0.086 C 
BRANCH  15  16
ATOM     16  C   UNL     1      84.373  54.647  42.709  0.00  0.00    +0.086 C 
ATOM     17  C   UNL     1      83.241  54.893  41.684  0.00  0.00    -0.034 C 
ATOM     18  C   UNL     1      84.110  53.332  43.481  0.00  0.00    -0.034 C 
BRANCH  16  19
ATOM     19  O   UNL     1      85.586  54.498  42.000  0.00  0.00    -0.387 OA
ATOM     20  H   UNL     1      86.327  54.753  42.570  0.00  0.00    +0.000 HD
ENDBRANCH  16  19
ENDBRANCH  15  16
BRANCH  15  21
ATOM     21  O   UNL     1      84.742  57.069  42.916  0.00  0.00    -0.389 OA
ATOM     22  H   UNL     1      84.174  57.050  42.130  0.00  0.00    +0.000 HD
ENDBRANCH  15  21
ENDBRANCH  13  15
ENDBRANCH  12  13
ENDBRANCH   2  12
TORSDOF 11
ENDMDL
MODEL 7
REMARK VINA RESULT:    -6.010      2.591      6.274
REMARK INTER + INTRA:         -10.781
REMARK INTER:                  -9.722
REMARK INTRA:                  -1.059
REMARK UNBOUND:                -1.259
REMARK  Name = 
REMARK  16 active torsions:
REMARK  status: ('A' for Active; 'I' for Inactive)
REMARK    1  A    between atoms: C_1  and  O_2
REMARK    2  A    between atoms: O_2  and  C_3
REMARK    3  A    between atoms: C_3  and  C_5
REMARK    4  A    between atoms: C_6  and  C_7
REMARK    5  A    between atoms: C_7  and  C_8
REMARK    6  A    between atoms: C_8  and  C_9
REMARK    7  A    between atoms: C_10  and  C_11
REMARK    8  A    between atoms: C_10  and  C_20
REMARK    9  A    between atoms: C_11  and  C_12
REMARK   10  A    between atoms: C_12  and  C_13
REMARK   11  A    between atoms: C_12  and  C_19
REMARK   12  A    between atoms: C_13  and  C_14
REMARK   13  A    between atoms: C_13  and  O_18
REMARK   14  A    between atoms: C_14  and  O_15
REMARK   15  A    between atoms: C_14  and  C_16
REMARK   16  A    between atoms: C_14  and  C_17
REMARK                            x       y       z     vdW  Elec       q    Type
REMARK                         _______ _______ _______ _____ _____    ______ ____
ROOT
ATOM      1  C   UNL     1      85.090  53.181  48.060  0.00  0.00    -0.085 C 
ATOM      2  C   UNL     1      85.462  52.772  46.825  0.00  0.00    -0.076 C 
ATOM      3  C   UNL     1      84.520  52.832  45.645  0.00  0.00    -0.044 C 
ENDROOT
BRANCH   1   4
ATOM      4  C   UNL     1      83.722  53.707  48.418  0.00  0.00    -0.031 C 
BRANCH   4   5
ATOM      5  C   UNL     1      83.771  55.195  48.781  0.00  0.00    -0.031 C 
BRANCH   5   7
ATOM      6  C   UNL     1      83.877  56.694  46.812  0.00  0.00    +0.019 C 
ATOM      7  C   UNL     1      84.519  55.971  47.735  0.00  0.00    -0.077 C 
BRANCH   6   8
ATOM      8  C   UNL     1      84.593  57.429  45.759  0.00  0.00    +0.331 C 
ATOM      9  O   UNL     1      84.722  58.678  45.866  0.00  0.00    -0.246 OA
BRANCH   8  11
ATOM     10  C   UNL     1      86.505  56.553  44.454  0.00  0.00    +0.082 C 
ATOM     11  O   UNL     1      85.111  56.755  44.647  0.00  0.00    -0.465 OA
ENDBRANCH   8  11
ENDBRANCH   6   8
ENDBRANCH   5   7
ENDBRANCH   4   5
ENDBRANCH   1   4
BRANCH   2  12
ATOM     12  C   UNL     1      86.861  52.222  46.624  0.00  0.00    -0.027 C 
BRANCH  12  13
ATOM     13  C   UNL     1      86.893  50.670  46.604  0.00  0.00    -0.011 C 
ATOM     14  C   UNL     1      87.930  50.173  47.627  0.00  0.00    -0.060 C 
BRANCH  13  15
ATOM     15  C   UNL     1      87.094  50.125  45.140  0.00  0.00    +0.086 C 
BRANCH  15  16
ATOM     16  C   UNL     1      86.100  49.043  44.582  0.00  0.00    +0.086 C 
ATOM     17  C   UNL     1      86.784  48.152  43.520  0.00  0.00    -0.034 C 
ATOM     18  C   UNL     1      84.804  49.660  44.001  0.00  0.00    -0.034 C 
BRANCH  16  19
ATOM     19  O   UNL     1      85.738  48.227  45.677  0.00  0.00    -0.387 OA
ATOM     20  H   UNL     1      86.285  48.453  46.444  0.00  0.00    +0.000 HD
ENDBRANCH  16  19
ENDBRANCH  15  16
BRANCH  15  21
ATOM     21  O   UNL     1      88.431  49.763  44.886  0.00  0.00    -0.389 OA
ATOM     22  H   UNL     1      88.588  49.757  43.928  0.00  0.00    +0.000 HD
ENDBRANCH  15  21
ENDBRANCH  13  15
ENDBRANCH  12  13
ENDBRANCH   2  12
TORSDOF 11
ENDMDL
MODEL 8
REMARK VINA RESULT:    -5.953      2.571      3.780
REMARK INTER + INTRA:         -10.691
REMARK INTER:                  -9.433
REMARK INTRA:                  -1.259
REMARK UNBOUND:                -1.259
REMARK  Name = 
REMARK  16 active torsions:
REMARK  status: ('A' for Active; 'I' for Inactive)
REMARK    1  A    between atoms: C_1  and  O_2
REMARK    2  A    between atoms: O_2  and  C_3
REMARK    3  A    between atoms: C_3  and  C_5
REMARK    4  A    between atoms: C_6  and  C_7
REMARK    5  A    between atoms: C_7  and  C_8
REMARK    6  A    between atoms: C_8  and  C_9
REMARK    7  A    between atoms: C_10  and  C_11
REMARK    8  A    between atoms: C_10  and  C_20
REMARK    9  A    between atoms: C_11  and  C_12
REMARK   10  A    between atoms: C_12  and  C_13
REMARK   11  A    between atoms: C_12  and  C_19
REMARK   12  A    between atoms: C_13  and  C_14
REMARK   13  A    between atoms: C_13  and  O_18
REMARK   14  A    between atoms: C_14  and  O_15
REMARK   15  A    between atoms: C_14  and  C_16
REMARK   16  A    between atoms: C_14  and  C_17
REMARK                            x       y       z     vdW  Elec       q    Type
REMARK                         _______ _______ _______ _____ _____    ______ ____
ROOT
ATOM      1  C   UNL     1      85.765  54.780  47.099  0.00  0.00    -0.085 C 
ATOM      2  C   UNL     1      84.752  55.636  47.366  0.00  0.00    -0.076 C 
ATOM      3  C   UNL     1      83.667  55.306  48.365  0.00  0.00    -0.044 C 
ENDROOT
BRANCH   1   4
ATOM      4  C   UNL     1      85.926  53.416  47.721  0.00  0.00    -0.031 C 
BRANCH   4   5
ATOM      5  C   UNL     1      86.725  52.476  46.812  0.00  0.00    -0.031 C 
BRANCH   5   7
ATOM      6  C   UNL     1      86.227  50.397  45.560  0.00  0.00    +0.019 C 
ATOM      7  C   UNL     1      85.803  51.567  46.049  0.00  0.00    -0.077 C 
BRANCH   6   8
ATOM      8  C   UNL     1      85.348  49.513  44.780  0.00  0.00    +0.331 C 
ATOM      9  O   UNL     1      84.668  50.004  43.839  0.00  0.00    -0.246 OA
BRANCH   8  11
ATOM     10  C   UNL     1      85.727  47.135  44.209  0.00  0.00    +0.082 C 
ATOM     11  O   UNL     1      85.257  48.150  45.086  0.00  0.00    -0.465 OA
ENDBRANCH   8  11
ENDBRANCH   6   8
ENDBRANCH   5   7
ENDBRANCH   4   5
ENDBRANCH   1   4
BRANCH   2  12
ATOM     12  C   UNL     1      84.695  56.960  46.627  0.00  0.00    -0.027 C 
BRANCH  12  13
ATOM     13  C   UNL     1      85.322  56.878  45.209  0.00  0.00    -0.011 C 
ATOM     14  C   UNL     1      85.616  58.302  44.703  0.00  0.00    -0.060 C 
BRANCH  13  15
ATOM     15  C   UNL     1      84.436  56.003  44.246  0.00  0.00    +0.086 C 
BRANCH  15  16
ATOM     16  C   UNL     1      85.137  55.007  43.253  0.00  0.00    +0.086 C 
ATOM     17  C   UNL     1      84.403  53.646  43.218  0.00  0.00    -0.034 C 
ATOM     18  C   UNL     1      86.636  54.792  43.574  0.00  0.00    -0.034 C 
BRANCH  16  19
ATOM     19  O   UNL     1      85.048  55.589  41.969  0.00  0.00    -0.387 OA
ATOM     20  H   UNL     1      84.153  55.463  41.618  0.00  0.00    +0.000 HD
ENDBRANCH  16  19
ENDBRANCH  15  16
BRANCH  15  21
ATOM     21  O   UNL     1      83.452  56.766  43.588  0.00  0.00    -0.389 OA
ATOM     22  H   UNL     1      83.102  56.264  42.835  0.00  0.00    +0.000 HD
ENDBRANCH  15  21
ENDBRANCH  13  15
ENDBRANCH  12  13
ENDBRANCH   2  12
TORSDOF 11
ENDMDL
MODEL 9
REMARK VINA RESULT:    -5.941      1.697      5.315
REMARK INTER + INTRA:         -10.673
REMARK INTER:                  -9.290
REMARK INTRA:                  -1.382
REMARK UNBOUND:                -1.259
REMARK  Name = 
REMARK  16 active torsions:
REMARK  status: ('A' for Active; 'I' for Inactive)
REMARK    1  A    between atoms: C_1  and  O_2
REMARK    2  A    between atoms: O_2  and  C_3
REMARK    3  A    between atoms: C_3  and  C_5
REMARK    4  A    between atoms: C_6  and  C_7
REMARK    5  A    between atoms: C_7  and  C_8
REMARK    6  A    between atoms: C_8  and  C_9
REMARK    7  A    between atoms: C_10  and  C_11
REMARK    8  A    between atoms: C_10  and  C_20
REMARK    9  A    between atoms: C_11  and  C_12
REMARK   10  A    between atoms: C_12  and  C_13
REMARK   11  A    between atoms: C_12  and  C_19
REMARK   12  A    between atoms: C_13  and  C_14
REMARK   13  A    between atoms: C_13  and  O_18
REMARK   14  A    between atoms: C_14  and  O_15
REMARK   15  A    between atoms: C_14  and  C_16
REMARK   16  A    between atoms: C_14  and  C_17
REMARK                            x       y       z     vdW  Elec       q    Type
REMARK                         _______ _______ _______ _____ _____    ______ ____
ROOT
ATOM      1  C   UNL     1      85.718  53.941  47.268  0.00  0.00    -0.085 C 
ATOM      2  C   UNL     1      85.764  52.957  46.342  0.00  0.00    -0.076 C 
ATOM      3  C   UNL     1      84.579  52.629  45.463  0.00  0.00    -0.044 C 
ENDROOT
BRANCH   1   4
ATOM      4  C   UNL     1      84.510  54.797  47.557  0.00  0.00    -0.031 C 
BRANCH   4   5
ATOM      5  C   UNL     1      84.843  56.289  47.462  0.00  0.00    -0.031 C 
BRANCH   5   7
ATOM      6  C   UNL     1      84.673  57.292  45.203  0.00  0.00    +0.019 C 
ATOM      7  C   UNL     1      85.397  56.623  46.106  0.00  0.00    -0.077 C 
BRANCH   6   8
ATOM      8  C   UNL     1      85.187  57.594  43.859  0.00  0.00    +0.331 C 
ATOM      9  O   UNL     1      85.952  58.583  43.706  0.00  0.00    -0.246 OA
BRANCH   8  11
ATOM     10  C   UNL     1      83.839  55.779  42.852  0.00  0.00    +0.082 C 
ATOM     11  O   UNL     1      84.820  56.804  42.764  0.00  0.00    -0.465 OA
ENDBRANCH   8  11
ENDBRANCH   6   8
ENDBRANCH   5   7
ENDBRANCH   4   5
ENDBRANCH   1   4
BRANCH   2  12
ATOM     12  C   UNL     1      87.038  52.146  46.193  0.00  0.00    -0.027 C 
BRANCH  12  13
ATOM     13  C   UNL     1      86.893  50.992  45.166  0.00  0.00    -0.011 C 
ATOM     14  C   UNL     1      87.021  49.644  45.901  0.00  0.00    -0.060 C 
BRANCH  13  15
ATOM     15  C   UNL     1      87.881  51.181  43.955  0.00  0.00    +0.086 C 
BRANCH  15  16
ATOM     16  C   UNL     1      87.349  51.828  42.626  0.00  0.00    +0.086 C 
ATOM     17  C   UNL     1      87.411  53.372  42.695  0.00  0.00    -0.034 C 
ATOM     18  C   UNL     1      85.914  51.372  42.267  0.00  0.00    -0.034 C 
BRANCH  16  19
ATOM     19  O   UNL     1      88.212  51.397  41.595  0.00  0.00    -0.387 OA
ATOM     20  H   UNL     1      87.796  50.671  41.107  0.00  0.00    +0.000 HD
ENDBRANCH  16  19
ENDBRANCH  15  16
BRANCH  15  21
ATOM     21  O   UNL     1      88.626  50.015  43.689  0.00  0.00    -0.389 OA
ATOM     22  H   UNL     1      88.052  49.238  43.772  0.00  0.00    +0.000 HD
ENDBRANCH  15  21
ENDBRANCH  13  15
ENDBRANCH  12  13
ENDBRANCH   2  12
TORSDOF 11
ENDMDL
