MODEL 1
REMARK VINA RESULT:    -8.713      0.000      0.000
REMARK INTER + INTRA:         -26.517
REMARK INTER:                 -21.189
REMARK INTRA:                  -5.328
REMARK UNBOUND:                -4.307
REMARK  Name = 
REMARK  30 active torsions:
REMARK  status: ('A' for Active; 'I' for Inactive)
REMARK    1  A    between atoms: C_1  and  C_2
REMARK    2  A    between atoms: C_2  and  C_3
REMARK    3  A    between atoms: C_3  and  C_4
REMARK    4  A    between atoms: C_4  and  C_5
REMARK    5  A    between atoms: C_5  and  C_6
REMARK    6  A    between atoms: C_6  and  C_7
REMARK    7  A    between atoms: C_7  and  C_8
REMARK    8  A    between atoms: C_8  and  C_9
REMARK    9  A    between atoms: C_9  and  C_10
REMARK   10  A    between atoms: C_10  and  C_11
REMARK   11  A    between atoms: C_11  and  C_12
REMARK   12  A    between atoms: C_11  and  O_44
REMARK   13  A    between atoms: C_15  and  C_17
REMARK   14  A    between atoms: C_20  and  C_22
REMARK   15  A    between atoms: C_22  and  C_23
REMARK   16  A    between atoms: C_22  and  O_43
REMARK   17  A    between atoms: C_23  and  C_24
REMARK   18  A    between atoms: C_24  and  C_25
REMARK   19  A    between atoms: C_25  and  C_26
REMARK   20  A    between atoms: C_26  and  C_27
REMARK   21  A    between atoms: C_27  and  C_28
REMARK   22  A    between atoms: C_28  and  C_29
REMARK   23  A    between atoms: C_29  and  C_30
REMARK   24  A    between atoms: C_30  and  C_31
REMARK   25  A    between atoms: C_31  and  C_32
REMARK   26  A    between atoms: C_32  and  C_33
REMARK   27  A    between atoms: C_33  and  C_34
REMARK   28  A    between atoms: C_33  and  O_42
REMARK   29  A    between atoms: C_34  and  C_35
REMARK   30  A    between atoms: C_37  and  C_41
REMARK                            x       y       z     vdW  Elec       q    Type
REMARK                         _______ _______ _______ _____ _____    ______ ____
ROOT
ATOM      1  C   UNL     1      88.444  50.589  41.328  0.00  0.00    +0.081 C 
ENDROOT
BRANCH   1   5
ATOM      2  C   UNL     1      88.670  47.076  41.943  0.00  0.00    +0.085 C 
ATOM      3  C   UNL     1      89.858  47.592  42.737  0.00  0.00    -0.022 C 
ATOM      4  C   UNL     1      90.258  48.826  41.973  0.00  0.00    -0.022 C 
ATOM      5  C   UNL     1      89.020  49.160  41.130  0.00  0.00    +0.085 C 
ATOM      6  O   UNL     1      88.027  48.184  41.358  0.00  0.00    -0.368 OA
BRANCH   2  10
ATOM      7  C   UNL     1      85.484  45.678  42.732  0.00  0.00    +0.085 C 
ATOM      8  C   UNL     1      86.298  44.386  42.857  0.00  0.00    -0.022 C 
ATOM      9  C   UNL     1      87.671  44.803  42.440  0.00  0.00    -0.022 C 
ATOM     10  C   UNL     1      87.687  46.272  42.816  0.00  0.00    +0.085 C 
ATOM     11  O   UNL     1      86.376  46.777  42.684  0.00  0.00    -0.368 OA
BRANCH   7  12
ATOM     12  C   UNL     1      84.478  45.865  43.890  0.00  0.00    +0.081 C 
BRANCH  12  13
ATOM     13  O   UNL     1      85.172  45.911  45.109  0.00  0.00    -0.389 OA
ATOM     14  H   UNL     1      84.606  45.563  45.816  0.00  0.00    +0.000 HD
ENDBRANCH  12  13
BRANCH  12  15
ATOM     15  C   UNL     1      83.669  47.171  43.728  0.00  0.00    -0.024 C 
BRANCH  15  16
ATOM     16  C   UNL     1      82.311  46.972  43.033  0.00  0.00    -0.051 C 
BRANCH  16  17
ATOM     17  C   UNL     1      81.118  47.204  43.977  0.00  0.00    -0.053 C 
BRANCH  17  18
ATOM     18  C   UNL     1      81.048  48.647  44.504  0.00  0.00    -0.053 C 
BRANCH  18  19
ATOM     19  C   UNL     1      79.930  49.493  43.852  0.00  0.00    -0.053 C 
BRANCH  19  20
ATOM     20  C   UNL     1      80.453  50.504  42.801  0.00  0.00    -0.053 C 
BRANCH  20  21
ATOM     21  C   UNL     1      81.991  50.574  42.735  0.00  0.00    -0.053 C 
BRANCH  21  22
ATOM     22  C   UNL     1      82.558  51.997  42.928  0.00  0.00    -0.053 C 
BRANCH  22  24
ATOM     23  C   UNL     1      83.926  50.797  44.724  0.00  0.00    -0.065 C 
ATOM     24  C   UNL     1      83.768  52.056  43.875  0.00  0.00    -0.056 C 
ENDBRANCH  22  24
ENDBRANCH  21  22
ENDBRANCH  20  21
ENDBRANCH  19  20
ENDBRANCH  18  19
ENDBRANCH  17  18
ENDBRANCH  16  17
ENDBRANCH  15  16
ENDBRANCH  12  15
ENDBRANCH   7  12
ENDBRANCH   2  10
ENDBRANCH   1   5
BRANCH   1  25
ATOM     25  O   UNL     1      89.452  51.499  41.687  0.00  0.00    -0.389 OA
ATOM     26  H   UNL     1      89.091  52.156  42.302  0.00  0.00    +0.000 HD
ENDBRANCH   1  25
BRANCH   1  27
ATOM     27  C   UNL     1      87.232  50.693  42.292  0.00  0.00    -0.024 C 
BRANCH  27  28
ATOM     28  C   UNL     1      87.553  51.004  43.767  0.00  0.00    -0.051 C 
BRANCH  28  29
ATOM     29  C   UNL     1      87.430  49.776  44.700  0.00  0.00    -0.053 C 
BRANCH  29  30
ATOM     30  C   UNL     1      88.024  50.045  46.092  0.00  0.00    -0.053 C 
BRANCH  30  31
ATOM     31  C   UNL     1      86.972  50.499  47.119  0.00  0.00    -0.053 C 
BRANCH  31  32
ATOM     32  C   UNL     1      86.623  52.000  47.064  0.00  0.00    -0.053 C 
BRANCH  32  33
ATOM     33  C   UNL     1      85.534  52.456  48.055  0.00  0.00    -0.053 C 
BRANCH  33  34
ATOM     34  C   UNL     1      84.374  53.246  47.427  0.00  0.00    -0.053 C 
BRANCH  34  35
ATOM     35  C   UNL     1      83.396  53.795  48.481  0.00  0.00    -0.051 C 
BRANCH  35  36
ATOM     36  C   UNL     1      83.549  55.309  48.711  0.00  0.00    -0.027 C 
BRANCH  36  37
ATOM     37  C   UNL     1      83.765  56.110  47.397  0.00  0.00    +0.059 C 
BRANCH  37  38
ATOM     38  O   UNL     1      82.862  57.187  47.333  0.00  0.00    -0.391 OA
ATOM     39  H   UNL     1      83.216  57.937  47.837  0.00  0.00    +0.000 HD
ENDBRANCH  37  38
BRANCH  37  40
ATOM     40  C   UNL     1      85.221  56.613  47.265  0.00  0.00    +0.005 C 
BRANCH  40  41
ATOM     41  C   UNL     1      85.735  56.452  45.860  0.00  0.00    +0.039 C 
ATOM     42  C   UNL     1      86.564  55.503  45.432  0.00  0.00    -0.034 C 
ATOM     43  C   UNL     1      86.882  55.701  43.972  0.00  0.00    +0.120 C 
ATOM     44  O   UNL     1      86.124  56.856  43.618  0.00  0.00    -0.454 OA
ATOM     45  C   UNL     1      85.452  57.314  44.735  0.00  0.00    +0.336 C 
ATOM     46  O   UNL     1      84.679  58.313  44.738  0.00  0.00    -0.245 OA
ATOM     47  C   UNL     1      86.444  54.499  43.141  0.00  0.00    -0.024 C 
ENDBRANCH  40  41
ENDBRANCH  37  40
ENDBRANCH  36  37
ENDBRANCH  35  36
ENDBRANCH  34  35
ENDBRANCH  33  34
ENDBRANCH  32  33
ENDBRANCH  31  32
ENDBRANCH  30  31
ENDBRANCH  29  30
ENDBRANCH  28  29
ENDBRANCH  27  28
ENDBRANCH   1  27
TORSDOF 28
ENDMDL
MODEL 2
REMARK VINA RESULT:    -8.477      1.671      5.110
REMARK INTER + INTRA:         -25.917
REMARK INTER:                 -21.563
REMARK INTRA:                  -4.354
REMARK UNBOUND:                -4.307
REMARK  Name = 
REMARK  30 active torsions:
REMARK  status: ('A' for Active; 'I' for Inactive)
REMARK    1  A    between atoms: C_1  and  C_2
REMARK    2  A    between atoms: C_2  and  C_3
REMARK    3  A    between atoms: C_3  and  C_4
REMARK    4  A    between atoms: C_4  and  C_5
REMARK    5  A    between atoms: C_5  and  C_6
REMARK    6  A    between atoms: C_6  and  C_7
REMARK    7  A    between atoms: C_7  and  C_8
REMARK    8  A    between atoms: C_8  and  C_9
REMARK    9  A    between atoms: C_9  and  C_10
REMARK   10  A    between atoms: C_10  and  C_11
REMARK   11  A    between atoms: C_11  and  C_12
REMARK   12  A    between atoms: C_11  and  O_44
REMARK   13  A    between atoms: C_15  and  C_17
REMARK   14  A    between atoms: C_20  and  C_22
REMARK   15  A    between atoms: C_22  and  C_23
REMARK   16  A    between atoms: C_22  and  O_43
REMARK   17  A    between atoms: C_23  and  C_24
REMARK   18  A    between atoms: C_24  and  C_25
REMARK   19  A    between atoms: C_25  and  C_26
REMARK   20  A    between atoms: C_26  and  C_27
REMARK   21  A    between atoms: C_27  and  C_28
REMARK   22  A    between atoms: C_28  and  C_29
REMARK   23  A    between atoms: C_29  and  C_30
REMARK   24  A    between atoms: C_30  and  C_31
REMARK   25  A    between atoms: C_31  and  C_32
REMARK   26  A    between atoms: C_32  and  C_33
REMARK   27  A    between atoms: C_33  and  C_34
REMARK   28  A    between atoms: C_33  and  O_42
REMARK   29  A    between atoms: C_34  and  C_35
REMARK   30  A    between atoms: C_37  and  C_41
REMARK                            x       y       z     vdW  Elec       q    Type
REMARK                         _______ _______ _______ _____ _____    ______ ____
ROOT
ATOM      1  C   UNL     1      83.045  50.253  44.107  0.00  0.00    +0.081 C 
ENDROOT
BRANCH   1   5
ATOM      2  C   UNL     1      83.197  46.699  43.770  0.00  0.00    +0.085 C 
ATOM      3  C   UNL     1      82.051  47.036  42.831  0.00  0.00    -0.022 C 
ATOM      4  C   UNL     1      81.469  48.279  43.450  0.00  0.00    -0.022 C 
ATOM      5  C   UNL     1      82.582  48.794  44.371  0.00  0.00    +0.085 C 
ATOM      6  O   UNL     1      83.677  47.905  44.317  0.00  0.00    -0.368 OA
BRANCH   2  10
ATOM      7  C   UNL     1      86.579  45.658  43.328  0.00  0.00    +0.085 C 
ATOM      8  C   UNL     1      85.948  44.261  43.340  0.00  0.00    -0.022 C 
ATOM      9  C   UNL     1      84.509  44.538  43.632  0.00  0.00    -0.022 C 
ATOM     10  C   UNL     1      84.329  45.932  43.061  0.00  0.00    +0.085 C 
ATOM     11  O   UNL     1      85.553  46.622  43.186  0.00  0.00    -0.368 OA
BRANCH   7  12
ATOM     12  C   UNL     1      87.627  45.831  42.205  0.00  0.00    +0.081 C 
BRANCH  12  13
ATOM     13  O   UNL     1      87.549  47.136  41.692  0.00  0.00    -0.389 OA
ATOM     14  H   UNL     1      87.905  47.149  40.790  0.00  0.00    +0.000 HD
ENDBRANCH  12  13
BRANCH  12  15
ATOM     15  C   UNL     1      89.059  45.586  42.727  0.00  0.00    -0.024 C 
BRANCH  15  16
ATOM     16  C   UNL     1      90.081  46.624  42.231  0.00  0.00    -0.051 C 
BRANCH  16  17
ATOM     17  C   UNL     1      90.789  47.362  43.380  0.00  0.00    -0.053 C 
BRANCH  17  18
ATOM     18  C   UNL     1      91.008  48.855  43.085  0.00  0.00    -0.053 C 
BRANCH  18  19
ATOM     19  C   UNL     1      90.241  49.361  41.841  0.00  0.00    -0.053 C 
BRANCH  19  20
ATOM     20  C   UNL     1      89.214  50.476  42.158  0.00  0.00    -0.053 C 
BRANCH  20  21
ATOM     21  C   UNL     1      88.260  50.778  40.986  0.00  0.00    -0.053 C 
BRANCH  21  22
ATOM     22  C   UNL     1      88.638  52.045  40.188  0.00  0.00    -0.053 C 
BRANCH  22  24
ATOM     23  C   UNL     1      90.665  53.592  39.994  0.00  0.00    -0.065 C 
ATOM     24  C   UNL     1      89.628  52.965  40.922  0.00  0.00    -0.056 C 
ENDBRANCH  22  24
ENDBRANCH  21  22
ENDBRANCH  20  21
ENDBRANCH  19  20
ENDBRANCH  18  19
ENDBRANCH  17  18
ENDBRANCH  16  17
ENDBRANCH  15  16
ENDBRANCH  12  15
ENDBRANCH   7  12
ENDBRANCH   2  10
ENDBRANCH   1   5
BRANCH   1  25
ATOM     25  O   UNL     1      82.993  50.563  42.738  0.00  0.00    -0.389 OA
ATOM     26  H   UNL     1      82.807  51.509  42.627  0.00  0.00    +0.000 HD
ENDBRANCH   1  25
BRANCH   1  27
ATOM     27  C   UNL     1      84.420  50.639  44.713  0.00  0.00    -0.024 C 
BRANCH  27  28
ATOM     28  C   UNL     1      85.657  50.378  43.832  0.00  0.00    -0.051 C 
BRANCH  28  29
ATOM     29  C   UNL     1      86.789  49.620  44.562  0.00  0.00    -0.053 C 
BRANCH  29  30
ATOM     30  C   UNL     1      87.494  50.499  45.608  0.00  0.00    -0.053 C 
BRANCH  30  31
ATOM     31  C   UNL     1      87.503  51.991  45.234  0.00  0.00    -0.053 C 
BRANCH  31  32
ATOM     32  C   UNL     1      86.834  52.920  46.269  0.00  0.00    -0.053 C 
BRANCH  32  33
ATOM     33  C   UNL     1      86.288  52.214  47.525  0.00  0.00    -0.053 C 
BRANCH  33  34
ATOM     34  C   UNL     1      85.561  53.134  48.522  0.00  0.00    -0.053 C 
BRANCH  34  35
ATOM     35  C   UNL     1      85.537  54.601  48.060  0.00  0.00    -0.051 C 
BRANCH  35  36
ATOM     36  C   UNL     1      84.129  55.221  48.102  0.00  0.00    -0.027 C 
BRANCH  36  37
ATOM     37  C   UNL     1      83.824  56.135  46.883  0.00  0.00    +0.059 C 
BRANCH  37  38
ATOM     38  O   UNL     1      83.219  57.330  47.314  0.00  0.00    -0.391 OA
ATOM     39  H   UNL     1      82.476  57.124  47.901  0.00  0.00    +0.000 HD
ENDBRANCH  37  38
BRANCH  37  40
ATOM     40  C   UNL     1      85.097  56.436  46.060  0.00  0.00    +0.005 C 
BRANCH  40  41
ATOM     41  C   UNL     1      84.904  56.106  44.605  0.00  0.00    +0.039 C 
ATOM     42  C   UNL     1      84.581  54.915  44.107  0.00  0.00    -0.034 C 
ATOM     43  C   UNL     1      84.521  54.972  42.602  0.00  0.00    +0.120 C 
ATOM     44  O   UNL     1      84.826  56.333  42.307  0.00  0.00    -0.454 OA
ATOM     45  C   UNL     1      85.067  57.008  43.488  0.00  0.00    +0.336 C 
ATOM     46  O   UNL     1      85.343  58.239  43.558  0.00  0.00    -0.245 OA
ATOM     47  C   UNL     1      83.131  54.611  42.088  0.00  0.00    -0.024 C 
ENDBRANCH  40  41
ENDBRANCH  37  40
ENDBRANCH  36  37
ENDBRANCH  35  36
ENDBRANCH  34  35
ENDBRANCH  33  34
ENDBRANCH  32  33
ENDBRANCH  31  32
ENDBRANCH  30  31
ENDBRANCH  29  30
ENDBRANCH  28  29
ENDBRANCH  27  28
ENDBRANCH   1  27
TORSDOF 28
ENDMDL
MODEL 3
REMARK VINA RESULT:    -8.463      1.931      5.841
REMARK INTER + INTRA:         -25.880
REMARK INTER:                 -19.705
REMARK INTRA:                  -6.175
REMARK UNBOUND:                -4.307
REMARK  Name = 
REMARK  30 active torsions:
REMARK  status: ('A' for Active; 'I' for Inactive)
REMARK    1  A    between atoms: C_1  and  C_2
REMARK    2  A    between atoms: C_2  and  C_3
REMARK    3  A    between atoms: C_3  and  C_4
REMARK    4  A    between atoms: C_4  and  C_5
REMARK    5  A    between atoms: C_5  and  C_6
REMARK    6  A    between atoms: C_6  and  C_7
REMARK    7  A    between atoms: C_7  and  C_8
REMARK    8  A    between atoms: C_8  and  C_9
REMARK    9  A    between atoms: C_9  and  C_10
REMARK   10  A    between atoms: C_10  and  C_11
REMARK   11  A    between atoms: C_11  and  C_12
REMARK   12  A    between atoms: C_11  and  O_44
REMARK   13  A    between atoms: C_15  and  C_17
REMARK   14  A    between atoms: C_20  and  C_22
REMARK   15  A    between atoms: C_22  and  C_23
REMARK   16  A    between atoms: C_22  and  O_43
REMARK   17  A    between atoms: C_23  and  C_24
REMARK   18  A    between atoms: C_24  and  C_25
REMARK   19  A    between atoms: C_25  and  C_26
REMARK   20  A    between atoms: C_26  and  C_27
REMARK   21  A    between atoms: C_27  and  C_28
REMARK   22  A    between atoms: C_28  and  C_29
REMARK   23  A    between atoms: C_29  and  C_30
REMARK   24  A    between atoms: C_30  and  C_31
REMARK   25  A    between atoms: C_31  and  C_32
REMARK   26  A    between atoms: C_32  and  C_33
REMARK   27  A    between atoms: C_33  and  C_34
REMARK   28  A    between atoms: C_33  and  O_42
REMARK   29  A    between atoms: C_34  and  C_35
REMARK   30  A    between atoms: C_37  and  C_41
REMARK                            x       y       z     vdW  Elec       q    Type
REMARK                         _______ _______ _______ _____ _____    ______ ____
ROOT
ATOM      1  C   UNL     1      83.397  52.648  41.829  0.00  0.00    +0.081 C 
ENDROOT
BRANCH   1   5
ATOM      2  C   UNL     1      86.766  53.392  42.759  0.00  0.00    +0.085 C 
ATOM      3  C   UNL     1      86.105  53.261  44.122  0.00  0.00    -0.022 C 
ATOM      4  C   UNL     1      84.688  53.687  43.845  0.00  0.00    -0.022 C 
ATOM      5  C   UNL     1      84.550  53.563  42.322  0.00  0.00    +0.085 C 
ATOM      6  O   UNL     1      85.785  53.149  41.778  0.00  0.00    -0.368 OA
BRANCH   2  10
ATOM      7  C   UNL     1      88.545  50.735  41.178  0.00  0.00    +0.085 C 
ATOM      8  C   UNL     1      89.671  51.773  41.136  0.00  0.00    -0.022 C 
ATOM      9  C   UNL     1      89.023  53.005  41.681  0.00  0.00    -0.022 C 
ATOM     10  C   UNL     1      87.956  52.429  42.591  0.00  0.00    +0.085 C 
ATOM     11  O   UNL     1      87.529  51.198  42.048  0.00  0.00    -0.368 OA
BRANCH   7  12
ATOM     12  C   UNL     1      89.033  49.341  41.630  0.00  0.00    +0.081 C 
BRANCH  12  13
ATOM     13  O   UNL     1      89.585  49.435  42.917  0.00  0.00    -0.389 OA
ATOM     14  H   UNL     1      89.264  48.698  43.461  0.00  0.00    +0.000 HD
ENDBRANCH  12  13
BRANCH  12  15
ATOM     15  C   UNL     1      87.876  48.319  41.658  0.00  0.00    -0.024 C 
BRANCH  15  16
ATOM     16  C   UNL     1      88.019  47.257  42.761  0.00  0.00    -0.051 C 
BRANCH  16  17
ATOM     17  C   UNL     1      88.792  46.012  42.293  0.00  0.00    -0.053 C 
BRANCH  17  18
ATOM     18  C   UNL     1      87.931  44.738  42.299  0.00  0.00    -0.053 C 
BRANCH  18  19
ATOM     19  C   UNL     1      88.325  43.727  43.402  0.00  0.00    -0.053 C 
BRANCH  19  20
ATOM     20  C   UNL     1      87.258  43.582  44.517  0.00  0.00    -0.053 C 
BRANCH  20  21
ATOM     21  C   UNL     1      85.859  44.063  44.088  0.00  0.00    -0.053 C 
BRANCH  21  22
ATOM     22  C   UNL     1      85.429  45.392  44.748  0.00  0.00    -0.053 C 
BRANCH  22  24
ATOM     23  C   UNL     1      84.282  46.073  42.566  0.00  0.00    -0.065 C 
ATOM     24  C   UNL     1      84.197  46.037  44.090  0.00  0.00    -0.056 C 
ENDBRANCH  22  24
ENDBRANCH  21  22
ENDBRANCH  20  21
ENDBRANCH  19  20
ENDBRANCH  18  19
ENDBRANCH  17  18
ENDBRANCH  16  17
ENDBRANCH  15  16
ENDBRANCH  12  15
ENDBRANCH   7  12
ENDBRANCH   2  10
ENDBRANCH   1   5
BRANCH   1  25
ATOM     25  O   UNL     1      82.546  53.333  40.945  0.00  0.00    -0.389 OA
ATOM     26  H   UNL     1      82.775  54.276  40.943  0.00  0.00    +0.000 HD
ENDBRANCH   1  25
BRANCH   1  27
ATOM     27  C   UNL     1      82.584  51.936  42.943  0.00  0.00    -0.024 C 
BRANCH  27  28
ATOM     28  C   UNL     1      82.292  50.438  42.730  0.00  0.00    -0.051 C 
BRANCH  28  29
ATOM     29  C   UNL     1      82.733  49.546  43.913  0.00  0.00    -0.053 C 
BRANCH  29  30
ATOM     30  C   UNL     1      83.911  50.155  44.690  0.00  0.00    -0.053 C 
BRANCH  30  31
ATOM     31  C   UNL     1      85.275  49.586  44.261  0.00  0.00    -0.053 C 
BRANCH  31  32
ATOM     32  C   UNL     1      86.230  49.254  45.425  0.00  0.00    -0.053 C 
BRANCH  32  33
ATOM     33  C   UNL     1      87.516  50.102  45.479  0.00  0.00    -0.053 C 
BRANCH  33  34
ATOM     34  C   UNL     1      87.600  51.079  46.664  0.00  0.00    -0.053 C 
BRANCH  34  35
ATOM     35  C   UNL     1      86.927  50.527  47.932  0.00  0.00    -0.051 C 
BRANCH  35  36
ATOM     36  C   UNL     1      86.165  51.604  48.725  0.00  0.00    -0.027 C 
BRANCH  36  37
ATOM     37  C   UNL     1      85.735  52.816  47.854  0.00  0.00    +0.059 C 
BRANCH  37  38
ATOM     38  O   UNL     1      84.460  52.588  47.302  0.00  0.00    -0.391 OA
ATOM     39  H   UNL     1      83.779  52.845  47.943  0.00  0.00    +0.000 HD
ENDBRANCH  37  38
BRANCH  37  40
ATOM     40  C   UNL     1      85.748  54.135  48.661  0.00  0.00    +0.005 C 
BRANCH  40  41
ATOM     41  C   UNL     1      85.297  55.300  47.821  0.00  0.00    +0.039 C 
ATOM     42  C   UNL     1      86.081  56.095  47.097  0.00  0.00    -0.034 C 
ATOM     43  C   UNL     1      85.266  57.173  46.431  0.00  0.00    +0.120 C 
ATOM     44  O   UNL     1      83.932  56.886  46.843  0.00  0.00    -0.454 OA
ATOM     45  C   UNL     1      83.944  55.786  47.677  0.00  0.00    +0.336 C 
ATOM     46  O   UNL     1      82.910  55.273  48.190  0.00  0.00    -0.245 OA
ATOM     47  C   UNL     1      85.385  57.099  44.911  0.00  0.00    -0.024 C 
ENDBRANCH  40  41
ENDBRANCH  37  40
ENDBRANCH  36  37
ENDBRANCH  35  36
ENDBRANCH  34  35
ENDBRANCH  33  34
ENDBRANCH  32  33
ENDBRANCH  31  32
ENDBRANCH  30  31
ENDBRANCH  29  30
ENDBRANCH  28  29
ENDBRANCH  27  28
ENDBRANCH   1  27
TORSDOF 28
ENDMDL
MODEL 4
REMARK VINA RESULT:    -8.419      1.699      8.496
REMARK INTER + INTRA:         -25.768
REMARK INTER:                 -21.502
REMARK INTRA:                  -4.266
REMARK UNBOUND:                -4.307
REMARK  Name = 
REMARK  30 active torsions:
REMARK  status: ('A' for Active; 'I' for Inactive)
REMARK    1  A    between atoms: C_1  and  C_2
REMARK    2  A    between atoms: C_2  and  C_3
REMARK    3  A    between atoms: C_3  and  C_4
REMARK    4  A    between atoms: C_4  and  C_5
REMARK    5  A    between atoms: C_5  and  C_6
REMARK    6  A    between atoms: C_6  and  C_7
REMARK    7  A    between atoms: C_7  and  C_8
REMARK    8  A    between atoms: C_8  and  C_9
REMARK    9  A    between atoms: C_9  and  C_10
REMARK   10  A    between atoms: C_10  and  C_11
REMARK   11  A    between atoms: C_11  and  C_12
REMARK   12  A    between atoms: C_11  and  O_44
REMARK   13  A    between atoms: C_15  and  C_17
REMARK   14  A    between atoms: C_20  and  C_22
REMARK   15  A    between atoms: C_22  and  C_23
REMARK   16  A    between atoms: C_22  and  O_43
REMARK   17  A    between atoms: C_23  and  C_24
REMARK   18  A    between atoms: C_24  and  C_25
REMARK   19  A    between atoms: C_25  and  C_26
REMARK   20  A    between atoms: C_26  and  C_27
REMARK   21  A    between atoms: C_27  and  C_28
REMARK   22  A    between atoms: C_28  and  C_29
REMARK   23  A    between atoms: C_29  and  C_30
REMARK   24  A    between atoms: C_30  and  C_31
REMARK   25  A    between atoms: C_31  and  C_32
REMARK   26  A    between atoms: C_32  and  C_33
REMARK   27  A    between atoms: C_33  and  C_34
REMARK   28  A    between atoms: C_33  and  O_42
REMARK   29  A    between atoms: C_34  and  C_35
REMARK   30  A    between atoms: C_37  and  C_41
REMARK                            x       y       z     vdW  Elec       q    Type
REMARK                         _______ _______ _______ _____ _____    ______ ____
ROOT
ATOM      1  C   UNL     1      83.596  56.444  46.863  0.00  0.00    +0.081 C 
ENDROOT
BRANCH   1   5
ATOM      2  C   UNL     1      85.403  55.986  43.814  0.00  0.00    +0.085 C 
ATOM      3  C   UNL     1      86.464  55.630  44.843  0.00  0.00    -0.022 C 
ATOM      4  C   UNL     1      86.069  56.469  46.029  0.00  0.00    -0.022 C 
ATOM      5  C   UNL     1      84.607  56.842  45.754  0.00  0.00    +0.085 C 
ATOM      6  O   UNL     1      84.219  56.307  44.507  0.00  0.00    -0.368 OA
BRANCH   2  10
ATOM      7  C   UNL     1      86.304  53.033  42.028  0.00  0.00    +0.085 C 
ATOM      8  C   UNL     1      84.976  52.518  42.593  0.00  0.00    -0.022 C 
ATOM      9  C   UNL     1      84.521  53.637  43.474  0.00  0.00    -0.022 C 
ATOM     10  C   UNL     1      85.156  54.844  42.810  0.00  0.00    +0.085 C 
ATOM     11  O   UNL     1      86.366  54.435  42.212  0.00  0.00    -0.368 OA
BRANCH   7  12
ATOM     12  C   UNL     1      86.492  52.687  40.534  0.00  0.00    +0.081 C 
BRANCH  12  13
ATOM     13  O   UNL     1      86.066  53.770  39.747  0.00  0.00    -0.389 OA
ATOM     14  H   UNL     1      85.363  54.250  40.212  0.00  0.00    +0.000 HD
ENDBRANCH  12  13
BRANCH  12  15
ATOM     15  C   UNL     1      87.971  52.386  40.206  0.00  0.00    -0.024 C 
BRANCH  15  16
ATOM     16  C   UNL     1      88.937  52.725  41.354  0.00  0.00    -0.051 C 
BRANCH  16  17
ATOM     17  C   UNL     1      89.968  51.613  41.614  0.00  0.00    -0.053 C 
BRANCH  17  18
ATOM     18  C   UNL     1      89.321  50.226  41.770  0.00  0.00    -0.053 C 
BRANCH  18  19
ATOM     19  C   UNL     1      90.257  49.173  42.407  0.00  0.00    -0.053 C 
BRANCH  19  20
ATOM     20  C   UNL     1      90.299  47.832  41.632  0.00  0.00    -0.053 C 
BRANCH  20  21
ATOM     21  C   UNL     1      89.817  46.629  42.467  0.00  0.00    -0.053 C 
BRANCH  21  22
ATOM     22  C   UNL     1      88.418  46.113  42.064  0.00  0.00    -0.053 C 
BRANCH  22  24
ATOM     23  C   UNL     1      86.525  44.742  43.102  0.00  0.00    -0.065 C 
ATOM     24  C   UNL     1      88.015  44.809  42.774  0.00  0.00    -0.056 C 
ENDBRANCH  22  24
ENDBRANCH  21  22
ENDBRANCH  20  21
ENDBRANCH  19  20
ENDBRANCH  18  19
ENDBRANCH  17  18
ENDBRANCH  16  17
ENDBRANCH  15  16
ENDBRANCH  12  15
ENDBRANCH   7  12
ENDBRANCH   2  10
ENDBRANCH   1   5
BRANCH   1  25
ATOM     25  O   UNL     1      82.858  57.556  47.301  0.00  0.00    -0.389 OA
ATOM     26  H   UNL     1      81.948  57.491  46.970  0.00  0.00    +0.000 HD
ENDBRANCH   1  25
BRANCH   1  27
ATOM     27  C   UNL     1      84.193  55.664  48.064  0.00  0.00    -0.024 C 
BRANCH  27  28
ATOM     28  C   UNL     1      83.454  54.380  48.486  0.00  0.00    -0.051 C 
BRANCH  28  29
ATOM     29  C   UNL     1      84.164  53.081  48.042  0.00  0.00    -0.053 C 
BRANCH  29  30
ATOM     30  C   UNL     1      85.664  53.098  48.375  0.00  0.00    -0.053 C 
BRANCH  30  31
ATOM     31  C   UNL     1      86.240  51.696  48.638  0.00  0.00    -0.053 C 
BRANCH  31  32
ATOM     32  C   UNL     1      87.215  51.185  47.558  0.00  0.00    -0.053 C 
BRANCH  32  33
ATOM     33  C   UNL     1      87.199  51.975  46.235  0.00  0.00    -0.053 C 
BRANCH  33  34
ATOM     34  C   UNL     1      87.616  51.169  44.992  0.00  0.00    -0.053 C 
BRANCH  34  35
ATOM     35  C   UNL     1      87.345  49.663  45.149  0.00  0.00    -0.051 C 
BRANCH  35  36
ATOM     36  C   UNL     1      86.791  49.016  43.867  0.00  0.00    -0.027 C 
BRANCH  36  37
ATOM     37  C   UNL     1      85.394  48.366  44.063  0.00  0.00    +0.059 C 
BRANCH  37  38
ATOM     38  O   UNL     1      85.428  47.459  45.138  0.00  0.00    -0.391 OA
ATOM     39  H   UNL     1      86.345  47.196  45.311  0.00  0.00    +0.000 HD
ENDBRANCH  37  38
BRANCH  37  40
ATOM     40  C   UNL     1      84.293  49.429  44.285  0.00  0.00    +0.005 C 
BRANCH  40  41
ATOM     41  C   UNL     1      82.917  48.831  44.163  0.00  0.00    +0.039 C 
ATOM     42  C   UNL     1      81.788  49.362  44.627  0.00  0.00    -0.034 C 
ATOM     43  C   UNL     1      80.624  48.447  44.349  0.00  0.00    +0.120 C 
ATOM     44  O   UNL     1      81.218  47.350  43.658  0.00  0.00    -0.454 OA
ATOM     45  C   UNL     1      82.578  47.565  43.556  0.00  0.00    +0.336 C 
ATOM     46  O   UNL     1      83.379  46.779  42.977  0.00  0.00    -0.245 OA
ATOM     47  C   UNL     1      79.579  49.130  43.471  0.00  0.00    -0.024 C 
ENDBRANCH  40  41
ENDBRANCH  37  40
ENDBRANCH  36  37
ENDBRANCH  35  36
ENDBRANCH  34  35
ENDBRANCH  33  34
ENDBRANCH  32  33
ENDBRANCH  31  32
ENDBRANCH  30  31
ENDBRANCH  29  30
ENDBRANCH  28  29
ENDBRANCH  27  28
ENDBRANCH   1  27
TORSDOF 28
ENDMDL
MODEL 5
REMARK VINA RESULT:    -8.380      1.823      4.554
REMARK INTER + INTRA:         -25.669
REMARK INTER:                 -19.910
REMARK INTRA:                  -5.759
REMARK UNBOUND:                -4.307
REMARK  Name = 
REMARK  30 active torsions:
REMARK  status: ('A' for Active; 'I' for Inactive)
REMARK    1  A    between atoms: C_1  and  C_2
REMARK    2  A    between atoms: C_2  and  C_3
REMARK    3  A    between atoms: C_3  and  C_4
REMARK    4  A    between atoms: C_4  and  C_5
REMARK    5  A    between atoms: C_5  and  C_6
REMARK    6  A    between atoms: C_6  and  C_7
REMARK    7  A    between atoms: C_7  and  C_8
REMARK    8  A    between atoms: C_8  and  C_9
REMARK    9  A    between atoms: C_9  and  C_10
REMARK   10  A    between atoms: C_10  and  C_11
REMARK   11  A    between atoms: C_11  and  C_12
REMARK   12  A    between atoms: C_11  and  O_44
REMARK   13  A    between atoms: C_15  and  C_17
REMARK   14  A    between atoms: C_20  and  C_22
REMARK   15  A    between atoms: C_22  and  C_23
REMARK   16  A    between atoms: C_22  and  O_43
REMARK   17  A    between atoms: C_23  and  C_24
REMARK   18  A    between atoms: C_24  and  C_25
REMARK   19  A    between atoms: C_25  and  C_26
REMARK   20  A    between atoms: C_26  and  C_27
REMARK   21  A    between atoms: C_27  and  C_28
REMARK   22  A    between atoms: C_28  and  C_29
REMARK   23  A    between atoms: C_29  and  C_30
REMARK   24  A    between atoms: C_30  and  C_31
REMARK   25  A    between atoms: C_31  and  C_32
REMARK   26  A    between atoms: C_32  and  C_33
REMARK   27  A    between atoms: C_33  and  C_34
REMARK   28  A    between atoms: C_33  and  O_42
REMARK   29  A    between atoms: C_34  and  C_35
REMARK   30  A    between atoms: C_37  and  C_41
REMARK                            x       y       z     vdW  Elec       q    Type
REMARK                         _______ _______ _______ _____ _____    ______ ____
ROOT
ATOM      1  C   UNL     1      86.972  52.344  40.305  0.00  0.00    +0.081 C 
ENDROOT
BRANCH   1   5
ATOM      2  C   UNL     1      89.589  50.078  41.191  0.00  0.00    +0.085 C 
ATOM      3  C   UNL     1      89.985  51.311  41.986  0.00  0.00    -0.022 C 
ATOM      4  C   UNL     1      89.442  52.436  41.145  0.00  0.00    -0.022 C 
ATOM      5  C   UNL     1      88.409  51.758  40.236  0.00  0.00    +0.085 C 
ATOM      6  O   UNL     1      88.397  50.372  40.501  0.00  0.00    -0.368 OA
BRANCH   2  10
ATOM      7  C   UNL     1      89.690  46.580  41.883  0.00  0.00    +0.085 C 
ATOM      8  C   UNL     1      90.539  47.037  43.074  0.00  0.00    -0.022 C 
ATOM      9  C   UNL     1      90.677  48.508  42.853  0.00  0.00    -0.022 C 
ATOM     10  C   UNL     1      89.411  48.837  42.086  0.00  0.00    +0.085 C 
ATOM     11  O   UNL     1      89.057  47.711  41.312  0.00  0.00    -0.368 OA
BRANCH   7  12
ATOM     12  C   UNL     1      88.632  45.524  42.273  0.00  0.00    +0.081 C 
BRANCH  12  13
ATOM     13  O   UNL     1      89.031  44.877  43.453  0.00  0.00    -0.389 OA
ATOM     14  H   UNL     1      88.284  44.842  44.071  0.00  0.00    +0.000 HD
ENDBRANCH  12  13
BRANCH  12  15
ATOM     15  C   UNL     1      87.248  46.170  42.504  0.00  0.00    -0.024 C 
BRANCH  15  16
ATOM     16  C   UNL     1      86.323  45.337  43.408  0.00  0.00    -0.051 C 
BRANCH  16  17
ATOM     17  C   UNL     1      85.576  46.192  44.446  0.00  0.00    -0.053 C 
BRANCH  17  18
ATOM     18  C   UNL     1      84.529  47.122  43.811  0.00  0.00    -0.053 C 
BRANCH  18  19
ATOM     19  C   UNL     1      84.737  48.616  44.151  0.00  0.00    -0.053 C 
BRANCH  19  20
ATOM     20  C   UNL     1      85.829  48.860  45.224  0.00  0.00    -0.053 C 
BRANCH  20  21
ATOM     21  C   UNL     1      87.164  49.353  44.633  0.00  0.00    -0.053 C 
BRANCH  21  22
ATOM     22  C   UNL     1      87.668  50.675  45.251  0.00  0.00    -0.053 C 
BRANCH  22  24
ATOM     23  C   UNL     1      88.144  50.265  47.731  0.00  0.00    -0.065 C 
ATOM     24  C   UNL     1      87.206  50.893  46.702  0.00  0.00    -0.056 C 
ENDBRANCH  22  24
ENDBRANCH  21  22
ENDBRANCH  20  21
ENDBRANCH  19  20
ENDBRANCH  18  19
ENDBRANCH  17  18
ENDBRANCH  16  17
ENDBRANCH  15  16
ENDBRANCH  12  15
ENDBRANCH   7  12
ENDBRANCH   2  10
ENDBRANCH   1   5
BRANCH   1  25
ATOM     25  O   UNL     1      86.832  53.449  39.448  0.00  0.00    -0.389 OA
ATOM     26  H   UNL     1      87.636  53.990  39.485  0.00  0.00    +0.000 HD
ENDBRANCH   1  25
BRANCH   1  27
ATOM     27  C   UNL     1      86.453  52.675  41.729  0.00  0.00    -0.024 C 
BRANCH  27  28
ATOM     28  C   UNL     1      85.407  51.711  42.321  0.00  0.00    -0.051 C 
BRANCH  28  29
ATOM     29  C   UNL     1      84.730  52.242  43.605  0.00  0.00    -0.053 C 
BRANCH  29  30
ATOM     30  C   UNL     1      83.200  52.096  43.556  0.00  0.00    -0.053 C 
BRANCH  30  31
ATOM     31  C   UNL     1      82.634  52.159  42.127  0.00  0.00    -0.053 C 
BRANCH  31  32
ATOM     32  C   UNL     1      82.270  53.575  41.638  0.00  0.00    -0.053 C 
BRANCH  32  33
ATOM     33  C   UNL     1      83.243  54.183  40.609  0.00  0.00    -0.053 C 
BRANCH  33  34
ATOM     34  C   UNL     1      83.986  55.444  41.084  0.00  0.00    -0.053 C 
BRANCH  34  35
ATOM     35  C   UNL     1      83.852  55.671  42.600  0.00  0.00    -0.051 C 
BRANCH  35  36
ATOM     36  C   UNL     1      85.211  55.800  43.310  0.00  0.00    -0.027 C 
BRANCH  36  37
ATOM     37  C   UNL     1      85.314  57.060  44.213  0.00  0.00    +0.059 C 
BRANCH  37  38
ATOM     38  O   UNL     1      84.028  57.550  44.509  0.00  0.00    -0.391 OA
ATOM     39  H   UNL     1      84.086  58.487  44.750  0.00  0.00    +0.000 HD
ENDBRANCH  37  38
BRANCH  37  40
ATOM     40  C   UNL     1      86.097  56.771  45.514  0.00  0.00    +0.005 C 
BRANCH  40  41
ATOM     41  C   UNL     1      85.384  55.761  46.374  0.00  0.00    +0.039 C 
ATOM     42  C   UNL     1      85.729  54.486  46.536  0.00  0.00    -0.034 C 
ATOM     43  C   UNL     1      84.747  53.786  47.438  0.00  0.00    +0.120 C 
ATOM     44  O   UNL     1      83.820  54.812  47.784  0.00  0.00    -0.454 OA
ATOM     45  C   UNL     1      84.183  55.982  47.146  0.00  0.00    +0.336 C 
ATOM     46  O   UNL     1      83.569  57.079  47.270  0.00  0.00    -0.245 OA
ATOM     47  C   UNL     1      85.432  53.240  48.688  0.00  0.00    -0.024 C 
ENDBRANCH  40  41
ENDBRANCH  37  40
ENDBRANCH  36  37
ENDBRANCH  35  36
ENDBRANCH  34  35
ENDBRANCH  33  34
ENDBRANCH  32  33
ENDBRANCH  31  32
ENDBRANCH  30  31
ENDBRANCH  29  30
ENDBRANCH  28  29
ENDBRANCH  27  28
ENDBRANCH   1  27
TORSDOF 28
ENDMDL
MODEL 6
REMARK VINA RESULT:    -8.325      1.436      2.674
REMARK INTER + INTRA:         -25.529
REMARK INTER:                 -20.707
REMARK INTRA:                  -4.822
REMARK UNBOUND:                -4.307
REMARK  Name = 
REMARK  30 active torsions:
REMARK  status: ('A' for Active; 'I' for Inactive)
REMARK    1  A    between atoms: C_1  and  C_2
REMARK    2  A    between atoms: C_2  and  C_3
REMARK    3  A    between atoms: C_3  and  C_4
REMARK    4  A    between atoms: C_4  and  C_5
REMARK    5  A    between atoms: C_5  and  C_6
REMARK    6  A    between atoms: C_6  and  C_7
REMARK    7  A    between atoms: C_7  and  C_8
REMARK    8  A    between atoms: C_8  and  C_9
REMARK    9  A    between atoms: C_9  and  C_10
REMARK   10  A    between atoms: C_10  and  C_11
REMARK   11  A    between atoms: C_11  and  C_12
REMARK   12  A    between atoms: C_11  and  O_44
REMARK   13  A    between atoms: C_15  and  C_17
REMARK   14  A    between atoms: C_20  and  C_22
REMARK   15  A    between atoms: C_22  and  C_23
REMARK   16  A    between atoms: C_22  and  O_43
REMARK   17  A    between atoms: C_23  and  C_24
REMARK   18  A    between atoms: C_24  and  C_25
REMARK   19  A    between atoms: C_25  and  C_26
REMARK   20  A    between atoms: C_26  and  C_27
REMARK   21  A    between atoms: C_27  and  C_28
REMARK   22  A    between atoms: C_28  and  C_29
REMARK   23  A    between atoms: C_29  and  C_30
REMARK   24  A    between atoms: C_30  and  C_31
REMARK   25  A    between atoms: C_31  and  C_32
REMARK   26  A    between atoms: C_32  and  C_33
REMARK   27  A    between atoms: C_33  and  C_34
REMARK   28  A    between atoms: C_33  and  O_42
REMARK   29  A    between atoms: C_34  and  C_35
REMARK   30  A    between atoms: C_37  and  C_41
REMARK                            x       y       z     vdW  Elec       q    Type
REMARK                         _______ _______ _______ _____ _____    ______ ____
ROOT
ATOM      1  C   UNL     1      86.625  52.502  41.187  0.00  0.00    +0.081 C 
ENDROOT
BRANCH   1   5
ATOM      2  C   UNL     1      88.973  49.810  41.283  0.00  0.00    +0.085 C 
ATOM      3  C   UNL     1      89.750  50.906  41.994  0.00  0.00    -0.022 C 
ATOM      4  C   UNL     1      89.206  52.161  41.364  0.00  0.00    -0.022 C 
ATOM      5  C   UNL     1      87.883  51.716  40.728  0.00  0.00    +0.085 C 
ATOM      6  O   UNL     1      87.711  50.331  40.936  0.00  0.00    -0.368 OA
BRANCH   2  10
ATOM      7  C   UNL     1      88.657  46.295  41.796  0.00  0.00    +0.085 C 
ATOM      8  C   UNL     1      89.845  46.521  42.737  0.00  0.00    -0.022 C 
ATOM      9  C   UNL     1      90.168  47.966  42.541  0.00  0.00    -0.022 C 
ATOM     10  C   UNL     1      88.822  48.544  42.148  0.00  0.00    +0.085 C 
ATOM     11  O   UNL     1      88.099  47.550  41.455  0.00  0.00    -0.368 OA
BRANCH   7  12
ATOM     12  C   UNL     1      87.571  45.385  42.413  0.00  0.00    +0.081 C 
BRANCH  12  13
ATOM     13  O   UNL     1      88.172  44.474  43.297  0.00  0.00    -0.389 OA
ATOM     14  H   UNL     1      87.484  43.961  43.748  0.00  0.00    +0.000 HD
ENDBRANCH  12  13
BRANCH  12  15
ATOM     15  C   UNL     1      86.518  46.208  43.187  0.00  0.00    -0.024 C 
BRANCH  15  16
ATOM     16  C   UNL     1      85.706  45.376  44.195  0.00  0.00    -0.051 C 
BRANCH  16  17
ATOM     17  C   UNL     1      84.191  45.442  43.939  0.00  0.00    -0.053 C 
BRANCH  17  18
ATOM     18  C   UNL     1      83.679  46.880  43.753  0.00  0.00    -0.053 C 
BRANCH  18  19
ATOM     19  C   UNL     1      82.240  46.960  43.193  0.00  0.00    -0.053 C 
BRANCH  19  20
ATOM     20  C   UNL     1      81.576  48.346  43.389  0.00  0.00    -0.053 C 
BRANCH  20  21
ATOM     21  C   UNL     1      82.366  49.273  44.333  0.00  0.00    -0.053 C 
BRANCH  21  22
ATOM     22  C   UNL     1      82.669  50.662  43.731  0.00  0.00    -0.053 C 
BRANCH  22  24
ATOM     23  C   UNL     1      81.645  52.349  42.103  0.00  0.00    -0.065 C 
ATOM     24  C   UNL     1      82.025  50.891  42.353  0.00  0.00    -0.056 C 
ENDBRANCH  22  24
ENDBRANCH  21  22
ENDBRANCH  20  21
ENDBRANCH  19  20
ENDBRANCH  18  19
ENDBRANCH  17  18
ENDBRANCH  16  17
ENDBRANCH  15  16
ENDBRANCH  12  15
ENDBRANCH   7  12
ENDBRANCH   2  10
ENDBRANCH   1   5
BRANCH   1  25
ATOM     25  O   UNL     1      86.960  53.802  41.602  0.00  0.00    -0.389 OA
ATOM     26  H   UNL     1      87.369  53.765  42.481  0.00  0.00    +0.000 HD
ENDBRANCH   1  25
BRANCH   1  27
ATOM     27  C   UNL     1      85.741  51.791  42.246  0.00  0.00    -0.024 C 
BRANCH  27  28
ATOM     28  C   UNL     1      85.695  52.433  43.646  0.00  0.00    -0.051 C 
BRANCH  28  29
ATOM     29  C   UNL     1      86.817  51.944  44.590  0.00  0.00    -0.053 C 
BRANCH  29  30
ATOM     30  C   UNL     1      86.951  50.412  44.585  0.00  0.00    -0.053 C 
BRANCH  30  31
ATOM     31  C   UNL     1      87.876  49.884  45.694  0.00  0.00    -0.053 C 
BRANCH  31  32
ATOM     32  C   UNL     1      87.909  50.746  46.972  0.00  0.00    -0.053 C 
BRANCH  32  33
ATOM     33  C   UNL     1      86.800  50.440  47.997  0.00  0.00    -0.053 C 
BRANCH  33  34
ATOM     34  C   UNL     1      86.343  51.644  48.839  0.00  0.00    -0.053 C 
BRANCH  34  35
ATOM     35  C   UNL     1      85.483  52.634  48.034  0.00  0.00    -0.051 C 
BRANCH  35  36
ATOM     36  C   UNL     1      85.303  53.987  48.744  0.00  0.00    -0.027 C 
BRANCH  36  37
ATOM     37  C   UNL     1      84.688  55.082  47.829  0.00  0.00    +0.059 C 
BRANCH  37  38
ATOM     38  O   UNL     1      83.643  55.744  48.501  0.00  0.00    -0.391 OA
ATOM     39  H   UNL     1      83.623  56.675  48.230  0.00  0.00    +0.000 HD
ENDBRANCH  37  38
BRANCH  37  40
ATOM     40  C   UNL     1      85.753  56.095  47.350  0.00  0.00    +0.005 C 
BRANCH  40  41
ATOM     41  C   UNL     1      85.486  56.551  45.941  0.00  0.00    +0.039 C 
ATOM     42  C   UNL     1      85.752  55.866  44.831  0.00  0.00    -0.034 C 
ATOM     43  C   UNL     1      85.382  56.672  43.613  0.00  0.00    +0.120 C 
ATOM     44  O   UNL     1      84.859  57.881  44.159  0.00  0.00    -0.454 OA
ATOM     45  C   UNL     1      84.930  57.822  45.537  0.00  0.00    +0.336 C 
ATOM     46  O   UNL     1      84.523  58.735  46.308  0.00  0.00    -0.245 OA
ATOM     47  C   UNL     1      84.322  55.960  42.777  0.00  0.00    -0.024 C 
ENDBRANCH  40  41
ENDBRANCH  37  40
ENDBRANCH  36  37
ENDBRANCH  35  36
ENDBRANCH  34  35
ENDBRANCH  33  34
ENDBRANCH  32  33
ENDBRANCH  31  32
ENDBRANCH  30  31
ENDBRANCH  29  30
ENDBRANCH  28  29
ENDBRANCH  27  28
ENDBRANCH   1  27
TORSDOF 28
ENDMDL
MODEL 7
REMARK VINA RESULT:    -8.277      2.010      8.444
REMARK INTER + INTRA:         -25.407
REMARK INTER:                 -20.085
REMARK INTRA:                  -5.321
REMARK UNBOUND:                -4.307
REMARK  Name = 
REMARK  30 active torsions:
REMARK  status: ('A' for Active; 'I' for Inactive)
REMARK    1  A    between atoms: C_1  and  C_2
REMARK    2  A    between atoms: C_2  and  C_3
REMARK    3  A    between atoms: C_3  and  C_4
REMARK    4  A    between atoms: C_4  and  C_5
REMARK    5  A    between atoms: C_5  and  C_6
REMARK    6  A    between atoms: C_6  and  C_7
REMARK    7  A    between atoms: C_7  and  C_8
REMARK    8  A    between atoms: C_8  and  C_9
REMARK    9  A    between atoms: C_9  and  C_10
REMARK   10  A    between atoms: C_10  and  C_11
REMARK   11  A    between atoms: C_11  and  C_12
REMARK   12  A    between atoms: C_11  and  O_44
REMARK   13  A    between atoms: C_15  and  C_17
REMARK   14  A    between atoms: C_20  and  C_22
REMARK   15  A    between atoms: C_22  and  C_23
REMARK   16  A    between atoms: C_22  and  O_43
REMARK   17  A    between atoms: C_23  and  C_24
REMARK   18  A    between atoms: C_24  and  C_25
REMARK   19  A    between atoms: C_25  and  C_26
REMARK   20  A    between atoms: C_26  and  C_27
REMARK   21  A    between atoms: C_27  and  C_28
REMARK   22  A    between atoms: C_28  and  C_29
REMARK   23  A    between atoms: C_29  and  C_30
REMARK   24  A    between atoms: C_30  and  C_31
REMARK   25  A    between atoms: C_31  and  C_32
REMARK   26  A    between atoms: C_32  and  C_33
REMARK   27  A    between atoms: C_33  and  C_34
REMARK   28  A    between atoms: C_33  and  O_42
REMARK   29  A    between atoms: C_34  and  C_35
REMARK   30  A    between atoms: C_37  and  C_41
REMARK                            x       y       z     vdW  Elec       q    Type
REMARK                         _______ _______ _______ _____ _____    ______ ____
ROOT
ATOM      1  C   UNL     1      83.670  55.181  47.741  0.00  0.00    +0.081 C 
ENDROOT
BRANCH   1   5
ATOM      2  C   UNL     1      85.522  56.326  44.908  0.00  0.00    +0.085 C 
ATOM      3  C   UNL     1      86.615  55.655  45.723  0.00  0.00    -0.022 C 
ATOM      4  C   UNL     1      86.126  55.826  47.137  0.00  0.00    -0.022 C 
ATOM      5  C   UNL     1      84.631  56.135  46.981  0.00  0.00    +0.085 C 
ATOM      6  O   UNL     1      84.309  56.181  45.607  0.00  0.00    -0.368 OA
BRANCH   2  10
ATOM      7  C   UNL     1      84.709  53.782  42.544  0.00  0.00    +0.085 C 
ATOM      8  C   UNL     1      83.900  54.911  41.897  0.00  0.00    -0.022 C 
ATOM      9  C   UNL     1      84.061  56.043  42.859  0.00  0.00    -0.022 C 
ATOM     10  C   UNL     1      85.407  55.740  43.488  0.00  0.00    +0.085 C 
ATOM     11  O   UNL     1      85.579  54.339  43.512  0.00  0.00    -0.368 OA
BRANCH   7  12
ATOM     12  C   UNL     1      85.520  52.963  41.515  0.00  0.00    +0.081 C 
BRANCH  12  13
ATOM     13  O   UNL     1      85.684  53.718  40.342  0.00  0.00    -0.389 OA
ATOM     14  H   UNL     1      86.050  54.587  40.567  0.00  0.00    +0.000 HD
ENDBRANCH  12  13
BRANCH  12  15
ATOM     15  C   UNL     1      86.913  52.587  42.064  0.00  0.00    -0.024 C 
BRANCH  15  16
ATOM     16  C   UNL     1      87.306  51.124  41.798  0.00  0.00    -0.051 C 
BRANCH  16  17
ATOM     17  C   UNL     1      88.616  50.994  41.001  0.00  0.00    -0.053 C 
BRANCH  17  18
ATOM     18  C   UNL     1      89.845  50.793  41.902  0.00  0.00    -0.053 C 
BRANCH  18  19
ATOM     19  C   UNL     1      89.894  49.407  42.586  0.00  0.00    -0.053 C 
BRANCH  19  20
ATOM     20  C   UNL     1      89.868  48.222  41.587  0.00  0.00    -0.053 C 
BRANCH  20  21
ATOM     21  C   UNL     1      89.176  46.965  42.150  0.00  0.00    -0.053 C 
BRANCH  21  22
ATOM     22  C   UNL     1      87.684  47.176  42.488  0.00  0.00    -0.053 C 
BRANCH  22  24
ATOM     23  C   UNL     1      87.812  44.629  42.686  0.00  0.00    -0.065 C 
ATOM     24  C   UNL     1      86.940  45.873  42.830  0.00  0.00    -0.056 C 
ENDBRANCH  22  24
ENDBRANCH  21  22
ENDBRANCH  20  21
ENDBRANCH  19  20
ENDBRANCH  18  19
ENDBRANCH  17  18
ENDBRANCH  16  17
ENDBRANCH  15  16
ENDBRANCH  12  15
ENDBRANCH   7  12
ENDBRANCH   2  10
ENDBRANCH   1   5
BRANCH   1  25
ATOM     25  O   UNL     1      83.532  55.563  49.086  0.00  0.00    -0.389 OA
ATOM     26  H   UNL     1      84.144  56.291  49.279  0.00  0.00    +0.000 HD
ENDBRANCH   1  25
BRANCH   1  27
ATOM     27  C   UNL     1      83.996  53.669  47.623  0.00  0.00    -0.024 C 
BRANCH  27  28
ATOM     28  C   UNL     1      84.711  53.024  48.826  0.00  0.00    -0.051 C 
BRANCH  28  29
ATOM     29  C   UNL     1      85.969  52.213  48.438  0.00  0.00    -0.053 C 
BRANCH  29  30
ATOM     30  C   UNL     1      86.167  52.145  46.915  0.00  0.00    -0.053 C 
BRANCH  30  31
ATOM     31  C   UNL     1      87.515  51.524  46.509  0.00  0.00    -0.053 C 
BRANCH  31  32
ATOM     32  C   UNL     1      87.430  50.484  45.373  0.00  0.00    -0.053 C 
BRANCH  32  33
ATOM     33  C   UNL     1      86.442  49.327  45.617  0.00  0.00    -0.053 C 
BRANCH  33  34
ATOM     34  C   UNL     1      85.378  49.140  44.520  0.00  0.00    -0.053 C 
BRANCH  34  35
ATOM     35  C   UNL     1      84.607  50.437  44.220  0.00  0.00    -0.051 C 
BRANCH  35  36
ATOM     36  C   UNL     1      83.127  50.364  44.634  0.00  0.00    -0.027 C 
BRANCH  36  37
ATOM     37  C   UNL     1      82.151  50.779  43.498  0.00  0.00    +0.059 C 
BRANCH  37  38
ATOM     38  O   UNL     1      82.816  50.758  42.258  0.00  0.00    -0.391 OA
ATOM     39  H   UNL     1      82.169  50.849  41.542  0.00  0.00    +0.000 HD
ENDBRANCH  37  38
BRANCH  37  40
ATOM     40  C   UNL     1      80.900  49.872  43.458  0.00  0.00    +0.005 C 
BRANCH  40  41
ATOM     41  C   UNL     1      81.232  48.456  43.844  0.00  0.00    +0.039 C 
ATOM     42  C   UNL     1      82.028  47.626  43.173  0.00  0.00    -0.034 C 
ATOM     43  C   UNL     1      82.078  46.282  43.851  0.00  0.00    +0.120 C 
ATOM     44  O   UNL     1      81.240  46.451  44.992  0.00  0.00    -0.454 OA
ATOM     45  C   UNL     1      80.725  47.732  44.987  0.00  0.00    +0.336 C 
ATOM     46  O   UNL     1      79.961  48.194  45.882  0.00  0.00    -0.245 OA
ATOM     47  C   UNL     1      83.500  45.930  44.280  0.00  0.00    -0.024 C 
ENDBRANCH  40  41
ENDBRANCH  37  40
ENDBRANCH  36  37
ENDBRANCH  35  36
ENDBRANCH  34  35
ENDBRANCH  33  34
ENDBRANCH  32  33
ENDBRANCH  31  32
ENDBRANCH  30  31
ENDBRANCH  29  30
ENDBRANCH  28  29
ENDBRANCH  27  28
ENDBRANCH   1  27
TORSDOF 28
ENDMDL
MODEL 8
REMARK VINA RESULT:    -8.204      1.779      8.669
REMARK INTER + INTRA:         -25.222
REMARK INTER:                 -19.955
REMARK INTRA:                  -5.266
REMARK UNBOUND:                -4.307
REMARK  Name = 
REMARK  30 active torsions:
REMARK  status: ('A' for Active; 'I' for Inactive)
REMARK    1  A    between atoms: C_1  and  C_2
REMARK    2  A    between atoms: C_2  and  C_3
REMARK    3  A    between atoms: C_3  and  C_4
REMARK    4  A    between atoms: C_4  and  C_5
REMARK    5  A    between atoms: C_5  and  C_6
REMARK    6  A    between atoms: C_6  and  C_7
REMARK    7  A    between atoms: C_7  and  C_8
REMARK    8  A    between atoms: C_8  and  C_9
REMARK    9  A    between atoms: C_9  and  C_10
REMARK   10  A    between atoms: C_10  and  C_11
REMARK   11  A    between atoms: C_11  and  C_12
REMARK   12  A    between atoms: C_11  and  O_44
REMARK   13  A    between atoms: C_15  and  C_17
REMARK   14  A    between atoms: C_20  and  C_22
REMARK   15  A    between atoms: C_22  and  C_23
REMARK   16  A    between atoms: C_22  and  O_43
REMARK   17  A    between atoms: C_23  and  C_24
REMARK   18  A    between atoms: C_24  and  C_25
REMARK   19  A    between atoms: C_25  and  C_26
REMARK   20  A    between atoms: C_26  and  C_27
REMARK   21  A    between atoms: C_27  and  C_28
REMARK   22  A    between atoms: C_28  and  C_29
REMARK   23  A    between atoms: C_29  and  C_30
REMARK   24  A    between atoms: C_30  and  C_31
REMARK   25  A    between atoms: C_31  and  C_32
REMARK   26  A    between atoms: C_32  and  C_33
REMARK   27  A    between atoms: C_33  and  C_34
REMARK   28  A    between atoms: C_33  and  O_42
REMARK   29  A    between atoms: C_34  and  C_35
REMARK   30  A    between atoms: C_37  and  C_41
REMARK                            x       y       z     vdW  Elec       q    Type
REMARK                         _______ _______ _______ _____ _____    ______ ____
ROOT
ATOM      1  C   UNL     1      85.525  56.874  43.915  0.00  0.00    +0.081 C 
ENDROOT
BRANCH   1   5
ATOM      2  C   UNL     1      86.479  54.700  46.585  0.00  0.00    +0.085 C 
ATOM      3  C   UNL     1      85.341  55.475  47.228  0.00  0.00    -0.022 C 
ATOM      4  C   UNL     1      85.404  56.803  46.522  0.00  0.00    -0.022 C 
ATOM      5  C   UNL     1      86.221  56.515  45.256  0.00  0.00    +0.085 C 
ATOM      6  O   UNL     1      86.625  55.162  45.263  0.00  0.00    -0.368 OA
BRANCH   2  10
ATOM      7  C   UNL     1      87.464  51.301  47.036  0.00  0.00    +0.085 C 
ATOM      8  C   UNL     1      86.256  51.279  47.979  0.00  0.00    -0.022 C 
ATOM      9  C   UNL     1      85.792  52.699  47.977  0.00  0.00    -0.022 C 
ATOM     10  C   UNL     1      86.237  53.179  46.608  0.00  0.00    +0.085 C 
ATOM     11  O   UNL     1      87.412  52.481  46.256  0.00  0.00    -0.368 OA
BRANCH   7  12
ATOM     12  C   UNL     1      87.526  50.062  46.115  0.00  0.00    +0.081 C 
BRANCH  12  13
ATOM     13  O   UNL     1      86.294  49.390  46.153  0.00  0.00    -0.389 OA
ATOM     14  H   UNL     1      85.612  49.986  46.499  0.00  0.00    +0.000 HD
ENDBRANCH  12  13
BRANCH  12  15
ATOM     15  C   UNL     1      87.832  50.459  44.654  0.00  0.00    -0.024 C 
BRANCH  15  16
ATOM     16  C   UNL     1      86.825  49.892  43.639  0.00  0.00    -0.051 C 
BRANCH  16  17
ATOM     17  C   UNL     1      86.022  50.989  42.919  0.00  0.00    -0.053 C 
BRANCH  17  18
ATOM     18  C   UNL     1      86.772  52.330  42.851  0.00  0.00    -0.053 C 
BRANCH  18  19
ATOM     19  C   UNL     1      87.533  52.550  41.523  0.00  0.00    -0.053 C 
BRANCH  19  20
ATOM     20  C   UNL     1      89.042  52.211  41.610  0.00  0.00    -0.053 C 
BRANCH  20  21
ATOM     21  C   UNL     1      89.392  50.830  41.023  0.00  0.00    -0.053 C 
BRANCH  21  22
ATOM     22  C   UNL     1      90.165  49.917  41.999  0.00  0.00    -0.053 C 
BRANCH  22  24
ATOM     23  C   UNL     1      90.543  47.527  42.829  0.00  0.00    -0.065 C 
ATOM     24  C   UNL     1      89.957  48.416  41.734  0.00  0.00    -0.056 C 
ENDBRANCH  22  24
ENDBRANCH  21  22
ENDBRANCH  20  21
ENDBRANCH  19  20
ENDBRANCH  18  19
ENDBRANCH  17  18
ENDBRANCH  16  17
ENDBRANCH  15  16
ENDBRANCH  12  15
ENDBRANCH   7  12
ENDBRANCH   2  10
ENDBRANCH   1   5
BRANCH   1  25
ATOM     25  O   UNL     1      85.700  58.232  43.599  0.00  0.00    -0.389 OA
ATOM     26  H   UNL     1      86.300  58.312  42.841  0.00  0.00    +0.000 HD
ENDBRANCH   1  25
BRANCH   1  27
ATOM     27  C   UNL     1      84.032  56.466  43.807  0.00  0.00    -0.024 C 
BRANCH  27  28
ATOM     28  C   UNL     1      83.735  55.122  43.113  0.00  0.00    -0.051 C 
BRANCH  28  29
ATOM     29  C   UNL     1      84.410  54.977  41.729  0.00  0.00    -0.053 C 
BRANCH  29  30
ATOM     30  C   UNL     1      83.833  53.802  40.924  0.00  0.00    -0.053 C 
BRANCH  30  31
ATOM     31  C   UNL     1      82.453  53.345  41.428  0.00  0.00    -0.053 C 
BRANCH  31  32
ATOM     32  C   UNL     1      82.348  51.841  41.752  0.00  0.00    -0.053 C 
BRANCH  32  33
ATOM     33  C   UNL     1      82.490  51.480  43.243  0.00  0.00    -0.053 C 
BRANCH  33  34
ATOM     34  C   UNL     1      81.924  50.105  43.635  0.00  0.00    -0.053 C 
BRANCH  34  35
ATOM     35  C   UNL     1      83.027  49.091  43.983  0.00  0.00    -0.051 C 
BRANCH  35  36
ATOM     36  C   UNL     1      82.869  47.753  43.239  0.00  0.00    -0.027 C 
BRANCH  36  37
ATOM     37  C   UNL     1      83.681  46.595  43.880  0.00  0.00    +0.059 C 
BRANCH  37  38
ATOM     38  O   UNL     1      82.887  45.908  44.817  0.00  0.00    -0.391 OA
ATOM     39  H   UNL     1      82.235  46.517  45.197  0.00  0.00    +0.000 HD
ENDBRANCH  37  38
BRANCH  37  40
ATOM     40  C   UNL     1      84.229  45.619  42.814  0.00  0.00    +0.005 C 
BRANCH  40  41
ATOM     41  C   UNL     1      85.618  45.152  43.155  0.00  0.00    +0.039 C 
ATOM     42  C   UNL     1      85.930  44.102  43.911  0.00  0.00    -0.034 C 
ATOM     43  C   UNL     1      87.424  43.983  44.057  0.00  0.00    +0.120 C 
ATOM     44  O   UNL     1      87.924  45.071  43.282  0.00  0.00    -0.454 OA
ATOM     45  C   UNL     1      86.859  45.776  42.756  0.00  0.00    +0.336 C 
ATOM     46  O   UNL     1      86.978  46.785  42.005  0.00  0.00    -0.245 OA
ATOM     47  C   UNL     1      87.932  42.654  43.503  0.00  0.00    -0.024 C 
ENDBRANCH  40  41
ENDBRANCH  37  40
ENDBRANCH  36  37
ENDBRANCH  35  36
ENDBRANCH  34  35
ENDBRANCH  33  34
ENDBRANCH  32  33
ENDBRANCH  31  32
ENDBRANCH  30  31
ENDBRANCH  29  30
ENDBRANCH  28  29
ENDBRANCH  27  28
ENDBRANCH   1  27
TORSDOF 28
ENDMDL
MODEL 9
REMARK VINA RESULT:    -8.102      1.829      8.413
REMARK INTER + INTRA:         -24.962
REMARK INTER:                 -20.655
REMARK INTRA:                  -4.307
REMARK UNBOUND:                -4.307
REMARK  Name = 
REMARK  30 active torsions:
REMARK  status: ('A' for Active; 'I' for Inactive)
REMARK    1  A    between atoms: C_1  and  C_2
REMARK    2  A    between atoms: C_2  and  C_3
REMARK    3  A    between atoms: C_3  and  C_4
REMARK    4  A    between atoms: C_4  and  C_5
REMARK    5  A    between atoms: C_5  and  C_6
REMARK    6  A    between atoms: C_6  and  C_7
REMARK    7  A    between atoms: C_7  and  C_8
REMARK    8  A    between atoms: C_8  and  C_9
REMARK    9  A    between atoms: C_9  and  C_10
REMARK   10  A    between atoms: C_10  and  C_11
REMARK   11  A    between atoms: C_11  and  C_12
REMARK   12  A    between atoms: C_11  and  O_44
REMARK   13  A    between atoms: C_15  and  C_17
REMARK   14  A    between atoms: C_20  and  C_22
REMARK   15  A    between atoms: C_22  and  C_23
REMARK   16  A    between atoms: C_22  and  O_43
REMARK   17  A    between atoms: C_23  and  C_24
REMARK   18  A    between atoms: C_24  and  C_25
REMARK   19  A    between atoms: C_25  and  C_26
REMARK   20  A    between atoms: C_26  and  C_27
REMARK   21  A    between atoms: C_27  and  C_28
REMARK   22  A    between atoms: C_28  and  C_29
REMARK   23  A    between atoms: C_29  and  C_30
REMARK   24  A    between atoms: C_30  and  C_31
REMARK   25  A    between atoms: C_31  and  C_32
REMARK   26  A    between atoms: C_32  and  C_33
REMARK   27  A    between atoms: C_33  and  C_34
REMARK   28  A    between atoms: C_33  and  O_42
REMARK   29  A    between atoms: C_34  and  C_35
REMARK   30  A    between atoms: C_37  and  C_41
REMARK                            x       y       z     vdW  Elec       q    Type
REMARK                         _______ _______ _______ _____ _____    ______ ____
ROOT
ATOM      1  C   UNL     1      88.201  52.443  41.862  0.00  0.00    +0.081 C 
ENDROOT
BRANCH   1   5
ATOM      2  C   UNL     1      84.937  53.856  42.215  0.00  0.00    +0.085 C 
ATOM      3  C   UNL     1      84.698  52.435  42.700  0.00  0.00    -0.022 C 
ATOM      4  C   UNL     1      85.716  51.644  41.923  0.00  0.00    -0.022 C 
ATOM      5  C   UNL     1      86.726  52.697  41.448  0.00  0.00    +0.085 C 
ATOM      6  O   UNL     1      86.299  53.974  41.875  0.00  0.00    -0.368 OA
BRANCH   2  10
ATOM      7  C   UNL     1      85.622  56.427  44.591  0.00  0.00    +0.085 C 
ATOM      8  C   UNL     1      84.585  57.197  43.767  0.00  0.00    -0.022 C 
ATOM      9  C   UNL     1      84.277  56.262  42.642  0.00  0.00    -0.022 C 
ATOM     10  C   UNL     1      84.545  54.908  43.270  0.00  0.00    +0.085 C 
ATOM     11  O   UNL     1      85.570  55.060  44.228  0.00  0.00    -0.368 OA
BRANCH   7  12
ATOM     12  C   UNL     1      85.408  56.578  46.114  0.00  0.00    +0.081 C 
BRANCH  12  13
ATOM     13  O   UNL     1      85.337  57.941  46.442  0.00  0.00    -0.389 OA
ATOM     14  H   UNL     1      84.519  58.113  46.933  0.00  0.00    +0.000 HD
ENDBRANCH  12  13
BRANCH  12  15
ATOM     15  C   UNL     1      84.103  55.888  46.571  0.00  0.00    -0.024 C 
BRANCH  15  16
ATOM     16  C   UNL     1      83.834  56.019  48.080  0.00  0.00    -0.051 C 
BRANCH  16  17
ATOM     17  C   UNL     1      84.159  54.731  48.857  0.00  0.00    -0.053 C 
BRANCH  17  18
ATOM     18  C   UNL     1      85.484  54.087  48.417  0.00  0.00    -0.053 C 
BRANCH  18  19
ATOM     19  C   UNL     1      85.346  52.604  48.001  0.00  0.00    -0.053 C 
BRANCH  19  20
ATOM     20  C   UNL     1      85.070  52.408  46.489  0.00  0.00    -0.053 C 
BRANCH  20  21
ATOM     21  C   UNL     1      86.241  51.746  45.737  0.00  0.00    -0.053 C 
BRANCH  21  22
ATOM     22  C   UNL     1      87.491  51.514  46.613  0.00  0.00    -0.053 C 
BRANCH  22  24
ATOM     23  C   UNL     1      88.746  49.909  48.161  0.00  0.00    -0.065 C 
ATOM     24  C   UNL     1      87.597  50.083  47.170  0.00  0.00    -0.056 C 
ENDBRANCH  22  24
ENDBRANCH  21  22
ENDBRANCH  20  21
ENDBRANCH  19  20
ENDBRANCH  18  19
ENDBRANCH  17  18
ENDBRANCH  16  17
ENDBRANCH  15  16
ENDBRANCH  12  15
ENDBRANCH   7  12
ENDBRANCH   2  10
ENDBRANCH   1   5
BRANCH   1  25
ATOM     25  O   UNL     1      88.925  53.646  41.928  0.00  0.00    -0.389 OA
ATOM     26  H   UNL     1      89.019  54.015  41.036  0.00  0.00    +0.000 HD
ENDBRANCH   1  25
BRANCH   1  27
ATOM     27  C   UNL     1      88.959  51.383  41.020  0.00  0.00    -0.024 C 
BRANCH  27  28
ATOM     28  C   UNL     1      89.476  50.145  41.778  0.00  0.00    -0.051 C 
BRANCH  28  29
ATOM     29  C   UNL     1      88.752  49.894  43.121  0.00  0.00    -0.053 C 
BRANCH  29  30
ATOM     30  C   UNL     1      89.572  48.994  44.060  0.00  0.00    -0.053 C 
BRANCH  30  31
ATOM     31  C   UNL     1      90.751  48.301  43.355  0.00  0.00    -0.053 C 
BRANCH  31  32
ATOM     32  C   UNL     1      90.586  46.779  43.165  0.00  0.00    -0.053 C 
BRANCH  32  33
ATOM     33  C   UNL     1      89.359  46.352  42.336  0.00  0.00    -0.053 C 
BRANCH  33  34
ATOM     34  C   UNL     1      88.722  45.017  42.758  0.00  0.00    -0.053 C 
BRANCH  34  35
ATOM     35  C   UNL     1      87.190  45.105  42.871  0.00  0.00    -0.051 C 
BRANCH  35  36
ATOM     36  C   UNL     1      86.687  46.541  43.104  0.00  0.00    -0.027 C 
BRANCH  36  37
ATOM     37  C   UNL     1      85.297  46.598  43.797  0.00  0.00    +0.059 C 
BRANCH  37  38
ATOM     38  O   UNL     1      85.371  46.021  45.079  0.00  0.00    -0.391 OA
ATOM     39  H   UNL     1      85.685  46.683  45.714  0.00  0.00    +0.000 HD
ENDBRANCH  37  38
BRANCH  37  40
ATOM     40  C   UNL     1      84.759  48.044  43.882  0.00  0.00    +0.005 C 
BRANCH  40  41
ATOM     41  C   UNL     1      83.257  48.069  43.975  0.00  0.00    +0.039 C 
ATOM     42  C   UNL     1      82.439  47.049  43.724  0.00  0.00    -0.034 C 
ATOM     43  C   UNL     1      81.002  47.475  43.883  0.00  0.00    +0.120 C 
ATOM     44  O   UNL     1      81.100  48.844  44.273  0.00  0.00    -0.454 OA
ATOM     45  C   UNL     1      82.433  49.206  44.316  0.00  0.00    +0.336 C 
ATOM     46  O   UNL     1      82.846  50.352  44.650  0.00  0.00    -0.245 OA
ATOM     47  C   UNL     1      80.299  46.660  44.965  0.00  0.00    -0.024 C 
ENDBRANCH  40  41
ENDBRANCH  37  40
ENDBRANCH  36  37
ENDBRANCH  35  36
ENDBRANCH  34  35
ENDBRANCH  33  34
ENDBRANCH  32  33
ENDBRANCH  31  32
ENDBRANCH  30  31
ENDBRANCH  29  30
ENDBRANCH  28  29
ENDBRANCH  27  28
ENDBRANCH   1  27
TORSDOF 28
ENDMDL
