MODEL 1
REMARK VINA RESULT:    -8.076      0.000      0.000
REMARK INTER + INTRA:          -9.444
REMARK INTER:                  -9.032
REMARK INTRA:                  -0.412
REMARK UNBOUND:                -0.424
REMARK  Name = 
REMARK  6 active torsions:
REMARK  status: ('A' for Active; 'I' for Inactive)
REMARK    1  A    between atoms: C_1  and  C_2
REMARK    2  A    between atoms: C_2  and  C_3
REMARK    3  A    between atoms: C_12  and  C_16
REMARK    4  A    between atoms: C_16  and  C_17
REMARK    5  A    between atoms: C_19  and  C_20
REMARK    6  A    between atoms: C_19  and  C_21
REMARK                            x       y       z     vdW  Elec       q    Type
REMARK                         _______ _______ _______ _____ _____    ______ ____
ROOT
ATOM      1  C   UNL     1      83.676  55.570  47.812  0.00  0.00    -0.021 C 
ATOM      2  C   UNL     1      85.066  55.205  47.278  0.00  0.00    +0.124 C 
ATOM      3  C   UNL     1      85.980  56.436  47.320  0.00  0.00    -0.021 C 
ATOM      4  C   UNL     1      85.669  54.112  48.146  0.00  0.00    -0.041 C 
ATOM      5  C   UNL     1      86.348  53.086  47.625  0.00  0.00    -0.051 C 
ATOM      6  C   UNL     1      86.435  52.904  46.169  0.00  0.00    +0.019 A 
ATOM      7  C   UNL     1      85.695  53.770  45.344  0.00  0.00    +0.153 A 
ATOM      8  O   UNL     1      84.924  54.790  45.910  0.00  0.00    -0.480 OA
ATOM      9  C   UNL     1      85.737  53.564  43.966  0.00  0.00    +0.090 A 
ATOM     10  N   UNL     1      85.101  54.268  43.013  0.00  0.00    -0.358 N 
ATOM     11  C   UNL     1      85.447  53.700  41.836  0.00  0.00    +0.006 A 
ATOM     12  C   UNL     1      86.310  52.628  42.048  0.00  0.00    -0.020 A 
ATOM     13  C   UNL     1      86.486  52.556  43.416  0.00  0.00    +0.007 A 
ATOM     14  C   UNL     1      87.239  51.683  44.204  0.00  0.00    -0.052 A 
ATOM     15  C   UNL     1      87.206  51.862  45.600  0.00  0.00    -0.050 A 
ATOM     16  H   UNL     1      84.504  55.040  43.146  0.00  0.00    +0.000 HD
ENDROOT
BRANCH  12  17
ATOM     17  C   UNL     1      86.892  51.727  41.002  0.00  0.00    +0.003 C 
BRANCH  17  18
ATOM     18  C   UNL     1      87.931  52.480  40.162  0.00  0.00    +0.092 C 
ATOM     19  O   UNL     1      88.718  51.592  39.392  0.00  0.00    -0.365 OA
ATOM     20  C   UNL     1      89.388  52.293  40.415  0.00  0.00    +0.091 C 
ATOM     21  C   UNL     1      89.902  51.364  41.521  0.00  0.00    -0.034 C 
ATOM     22  C   UNL     1      90.337  53.356  39.862  0.00  0.00    -0.034 C 
ENDBRANCH  17  18
ENDBRANCH  12  17
TORSDOF 2
ENDMDL
MODEL 2
REMARK VINA RESULT:    -8.029      2.502      3.109
REMARK INTER + INTRA:          -9.392
REMARK INTER:                  -9.107
REMARK INTRA:                  -0.285
REMARK UNBOUND:                -0.424
REMARK  Name = 
REMARK  6 active torsions:
REMARK  status: ('A' for Active; 'I' for Inactive)
REMARK    1  A    between atoms: C_1  and  C_2
REMARK    2  A    between atoms: C_2  and  C_3
REMARK    3  A    between atoms: C_12  and  C_16
REMARK    4  A    between atoms: C_16  and  C_17
REMARK    5  A    between atoms: C_19  and  C_20
REMARK    6  A    between atoms: C_19  and  C_21
REMARK                            x       y       z     vdW  Elec       q    Type
REMARK                         _______ _______ _______ _____ _____    ______ ____
ROOT
ATOM      1  C   UNL     1      83.770  56.144  46.606  0.00  0.00    -0.021 C 
ATOM      2  C   UNL     1      85.028  55.449  47.139  0.00  0.00    +0.124 C 
ATOM      3  C   UNL     1      86.156  56.474  47.314  0.00  0.00    -0.021 C 
ATOM      4  C   UNL     1      84.722  54.818  48.489  0.00  0.00    -0.041 C 
ATOM      5  C   UNL     1      85.180  53.609  48.827  0.00  0.00    -0.051 C 
ATOM      6  C   UNL     1      85.902  52.780  47.852  0.00  0.00    +0.019 A 
ATOM      7  C   UNL     1      86.001  53.241  46.528  0.00  0.00    +0.153 A 
ATOM      8  O   UNL     1      85.446  54.474  46.171  0.00  0.00    -0.480 OA
ATOM      9  C   UNL     1      86.641  52.430  45.591  0.00  0.00    +0.090 A 
ATOM     10  N   UNL     1      86.832  52.680  44.284  0.00  0.00    -0.358 N 
ATOM     11  C   UNL     1      87.496  51.611  43.793  0.00  0.00    +0.006 A 
ATOM     12  C   UNL     1      87.728  50.677  44.799  0.00  0.00    -0.020 A 
ATOM     13  C   UNL     1      87.175  51.218  45.944  0.00  0.00    +0.007 A 
ATOM     14  C   UNL     1      87.102  50.731  47.251  0.00  0.00    -0.052 A 
ATOM     15  C   UNL     1      86.451  51.527  48.213  0.00  0.00    -0.050 A 
ATOM     16  H   UNL     1      86.545  53.480  43.787  0.00  0.00    +0.000 HD
ENDROOT
BRANCH  12  17
ATOM     17  C   UNL     1      88.406  49.350  44.650  0.00  0.00    +0.003 C 
BRANCH  17  18
ATOM     18  C   UNL     1      88.774  49.096  43.183  0.00  0.00    +0.092 C 
ATOM     19  O   UNL     1      89.132  47.745  42.963  0.00  0.00    -0.365 OA
ATOM     20  C   UNL     1      90.161  48.697  42.809  0.00  0.00    +0.091 C 
ATOM     21  C   UNL     1      91.266  48.540  43.860  0.00  0.00    -0.034 C 
ATOM     22  C   UNL     1      90.571  48.874  41.347  0.00  0.00    -0.034 C 
ENDBRANCH  17  18
ENDBRANCH  12  17
TORSDOF 2
ENDMDL
MODEL 3
REMARK VINA RESULT:    -8.013      2.726      6.886
REMARK INTER + INTRA:          -9.375
REMARK INTER:                  -9.027
REMARK INTRA:                  -0.347
REMARK UNBOUND:                -0.424
REMARK  Name = 
REMARK  6 active torsions:
REMARK  status: ('A' for Active; 'I' for Inactive)
REMARK    1  A    between atoms: C_1  and  C_2
REMARK    2  A    between atoms: C_2  and  C_3
REMARK    3  A    between atoms: C_12  and  C_16
REMARK    4  A    between atoms: C_16  and  C_17
REMARK    5  A    between atoms: C_19  and  C_20
REMARK    6  A    between atoms: C_19  and  C_21
REMARK                            x       y       z     vdW  Elec       q    Type
REMARK                         _______ _______ _______ _____ _____    ______ ____
ROOT
ATOM      1  C   UNL     1      90.205  46.738  42.824  0.00  0.00    -0.021 C 
ATOM      2  C   UNL     1      90.322  48.260  42.968  0.00  0.00    +0.124 C 
ATOM      3  C   UNL     1      91.694  48.624  43.550  0.00  0.00    -0.021 C 
ATOM      4  C   UNL     1      90.180  48.908  41.599  0.00  0.00    -0.041 C 
ATOM      5  C   UNL     1      89.476  50.029  41.415  0.00  0.00    -0.051 C 
ATOM      6  C   UNL     1      88.702  50.619  42.515  0.00  0.00    +0.019 A 
ATOM      7  C   UNL     1      88.630  49.917  43.731  0.00  0.00    +0.153 A 
ATOM      8  O   UNL     1      89.307  48.703  43.882  0.00  0.00    -0.480 OA
ATOM      9  C   UNL     1      87.852  50.451  44.758  0.00  0.00    +0.090 A 
ATOM     10  N   UNL     1      87.646  49.937  45.983  0.00  0.00    -0.358 N 
ATOM     11  C   UNL     1      86.829  50.806  46.620  0.00  0.00    +0.006 A 
ATOM     12  C   UNL     1      86.518  51.879  45.789  0.00  0.00    -0.020 A 
ATOM     13  C   UNL     1      87.181  51.637  44.602  0.00  0.00    +0.007 A 
ATOM     14  C   UNL     1      87.237  52.365  43.412  0.00  0.00    -0.052 A 
ATOM     15  C   UNL     1      88.006  51.841  42.356  0.00  0.00    -0.050 A 
ATOM     16  H   UNL     1      88.015  49.098  46.343  0.00  0.00    +0.000 HD
ENDROOT
BRANCH  12  17
ATOM     17  C   UNL     1      85.619  53.032  46.116  0.00  0.00    +0.003 C 
BRANCH  17  18
ATOM     18  C   UNL     1      86.366  54.361  45.945  0.00  0.00    +0.092 C 
ATOM     19  O   UNL     1      85.578  55.458  46.364  0.00  0.00    -0.365 OA
ATOM     20  C   UNL     1      85.870  55.389  44.986  0.00  0.00    +0.091 C 
ATOM     21  C   UNL     1      84.618  55.159  44.133  0.00  0.00    -0.034 C 
ATOM     22  C   UNL     1      86.855  56.473  44.550  0.00  0.00    -0.034 C 
ENDBRANCH  17  18
ENDBRANCH  12  17
TORSDOF 2
ENDMDL
MODEL 4
REMARK VINA RESULT:    -7.852      5.526      8.437
REMARK INTER + INTRA:          -9.194
REMARK INTER:                  -8.922
REMARK INTRA:                  -0.273
REMARK UNBOUND:                -0.424
REMARK  Name = 
REMARK  6 active torsions:
REMARK  status: ('A' for Active; 'I' for Inactive)
REMARK    1  A    between atoms: C_1  and  C_2
REMARK    2  A    between atoms: C_2  and  C_3
REMARK    3  A    between atoms: C_12  and  C_16
REMARK    4  A    between atoms: C_16  and  C_17
REMARK    5  A    between atoms: C_19  and  C_20
REMARK    6  A    between atoms: C_19  and  C_21
REMARK                            x       y       z     vdW  Elec       q    Type
REMARK                         _______ _______ _______ _____ _____    ______ ____
ROOT
ATOM      1  C   UNL     1      91.122  48.495  43.754  0.00  0.00    -0.021 C 
ATOM      2  C   UNL     1      90.005  48.101  42.780  0.00  0.00    +0.124 C 
ATOM      3  C   UNL     1      90.136  48.908  41.483  0.00  0.00    -0.021 C 
ATOM      4  C   UNL     1      90.120  46.620  42.454  0.00  0.00    -0.041 C 
ATOM      5  C   UNL     1      89.047  45.828  42.364  0.00  0.00    -0.051 C 
ATOM      6  C   UNL     1      87.710  46.334  42.703  0.00  0.00    +0.019 A 
ATOM      7  C   UNL     1      87.602  47.633  43.228  0.00  0.00    +0.153 A 
ATOM      8  O   UNL     1      88.745  48.422  43.391  0.00  0.00    -0.480 OA
ATOM      9  C   UNL     1      86.339  48.094  43.598  0.00  0.00    +0.090 A 
ATOM     10  N   UNL     1      86.024  49.290  44.123  0.00  0.00    -0.358 N 
ATOM     11  C   UNL     1      84.685  49.275  44.311  0.00  0.00    +0.006 A 
ATOM     12  C   UNL     1      84.150  48.057  43.901  0.00  0.00    -0.020 A 
ATOM     13  C   UNL     1      85.222  47.313  43.445  0.00  0.00    +0.007 A 
ATOM     14  C   UNL     1      85.291  46.021  42.920  0.00  0.00    -0.052 A 
ATOM     15  C   UNL     1      86.556  45.529  42.549  0.00  0.00    -0.050 A 
ATOM     16  H   UNL     1      86.643  50.028  44.328  0.00  0.00    +0.000 HD
ENDROOT
BRANCH  12  17
ATOM     17  C   UNL     1      82.713  47.640  43.975  0.00  0.00    +0.003 C 
BRANCH  17  18
ATOM     18  C   UNL     1      81.791  48.848  43.772  0.00  0.00    +0.092 C 
ATOM     19  O   UNL     1      81.133  49.207  44.971  0.00  0.00    -0.365 OA
ATOM     20  C   UNL     1      80.316  48.710  43.934  0.00  0.00    +0.091 C 
ATOM     21  C   UNL     1      79.666  47.369  44.292  0.00  0.00    -0.034 C 
ATOM     22  C   UNL     1      79.439  49.799  43.317  0.00  0.00    -0.034 C 
ENDBRANCH  17  18
ENDBRANCH  12  17
TORSDOF 2
ENDMDL
MODEL 5
REMARK VINA RESULT:    -7.605      3.998      7.432
REMARK INTER + INTRA:          -8.918
REMARK INTER:                  -8.760
REMARK INTRA:                  -0.158
REMARK UNBOUND:                -0.424
REMARK  Name = 
REMARK  6 active torsions:
REMARK  status: ('A' for Active; 'I' for Inactive)
REMARK    1  A    between atoms: C_1  and  C_2
REMARK    2  A    between atoms: C_2  and  C_3
REMARK    3  A    between atoms: C_12  and  C_16
REMARK    4  A    between atoms: C_16  and  C_17
REMARK    5  A    between atoms: C_19  and  C_20
REMARK    6  A    between atoms: C_19  and  C_21
REMARK                            x       y       z     vdW  Elec       q    Type
REMARK                         _______ _______ _______ _____ _____    ______ ____
ROOT
ATOM      1  C   UNL     1      85.170  45.107  44.711  0.00  0.00    -0.021 C 
ATOM      2  C   UNL     1      85.180  46.439  43.952  0.00  0.00    +0.124 C 
ATOM      3  C   UNL     1      86.071  46.323  42.708  0.00  0.00    -0.021 C 
ATOM      4  C   UNL     1      83.764  46.782  43.515  0.00  0.00    -0.041 C 
ATOM      5  C   UNL     1      83.281  48.026  43.586  0.00  0.00    -0.051 C 
ATOM      6  C   UNL     1      84.064  49.100  44.212  0.00  0.00    +0.019 A 
ATOM      7  C   UNL     1      85.281  48.765  44.831  0.00  0.00    +0.153 A 
ATOM      8  O   UNL     1      85.735  47.443  44.817  0.00  0.00    -0.480 OA
ATOM      9  C   UNL     1      85.998  49.777  45.469  0.00  0.00    +0.090 A 
ATOM     10  N   UNL     1      87.168  49.666  46.122  0.00  0.00    -0.358 N 
ATOM     11  C   UNL     1      87.466  50.907  46.567  0.00  0.00    +0.006 A 
ATOM     12  C   UNL     1      86.475  51.810  46.192  0.00  0.00    -0.020 A 
ATOM     13  C   UNL     1      85.544  51.071  45.489  0.00  0.00    +0.007 A 
ATOM     14  C   UNL     1      84.344  51.440  44.879  0.00  0.00    -0.052 A 
ATOM     15  C   UNL     1      83.595  50.436  44.236  0.00  0.00    -0.050 A 
ATOM     16  H   UNL     1      87.699  48.846  46.249  0.00  0.00    +0.000 HD
ENDROOT
BRANCH  12  17
ATOM     17  C   UNL     1      86.425  53.271  46.519  0.00  0.00    +0.003 C 
BRANCH  17  18
ATOM     18  C   UNL     1      85.178  53.592  47.353  0.00  0.00    +0.092 C 
ATOM     19  O   UNL     1      84.244  54.357  46.616  0.00  0.00    -0.365 OA
ATOM     20  C   UNL     1      84.852  55.002  47.713  0.00  0.00    +0.091 C 
ATOM     21  C   UNL     1      85.745  56.171  47.284  0.00  0.00    -0.034 C 
ATOM     22  C   UNL     1      83.876  55.221  48.868  0.00  0.00    -0.034 C 
ENDBRANCH  17  18
ENDBRANCH  12  17
TORSDOF 2
ENDMDL
MODEL 6
REMARK VINA RESULT:    -7.592      3.656      4.548
REMARK INTER + INTRA:          -8.904
REMARK INTER:                  -8.580
REMARK INTRA:                  -0.324
REMARK UNBOUND:                -0.424
REMARK  Name = 
REMARK  6 active torsions:
REMARK  status: ('A' for Active; 'I' for Inactive)
REMARK    1  A    between atoms: C_1  and  C_2
REMARK    2  A    between atoms: C_2  and  C_3
REMARK    3  A    between atoms: C_12  and  C_16
REMARK    4  A    between atoms: C_16  and  C_17
REMARK    5  A    between atoms: C_19  and  C_20
REMARK    6  A    between atoms: C_19  and  C_21
REMARK                            x       y       z     vdW  Elec       q    Type
REMARK                         _______ _______ _______ _____ _____    ______ ____
ROOT
ATOM      1  C   UNL     1      83.377  55.000  48.105  0.00  0.00    -0.021 C 
ATOM      2  C   UNL     1      84.730  54.424  47.673  0.00  0.00    +0.124 C 
ATOM      3  C   UNL     1      85.605  55.536  47.080  0.00  0.00    -0.021 C 
ATOM      4  C   UNL     1      85.436  53.833  48.884  0.00  0.00    -0.041 C 
ATOM      5  C   UNL     1      86.104  52.677  48.822  0.00  0.00    -0.051 C 
ATOM      6  C   UNL     1      86.079  51.861  47.600  0.00  0.00    +0.019 A 
ATOM      7  C   UNL     1      85.248  52.268  46.542  0.00  0.00    +0.153 A 
ATOM      8  O   UNL     1      84.493  53.440  46.655  0.00  0.00    -0.480 OA
ATOM      9  C   UNL     1      85.185  51.465  45.404  0.00  0.00    +0.090 A 
ATOM     10  N   UNL     1      84.453  51.670  44.296  0.00  0.00    -0.358 N 
ATOM     11  C   UNL     1      84.721  50.631  43.474  0.00  0.00    +0.006 A 
ATOM     12  C   UNL     1      85.633  49.763  44.068  0.00  0.00    -0.020 A 
ATOM     13  C   UNL     1      85.920  50.312  45.303  0.00  0.00    +0.007 A 
ATOM     14  C   UNL     1      86.761  49.881  46.330  0.00  0.00    -0.052 A 
ATOM     15  C   UNL     1      86.835  50.669  47.495  0.00  0.00    -0.050 A 
ATOM     16  H   UNL     1      83.844  52.423  44.119  0.00  0.00    +0.000 HD
ENDROOT
BRANCH  12  17
ATOM     17  C   UNL     1      86.157  48.483  43.492  0.00  0.00    +0.003 C 
BRANCH  17  18
ATOM     18  C   UNL     1      85.155  47.343  43.713  0.00  0.00    +0.092 C 
ATOM     19  O   UNL     1      85.534  46.523  44.801  0.00  0.00    -0.365 OA
ATOM     20  C   UNL     1      85.571  45.924  43.524  0.00  0.00    +0.091 C 
ATOM     21  C   UNL     1      86.993  45.550  43.094  0.00  0.00    -0.034 C 
ATOM     22  C   UNL     1      84.462  44.889  43.339  0.00  0.00    -0.034 C 
ENDBRANCH  17  18
ENDBRANCH  12  17
TORSDOF 2
ENDMDL
MODEL 7
REMARK VINA RESULT:    -7.546      4.872      6.851
REMARK INTER + INTRA:          -8.853
REMARK INTER:                  -8.558
REMARK INTRA:                  -0.295
REMARK UNBOUND:                -0.424
REMARK  Name = 
REMARK  6 active torsions:
REMARK  status: ('A' for Active; 'I' for Inactive)
REMARK    1  A    between atoms: C_1  and  C_2
REMARK    2  A    between atoms: C_2  and  C_3
REMARK    3  A    between atoms: C_12  and  C_16
REMARK    4  A    between atoms: C_16  and  C_17
REMARK    5  A    between atoms: C_19  and  C_20
REMARK    6  A    between atoms: C_19  and  C_21
REMARK                            x       y       z     vdW  Elec       q    Type
REMARK                         _______ _______ _______ _____ _____    ______ ____
ROOT
ATOM      1  C   UNL     1      84.648  45.031  45.035  0.00  0.00    -0.021 C 
ATOM      2  C   UNL     1      84.120  45.962  43.938  0.00  0.00    +0.124 C 
ATOM      3  C   UNL     1      84.630  45.497  42.568  0.00  0.00    -0.021 C 
ATOM      4  C   UNL     1      82.599  45.927  43.936  0.00  0.00    -0.041 C 
ATOM      5  C   UNL     1      81.865  47.032  43.771  0.00  0.00    -0.051 C 
ATOM      6  C   UNL     1      82.501  48.355  43.709  0.00  0.00    +0.019 A 
ATOM      7  C   UNL     1      83.886  48.440  43.938  0.00  0.00    +0.153 A 
ATOM      8  O   UNL     1      84.628  47.282  44.188  0.00  0.00    -0.480 OA
ATOM      9  C   UNL     1      84.480  49.701  43.930  0.00  0.00    +0.090 A 
ATOM     10  N   UNL     1      85.776  49.998  44.134  0.00  0.00    -0.358 N 
ATOM     11  C   UNL     1      85.872  51.342  44.028  0.00  0.00    +0.006 A 
ATOM     12  C   UNL     1      84.625  51.899  43.754  0.00  0.00    -0.020 A 
ATOM     13  C   UNL     1      83.746  50.835  43.693  0.00  0.00    +0.007 A 
ATOM     14  C   UNL     1      82.372  50.787  43.455  0.00  0.00    -0.052 A 
ATOM     15  C   UNL     1      81.745  49.526  43.468  0.00  0.00    -0.050 A 
ATOM     16  H   UNL     1      86.506  49.365  44.322  0.00  0.00    +0.000 HD
ENDROOT
BRANCH  12  17
ATOM     17  C   UNL     1      84.311  53.355  43.596  0.00  0.00    +0.003 C 
BRANCH  17  18
ATOM     18  C   UNL     1      84.490  53.788  42.135  0.00  0.00    +0.092 C 
ATOM     19  O   UNL     1      85.664  54.557  41.962  0.00  0.00    -0.365 OA
ATOM     20  C   UNL     1      84.441  55.230  41.763  0.00  0.00    +0.091 C 
ATOM     21  C   UNL     1      84.198  56.326  42.807  0.00  0.00    -0.034 C 
ATOM     22  C   UNL     1      84.198  55.565  40.291  0.00  0.00    -0.034 C 
ENDBRANCH  17  18
ENDBRANCH  12  17
TORSDOF 2
ENDMDL
MODEL 8
REMARK VINA RESULT:    -7.530      4.441      5.564
REMARK INTER + INTRA:          -8.834
REMARK INTER:                  -8.530
REMARK INTRA:                  -0.304
REMARK UNBOUND:                -0.424
REMARK  Name = 
REMARK  6 active torsions:
REMARK  status: ('A' for Active; 'I' for Inactive)
REMARK    1  A    between atoms: C_1  and  C_2
REMARK    2  A    between atoms: C_2  and  C_3
REMARK    3  A    between atoms: C_12  and  C_16
REMARK    4  A    between atoms: C_16  and  C_17
REMARK    5  A    between atoms: C_19  and  C_20
REMARK    6  A    between atoms: C_19  and  C_21
REMARK                            x       y       z     vdW  Elec       q    Type
REMARK                         _______ _______ _______ _____ _____    ______ ____
ROOT
ATOM      1  C   UNL     1      80.105  48.555  45.884  0.00  0.00    -0.021 C 
ATOM      2  C   UNL     1      80.726  48.743  44.495  0.00  0.00    +0.124 C 
ATOM      3  C   UNL     1      81.055  47.376  43.882  0.00  0.00    -0.021 C 
ATOM      4  C   UNL     1      79.736  49.463  43.593  0.00  0.00    -0.041 C 
ATOM      5  C   UNL     1      80.117  50.421  42.743  0.00  0.00    -0.051 C 
ATOM      6  C   UNL     1      81.503  50.909  42.735  0.00  0.00    +0.019 A 
ATOM      7  C   UNL     1      82.387  50.423  43.714  0.00  0.00    +0.153 A 
ATOM      8  O   UNL     1      81.949  49.479  44.648  0.00  0.00    -0.480 OA
ATOM      9  C   UNL     1      83.687  50.926  43.738  0.00  0.00    +0.090 A 
ATOM     10  N   UNL     1      84.676  50.603  44.591  0.00  0.00    -0.358 N 
ATOM     11  C   UNL     1      85.745  51.343  44.221  0.00  0.00    +0.006 A 
ATOM     12  C   UNL     1      85.429  52.139  43.124  0.00  0.00    -0.020 A 
ATOM     13  C   UNL     1      84.109  51.859  42.827  0.00  0.00    +0.007 A 
ATOM     14  C   UNL     1      83.262  52.358  41.836  0.00  0.00    -0.052 A 
ATOM     15  C   UNL     1      81.940  51.875  41.797  0.00  0.00    -0.050 A 
ATOM     16  H   UNL     1      84.629  49.958  45.334  0.00  0.00    +0.000 HD
ENDROOT
BRANCH  12  17
ATOM     17  C   UNL     1      86.333  53.118  42.439  0.00  0.00    +0.003 C 
BRANCH  17  18
ATOM     18  C   UNL     1      87.793  52.659  42.533  0.00  0.00    +0.092 C 
ATOM     19  O   UNL     1      88.669  53.584  41.918  0.00  0.00    -0.365 OA
ATOM     20  C   UNL     1      88.560  52.320  41.301  0.00  0.00    +0.091 C 
ATOM     21  C   UNL     1      87.926  52.401  39.908  0.00  0.00    -0.034 C 
ATOM     22  C   UNL     1      89.827  51.482  41.473  0.00  0.00    -0.034 C 
ENDBRANCH  17  18
ENDBRANCH  12  17
TORSDOF 2
ENDMDL
MODEL 9
REMARK VINA RESULT:    -7.426      4.610      6.369
REMARK INTER + INTRA:          -8.719
REMARK INTER:                  -8.294
REMARK INTRA:                  -0.424
REMARK UNBOUND:                -0.424
REMARK  Name = 
REMARK  6 active torsions:
REMARK  status: ('A' for Active; 'I' for Inactive)
REMARK    1  A    between atoms: C_1  and  C_2
REMARK    2  A    between atoms: C_2  and  C_3
REMARK    3  A    between atoms: C_12  and  C_16
REMARK    4  A    between atoms: C_16  and  C_17
REMARK    5  A    between atoms: C_19  and  C_20
REMARK    6  A    between atoms: C_19  and  C_21
REMARK                            x       y       z     vdW  Elec       q    Type
REMARK                         _______ _______ _______ _____ _____    ______ ____
ROOT
ATOM      1  C   UNL     1      80.102  48.192  45.817  0.00  0.00    -0.021 C 
ATOM      2  C   UNL     1      80.716  48.509  44.448  0.00  0.00    +0.124 C 
ATOM      3  C   UNL     1      81.121  47.209  43.743  0.00  0.00    -0.021 C 
ATOM      4  C   UNL     1      79.690  49.236  43.592  0.00  0.00    -0.041 C 
ATOM      5  C   UNL     1      80.020  50.270  42.813  0.00  0.00    -0.051 C 
ATOM      6  C   UNL     1      81.378  50.832  42.847  0.00  0.00    +0.019 A 
ATOM      7  C   UNL     1      82.284  50.329  43.796  0.00  0.00    +0.153 A 
ATOM      8  O   UNL     1      81.897  49.299  44.659  0.00  0.00    -0.480 OA
ATOM      9  C   UNL     1      83.555  50.898  43.863  0.00  0.00    +0.090 A 
ATOM     10  N   UNL     1      84.558  50.571  44.697  0.00  0.00    -0.358 N 
ATOM     11  C   UNL     1      85.586  51.391  44.386  0.00  0.00    +0.006 A 
ATOM     12  C   UNL     1      85.229  52.244  43.345  0.00  0.00    -0.020 A 
ATOM     13  C   UNL     1      83.927  51.914  43.021  0.00  0.00    +0.007 A 
ATOM     14  C   UNL     1      83.056  52.434  42.062  0.00  0.00    -0.052 A 
ATOM     15  C   UNL     1      81.762  51.883  41.981  0.00  0.00    -0.050 A 
ATOM     16  H   UNL     1      84.545  49.874  45.393  0.00  0.00    +0.000 HD
ENDROOT
BRANCH  12  17
ATOM     17  C   UNL     1      86.080  53.316  42.735  0.00  0.00    +0.003 C 
BRANCH  17  18
ATOM     18  C   UNL     1      86.298  54.461  43.732  0.00  0.00    +0.092 C 
ATOM     19  O   UNL     1      85.125  54.734  44.474  0.00  0.00    -0.365 OA
ATOM     20  C   UNL     1      85.553  55.744  43.586  0.00  0.00    +0.091 C 
ATOM     21  C   UNL     1      84.561  55.974  42.441  0.00  0.00    -0.034 C 
ATOM     22  C   UNL     1      86.107  56.963  44.322  0.00  0.00    -0.034 C 
ENDBRANCH  17  18
ENDBRANCH  12  17
TORSDOF 2
ENDMDL
