MODEL 1
REMARK VINA RESULT:    -6.502      0.000      0.000
REMARK INTER + INTRA:         -11.826
REMARK INTER:                 -10.273
REMARK INTRA:                  -1.552
REMARK UNBOUND:                -1.523
REMARK  Name = 
REMARK  16 active torsions:
REMARK  status: ('A' for Active; 'I' for Inactive)
REMARK    1  A    between atoms: C_1  and  O_2
REMARK    2  A    between atoms: O_2  and  C_3
REMARK    3  A    between atoms: C_3  and  C_5
REMARK    4  A    between atoms: C_6  and  C_7
REMARK    5  A    between atoms: C_7  and  C_8
REMARK    6  A    between atoms: C_8  and  C_9
REMARK    7  A    between atoms: C_10  and  C_11
REMARK    8  A    between atoms: C_10  and  C_20
REMARK    9  A    between atoms: C_11  and  C_12
REMARK   10  A    between atoms: C_12  and  C_13
REMARK   11  A    between atoms: C_12  and  C_19
REMARK   12  A    between atoms: C_13  and  C_14
REMARK   13  A    between atoms: C_13  and  O_18
REMARK   14  A    between atoms: C_14  and  O_15
REMARK   15  A    between atoms: C_14  and  C_16
REMARK   16  A    between atoms: C_14  and  C_17
REMARK                            x       y       z     vdW  Elec       q    Type
REMARK                         _______ _______ _______ _____ _____    ______ ____
ROOT
ATOM      1  C   UNL     1      85.955  53.862  47.959  0.00  0.00    -0.085 C 
ATOM      2  C   UNL     1      85.427  52.788  48.590  0.00  0.00    -0.076 C 
ATOM      3  C   UNL     1      84.000  52.791  49.093  0.00  0.00    -0.044 C 
ENDROOT
BRANCH   1   4
ATOM      4  C   UNL     1      85.219  55.155  47.708  0.00  0.00    -0.031 C 
BRANCH   4   5
ATOM      5  C   UNL     1      86.160  56.206  47.108  0.00  0.00    -0.031 C 
BRANCH   5   7
ATOM      6  C   UNL     1      86.047  56.339  44.637  0.00  0.00    +0.019 C 
ATOM      7  C   UNL     1      85.607  56.760  45.827  0.00  0.00    -0.077 C 
BRANCH   6   8
ATOM      8  C   UNL     1      85.525  56.882  43.375  0.00  0.00    +0.331 C 
ATOM      9  O   UNL     1      85.341  58.125  43.271  0.00  0.00    -0.246 OA
BRANCH   8  11
ATOM     10  C   UNL     1      85.111  54.624  42.450  0.00  0.00    +0.082 C 
ATOM     11  O   UNL     1      85.240  56.033  42.301  0.00  0.00    -0.465 OA
ENDBRANCH   8  11
ENDBRANCH   6   8
ENDBRANCH   5   7
ENDBRANCH   4   5
ENDBRANCH   1   4
BRANCH   2  12
ATOM     12  C   UNL     1      86.250  51.518  48.721  0.00  0.00    -0.027 C 
BRANCH  12  13
ATOM     13  C   UNL     1      86.958  51.053  47.419  0.00  0.00    -0.011 C 
ATOM     14  C   UNL     1      88.198  50.190  47.708  0.00  0.00    -0.060 C 
BRANCH  13  15
ATOM     15  C   UNL     1      85.958  50.457  46.365  0.00  0.00    +0.086 C 
BRANCH  15  16
ATOM     16  C   UNL     1      85.759  51.287  45.040  0.00  0.00    +0.086 C 
ATOM     17  C   UNL     1      86.948  52.258  44.854  0.00  0.00    -0.034 C 
ATOM     18  C   UNL     1      84.471  52.140  45.061  0.00  0.00    -0.034 C 
BRANCH  16  19
ATOM     19  O   UNL     1      85.691  50.432  43.923  0.00  0.00    -0.387 OA
ATOM     20  H   UNL     1      86.553  50.007  43.790  0.00  0.00    +0.000 HD
ENDBRANCH  16  19
ENDBRANCH  15  16
BRANCH  15  21
ATOM     21  O   UNL     1      86.207  49.101  46.082  0.00  0.00    -0.389 OA
ATOM     22  H   UNL     1      86.374  48.994  45.133  0.00  0.00    +0.000 HD
ENDBRANCH  15  21
ENDBRANCH  13  15
ENDBRANCH  12  13
ENDBRANCH   2  12
TORSDOF 11
ENDMDL
MODEL 2
REMARK VINA RESULT:    -6.238      2.260      4.859
REMARK INTER + INTRA:         -11.408
REMARK INTER:                  -9.764
REMARK INTRA:                  -1.644
REMARK UNBOUND:                -1.523
REMARK  Name = 
REMARK  16 active torsions:
REMARK  status: ('A' for Active; 'I' for Inactive)
REMARK    1  A    between atoms: C_1  and  O_2
REMARK    2  A    between atoms: O_2  and  C_3
REMARK    3  A    between atoms: C_3  and  C_5
REMARK    4  A    between atoms: C_6  and  C_7
REMARK    5  A    between atoms: C_7  and  C_8
REMARK    6  A    between atoms: C_8  and  C_9
REMARK    7  A    between atoms: C_10  and  C_11
REMARK    8  A    between atoms: C_10  and  C_20
REMARK    9  A    between atoms: C_11  and  C_12
REMARK   10  A    between atoms: C_12  and  C_13
REMARK   11  A    between atoms: C_12  and  C_19
REMARK   12  A    between atoms: C_13  and  C_14
REMARK   13  A    between atoms: C_13  and  O_18
REMARK   14  A    between atoms: C_14  and  O_15
REMARK   15  A    between atoms: C_14  and  C_16
REMARK   16  A    between atoms: C_14  and  C_17
REMARK                            x       y       z     vdW  Elec       q    Type
REMARK                         _______ _______ _______ _____ _____    ______ ____
ROOT
ATOM      1  C   UNL     1      86.616  52.296  46.446  0.00  0.00    -0.085 C 
ATOM      2  C   UNL     1      86.097  52.877  47.553  0.00  0.00    -0.076 C 
ATOM      3  C   UNL     1      85.851  52.085  48.819  0.00  0.00    -0.044 C 
ENDROOT
BRANCH   1   4
ATOM      4  C   UNL     1      86.978  50.836  46.335  0.00  0.00    -0.031 C 
BRANCH   4   5
ATOM      5  C   UNL     1      87.508  50.514  44.934  0.00  0.00    -0.031 C 
BRANCH   5   7
ATOM      6  C   UNL     1      87.301  51.827  42.843  0.00  0.00    +0.019 C 
ATOM      7  C   UNL     1      87.686  51.765  44.122  0.00  0.00    -0.077 C 
BRANCH   6   8
ATOM      8  C   UNL     1      87.481  53.038  42.031  0.00  0.00    +0.331 C 
ATOM      9  O   UNL     1      86.463  53.659  41.621  0.00  0.00    -0.246 OA
BRANCH   8  11
ATOM     10  C   UNL     1      89.649  52.784  40.863  0.00  0.00    +0.082 C 
ATOM     11  O   UNL     1      88.765  53.499  41.718  0.00  0.00    -0.465 OA
ENDBRANCH   8  11
ENDBRANCH   6   8
ENDBRANCH   5   7
ENDBRANCH   4   5
ENDBRANCH   1   4
BRANCH   2  12
ATOM     12  C   UNL     1      85.839  54.374  47.560  0.00  0.00    -0.027 C 
BRANCH  12  13
ATOM     13  C   UNL     1      84.552  54.826  46.817  0.00  0.00    -0.011 C 
ATOM     14  C   UNL     1      83.348  54.953  47.765  0.00  0.00    -0.060 C 
BRANCH  13  15
ATOM     15  C   UNL     1      84.796  56.059  45.876  0.00  0.00    +0.086 C 
BRANCH  15  16
ATOM     16  C   UNL     1      85.243  55.736  44.399  0.00  0.00    +0.086 C 
ATOM     17  C   UNL     1      86.766  55.961  44.259  0.00  0.00    -0.034 C 
ATOM     18  C   UNL     1      84.548  56.641  43.358  0.00  0.00    -0.034 C 
BRANCH  16  19
ATOM     19  O   UNL     1      84.947  54.398  44.072  0.00  0.00    -0.387 OA
ATOM     20  H   UNL     1      85.559  54.092  43.385  0.00  0.00    +0.000 HD
ENDBRANCH  16  19
ENDBRANCH  15  16
BRANCH  15  21
ATOM     21  O   UNL     1      83.732  56.980  45.895  0.00  0.00    -0.389 OA
ATOM     22  H   UNL     1      83.664  57.377  46.778  0.00  0.00    +0.000 HD
ENDBRANCH  15  21
ENDBRANCH  13  15
ENDBRANCH  12  13
ENDBRANCH   2  12
TORSDOF 11
ENDMDL
MODEL 3
REMARK VINA RESULT:    -6.227      1.669      5.564
REMARK INTER + INTRA:         -11.390
REMARK INTER:                  -9.967
REMARK INTRA:                  -1.423
REMARK UNBOUND:                -1.523
REMARK  Name = 
REMARK  16 active torsions:
REMARK  status: ('A' for Active; 'I' for Inactive)
REMARK    1  A    between atoms: C_1  and  O_2
REMARK    2  A    between atoms: O_2  and  C_3
REMARK    3  A    between atoms: C_3  and  C_5
REMARK    4  A    between atoms: C_6  and  C_7
REMARK    5  A    between atoms: C_7  and  C_8
REMARK    6  A    between atoms: C_8  and  C_9
REMARK    7  A    between atoms: C_10  and  C_11
REMARK    8  A    between atoms: C_10  and  C_20
REMARK    9  A    between atoms: C_11  and  C_12
REMARK   10  A    between atoms: C_12  and  C_13
REMARK   11  A    between atoms: C_12  and  C_19
REMARK   12  A    between atoms: C_13  and  C_14
REMARK   13  A    between atoms: C_13  and  O_18
REMARK   14  A    between atoms: C_14  and  O_15
REMARK   15  A    between atoms: C_14  and  C_16
REMARK   16  A    between atoms: C_14  and  C_17
REMARK                            x       y       z     vdW  Elec       q    Type
REMARK                         _______ _______ _______ _____ _____    ______ ____
ROOT
ATOM      1  C   UNL     1      86.091  53.824  47.828  0.00  0.00    -0.085 C 
ATOM      2  C   UNL     1      85.418  54.996  47.758  0.00  0.00    -0.076 C 
ATOM      3  C   UNL     1      84.077  55.178  48.435  0.00  0.00    -0.044 C 
ENDROOT
BRANCH   1   4
ATOM      4  C   UNL     1      85.594  52.592  48.544  0.00  0.00    -0.031 C 
BRANCH   4   5
ATOM      5  C   UNL     1      86.358  51.349  48.075  0.00  0.00    -0.031 C 
BRANCH   5   7
ATOM      6  C   UNL     1      87.272  50.473  45.946  0.00  0.00    +0.019 C 
ATOM      7  C   UNL     1      86.856  51.517  46.669  0.00  0.00    -0.077 C 
BRANCH   6   8
ATOM      8  C   UNL     1      87.776  50.623  44.574  0.00  0.00    +0.331 C 
ATOM      9  O   UNL     1      87.812  51.772  44.056  0.00  0.00    -0.246 OA
BRANCH   8  11
ATOM     10  C   UNL     1      89.376  49.531  43.033  0.00  0.00    +0.082 C 
ATOM     11  O   UNL     1      88.213  49.508  43.852  0.00  0.00    -0.465 OA
ENDBRANCH   8  11
ENDBRANCH   6   8
ENDBRANCH   5   7
ENDBRANCH   4   5
ENDBRANCH   1   4
BRANCH   2  12
ATOM     12  C   UNL     1      86.058  56.185  47.064  0.00  0.00    -0.027 C 
BRANCH  12  13
ATOM     13  C   UNL     1      85.380  56.619  45.735  0.00  0.00    -0.011 C 
ATOM     14  C   UNL     1      84.766  58.026  45.828  0.00  0.00    -0.060 C 
BRANCH  13  15
ATOM     15  C   UNL     1      86.289  56.366  44.480  0.00  0.00    +0.086 C 
BRANCH  15  16
ATOM     16  C   UNL     1      85.866  55.177  43.536  0.00  0.00    +0.086 C 
ATOM     17  C   UNL     1      84.909  55.702  42.441  0.00  0.00    -0.034 C 
ATOM     18  C   UNL     1      85.123  54.053  44.293  0.00  0.00    -0.034 C 
BRANCH  16  19
ATOM     19  O   UNL     1      86.995  54.606  42.919  0.00  0.00    -0.387 OA
ATOM     20  H   UNL     1      87.786  54.809  43.444  0.00  0.00    +0.000 HD
ENDBRANCH  16  19
ENDBRANCH  15  16
BRANCH  15  21
ATOM     21  O   UNL     1      86.537  57.538  43.741  0.00  0.00    -0.389 OA
ATOM     22  H   UNL     1      87.494  57.648  43.621  0.00  0.00    +0.000 HD
ENDBRANCH  15  21
ENDBRANCH  13  15
ENDBRANCH  12  13
ENDBRANCH   2  12
TORSDOF 11
ENDMDL
MODEL 4
REMARK VINA RESULT:    -6.177      2.288      5.434
REMARK INTER + INTRA:         -11.312
REMARK INTER:                  -9.970
REMARK INTRA:                  -1.341
REMARK UNBOUND:                -1.523
REMARK  Name = 
REMARK  16 active torsions:
REMARK  status: ('A' for Active; 'I' for Inactive)
REMARK    1  A    between atoms: C_1  and  O_2
REMARK    2  A    between atoms: O_2  and  C_3
REMARK    3  A    between atoms: C_3  and  C_5
REMARK    4  A    between atoms: C_6  and  C_7
REMARK    5  A    between atoms: C_7  and  C_8
REMARK    6  A    between atoms: C_8  and  C_9
REMARK    7  A    between atoms: C_10  and  C_11
REMARK    8  A    between atoms: C_10  and  C_20
REMARK    9  A    between atoms: C_11  and  C_12
REMARK   10  A    between atoms: C_12  and  C_13
REMARK   11  A    between atoms: C_12  and  C_19
REMARK   12  A    between atoms: C_13  and  C_14
REMARK   13  A    between atoms: C_13  and  O_18
REMARK   14  A    between atoms: C_14  and  O_15
REMARK   15  A    between atoms: C_14  and  C_16
REMARK   16  A    between atoms: C_14  and  C_17
REMARK                            x       y       z     vdW  Elec       q    Type
REMARK                         _______ _______ _______ _____ _____    ______ ____
ROOT
ATOM      1  C   UNL     1      86.276  53.389  46.263  0.00  0.00    -0.085 C 
ATOM      2  C   UNL     1      85.865  54.036  47.378  0.00  0.00    -0.076 C 
ATOM      3  C   UNL     1      85.611  53.295  48.673  0.00  0.00    -0.044 C 
ENDROOT
BRANCH   1   4
ATOM      4  C   UNL     1      86.502  51.900  46.172  0.00  0.00    -0.031 C 
BRANCH   4   5
ATOM      5  C   UNL     1      87.452  51.566  45.016  0.00  0.00    -0.031 C 
BRANCH   5   7
ATOM      6  C   UNL     1      87.560  52.739  42.837  0.00  0.00    +0.019 C 
ATOM      7  C   UNL     1      86.869  51.985  43.698  0.00  0.00    -0.077 C 
BRANCH   6   8
ATOM      8  C   UNL     1      86.997  53.169  41.549  0.00  0.00    +0.331 C 
ATOM      9  O   UNL     1      85.930  53.840  41.539  0.00  0.00    -0.246 OA
BRANCH   8  11
ATOM     10  C   UNL     1      88.515  51.728  40.227  0.00  0.00    +0.082 C 
ATOM     11  O   UNL     1      87.638  52.841  40.349  0.00  0.00    -0.465 OA
ENDBRANCH   8  11
ENDBRANCH   6   8
ENDBRANCH   5   7
ENDBRANCH   4   5
ENDBRANCH   1   4
BRANCH   2  12
ATOM     12  C   UNL     1      85.739  55.550  47.360  0.00  0.00    -0.027 C 
BRANCH  12  13
ATOM     13  C   UNL     1      84.691  56.115  46.362  0.00  0.00    -0.011 C 
ATOM     14  C   UNL     1      83.287  56.204  46.984  0.00  0.00    -0.060 C 
BRANCH  13  15
ATOM     15  C   UNL     1      85.186  57.416  45.635  0.00  0.00    +0.086 C 
BRANCH  15  16
ATOM     16  C   UNL     1      85.662  57.246  44.143  0.00  0.00    +0.086 C 
ATOM     17  C   UNL     1      84.509  56.662  43.294  0.00  0.00    -0.034 C 
ATOM     18  C   UNL     1      86.863  56.284  44.009  0.00  0.00    -0.034 C 
BRANCH  16  19
ATOM     19  O   UNL     1      86.044  58.488  43.599  0.00  0.00    -0.387 OA
ATOM     20  H   UNL     1      85.348  58.806  43.002  0.00  0.00    +0.000 HD
ENDBRANCH  16  19
ENDBRANCH  15  16
BRANCH  15  21
ATOM     21  O   UNL     1      84.283  58.489  45.762  0.00  0.00    -0.389 OA
ATOM     22  H   UNL     1      83.744  58.365  46.559  0.00  0.00    +0.000 HD
ENDBRANCH  15  21
ENDBRANCH  13  15
ENDBRANCH  12  13
ENDBRANCH   2  12
TORSDOF 11
ENDMDL
MODEL 5
REMARK VINA RESULT:    -6.084      3.536      5.990
REMARK INTER + INTRA:         -11.164
REMARK INTER:                 -10.171
REMARK INTRA:                  -0.993
REMARK UNBOUND:                -1.523
REMARK  Name = 
REMARK  16 active torsions:
REMARK  status: ('A' for Active; 'I' for Inactive)
REMARK    1  A    between atoms: C_1  and  O_2
REMARK    2  A    between atoms: O_2  and  C_3
REMARK    3  A    between atoms: C_3  and  C_5
REMARK    4  A    between atoms: C_6  and  C_7
REMARK    5  A    between atoms: C_7  and  C_8
REMARK    6  A    between atoms: C_8  and  C_9
REMARK    7  A    between atoms: C_10  and  C_11
REMARK    8  A    between atoms: C_10  and  C_20
REMARK    9  A    between atoms: C_11  and  C_12
REMARK   10  A    between atoms: C_12  and  C_13
REMARK   11  A    between atoms: C_12  and  C_19
REMARK   12  A    between atoms: C_13  and  C_14
REMARK   13  A    between atoms: C_13  and  O_18
REMARK   14  A    between atoms: C_14  and  O_15
REMARK   15  A    between atoms: C_14  and  C_16
REMARK   16  A    between atoms: C_14  and  C_17
REMARK                            x       y       z     vdW  Elec       q    Type
REMARK                         _______ _______ _______ _____ _____    ______ ____
ROOT
ATOM      1  C   UNL     1      87.462  50.934  44.163  0.00  0.00    -0.085 C 
ATOM      2  C   UNL     1      87.398  51.280  45.470  0.00  0.00    -0.076 C 
ATOM      3  C   UNL     1      87.799  50.313  46.563  0.00  0.00    -0.044 C 
ENDROOT
BRANCH   1   4
ATOM      4  C   UNL     1      87.904  49.584  43.655  0.00  0.00    -0.031 C 
BRANCH   4   5
ATOM      5  C   UNL     1      89.298  49.673  43.024  0.00  0.00    -0.031 C 
BRANCH   5   7
ATOM      6  C   UNL     1      89.389  50.737  40.790  0.00  0.00    +0.019 C 
ATOM      7  C   UNL     1      89.408  50.866  42.120  0.00  0.00    -0.077 C 
BRANCH   6   8
ATOM      8  C   UNL     1      89.510  51.894  39.891  0.00  0.00    +0.331 C 
ATOM      9  O   UNL     1      89.014  51.826  38.733  0.00  0.00    -0.246 OA
BRANCH   8  11
ATOM     10  C   UNL     1      90.913  53.880  39.428  0.00  0.00    +0.082 C 
ATOM     11  O   UNL     1      90.165  53.056  40.313  0.00  0.00    -0.465 OA
ENDBRANCH   8  11
ENDBRANCH   6   8
ENDBRANCH   5   7
ENDBRANCH   4   5
ENDBRANCH   1   4
BRANCH   2  12
ATOM     12  C   UNL     1      87.001  52.696  45.850  0.00  0.00    -0.027 C 
BRANCH  12  13
ATOM     13  C   UNL     1      85.842  53.305  45.013  0.00  0.00    -0.011 C 
ATOM     14  C   UNL     1      84.512  52.568  45.240  0.00  0.00    -0.060 C 
BRANCH  13  15
ATOM     15  C   UNL     1      85.769  54.869  45.128  0.00  0.00    +0.086 C 
BRANCH  15  16
ATOM     16  C   UNL     1      86.046  55.682  43.806  0.00  0.00    +0.086 C 
ATOM     17  C   UNL     1      86.360  57.154  44.161  0.00  0.00    -0.034 C 
ATOM     18  C   UNL     1      84.833  55.690  42.849  0.00  0.00    -0.034 C 
BRANCH  16  19
ATOM     19  O   UNL     1      87.141  55.138  43.108  0.00  0.00    -0.387 OA
ATOM     20  H   UNL     1      87.570  55.835  42.586  0.00  0.00    +0.000 HD
ENDBRANCH  16  19
ENDBRANCH  15  16
BRANCH  15  21
ATOM     21  O   UNL     1      84.595  55.316  45.763  0.00  0.00    -0.389 OA
ATOM     22  H   UNL     1      84.021  54.558  45.951  0.00  0.00    +0.000 HD
ENDBRANCH  15  21
ENDBRANCH  13  15
ENDBRANCH  12  13
ENDBRANCH   2  12
TORSDOF 11
ENDMDL
MODEL 6
REMARK VINA RESULT:    -6.068      2.981      6.697
REMARK INTER + INTRA:         -11.138
REMARK INTER:                  -9.980
REMARK INTRA:                  -1.159
REMARK UNBOUND:                -1.523
REMARK  Name = 
REMARK  16 active torsions:
REMARK  status: ('A' for Active; 'I' for Inactive)
REMARK    1  A    between atoms: C_1  and  O_2
REMARK    2  A    between atoms: O_2  and  C_3
REMARK    3  A    between atoms: C_3  and  C_5
REMARK    4  A    between atoms: C_6  and  C_7
REMARK    5  A    between atoms: C_7  and  C_8
REMARK    6  A    between atoms: C_8  and  C_9
REMARK    7  A    between atoms: C_10  and  C_11
REMARK    8  A    between atoms: C_10  and  C_20
REMARK    9  A    between atoms: C_11  and  C_12
REMARK   10  A    between atoms: C_12  and  C_13
REMARK   11  A    between atoms: C_12  and  C_19
REMARK   12  A    between atoms: C_13  and  C_14
REMARK   13  A    between atoms: C_13  and  O_18
REMARK   14  A    between atoms: C_14  and  O_15
REMARK   15  A    between atoms: C_14  and  C_16
REMARK   16  A    between atoms: C_14  and  C_17
REMARK                            x       y       z     vdW  Elec       q    Type
REMARK                         _______ _______ _______ _____ _____    ______ ____
ROOT
ATOM      1  C   UNL     1      86.203  55.203  43.532  0.00  0.00    -0.085 C 
ATOM      2  C   UNL     1      85.137  55.866  43.028  0.00  0.00    -0.076 C 
ATOM      3  C   UNL     1      84.381  55.348  41.824  0.00  0.00    -0.044 C 
ENDROOT
BRANCH   1   4
ATOM      4  C   UNL     1      86.764  53.924  42.961  0.00  0.00    -0.031 C 
BRANCH   4   5
ATOM      5  C   UNL     1      86.833  52.836  44.038  0.00  0.00    -0.031 C 
BRANCH   5   7
ATOM      6  C   UNL     1      88.310  51.692  42.411  0.00  0.00    +0.019 C 
ATOM      7  C   UNL     1      87.759  51.727  43.628  0.00  0.00    -0.077 C 
BRANCH   6   8
ATOM      8  C   UNL     1      89.207  50.606  41.990  0.00  0.00    +0.331 C 
ATOM      9  O   UNL     1      89.630  50.585  40.802  0.00  0.00    -0.246 OA
BRANCH   8  11
ATOM     10  C   UNL     1      90.772  48.838  42.732  0.00  0.00    +0.082 C 
ATOM     11  O   UNL     1      89.588  49.610  42.895  0.00  0.00    -0.465 OA
ENDBRANCH   8  11
ENDBRANCH   6   8
ENDBRANCH   5   7
ENDBRANCH   4   5
ENDBRANCH   1   4
BRANCH   2  12
ATOM     12  C   UNL     1      84.627  57.110  43.736  0.00  0.00    -0.027 C 
BRANCH  12  13
ATOM     13  C   UNL     1      84.931  57.175  45.258  0.00  0.00    -0.011 C 
ATOM     14  C   UNL     1      85.203  58.612  45.735  0.00  0.00    -0.060 C 
BRANCH  13  15
ATOM     15  C   UNL     1      83.895  56.368  46.119  0.00  0.00    +0.086 C 
BRANCH  15  16
ATOM     16  C   UNL     1      84.491  55.326  47.139  0.00  0.00    +0.086 C 
ATOM     17  C   UNL     1      86.025  55.505  47.224  0.00  0.00    -0.034 C 
ATOM     18  C   UNL     1      84.224  53.864  46.719  0.00  0.00    -0.034 C 
BRANCH  16  19
ATOM     19  O   UNL     1      83.939  55.513  48.421  0.00  0.00    -0.387 OA
ATOM     20  H   UNL     1      84.496  56.127  48.925  0.00  0.00    +0.000 HD
ENDBRANCH  16  19
ENDBRANCH  15  16
BRANCH  15  21
ATOM     21  O   UNL     1      82.937  57.195  46.737  0.00  0.00    -0.389 OA
ATOM     22  H   UNL     1      83.048  58.107  46.426  0.00  0.00    +0.000 HD
ENDBRANCH  15  21
ENDBRANCH  13  15
ENDBRANCH  12  13
ENDBRANCH   2  12
TORSDOF 11
ENDMDL
MODEL 7
REMARK VINA RESULT:    -6.061      3.214      6.062
REMARK INTER + INTRA:         -11.127
REMARK INTER:                  -9.529
REMARK INTRA:                  -1.599
REMARK UNBOUND:                -1.523
REMARK  Name = 
REMARK  16 active torsions:
REMARK  status: ('A' for Active; 'I' for Inactive)
REMARK    1  A    between atoms: C_1  and  O_2
REMARK    2  A    between atoms: O_2  and  C_3
REMARK    3  A    between atoms: C_3  and  C_5
REMARK    4  A    between atoms: C_6  and  C_7
REMARK    5  A    between atoms: C_7  and  C_8
REMARK    6  A    between atoms: C_8  and  C_9
REMARK    7  A    between atoms: C_10  and  C_11
REMARK    8  A    between atoms: C_10  and  C_20
REMARK    9  A    between atoms: C_11  and  C_12
REMARK   10  A    between atoms: C_12  and  C_13
REMARK   11  A    between atoms: C_12  and  C_19
REMARK   12  A    between atoms: C_13  and  C_14
REMARK   13  A    between atoms: C_13  and  O_18
REMARK   14  A    between atoms: C_14  and  O_15
REMARK   15  A    between atoms: C_14  and  C_16
REMARK   16  A    between atoms: C_14  and  C_17
REMARK                            x       y       z     vdW  Elec       q    Type
REMARK                         _______ _______ _______ _____ _____    ______ ____
ROOT
ATOM      1  C   UNL     1      87.721  51.691  44.663  0.00  0.00    -0.085 C 
ATOM      2  C   UNL     1      86.528  52.297  44.869  0.00  0.00    -0.076 C 
ATOM      3  C   UNL     1      85.232  51.515  44.854  0.00  0.00    -0.044 C 
ENDROOT
BRANCH   1   4
ATOM      4  C   UNL     1      87.896  50.219  44.381  0.00  0.00    -0.031 C 
BRANCH   4   5
ATOM      5  C   UNL     1      88.878  50.002  43.225  0.00  0.00    -0.031 C 
BRANCH   5   7
ATOM      6  C   UNL     1      89.488  51.171  41.128  0.00  0.00    +0.019 C 
ATOM      7  C   UNL     1      88.584  50.931  42.083  0.00  0.00    -0.077 C 
BRANCH   6   8
ATOM      8  C   UNL     1      89.220  52.089  40.012  0.00  0.00    +0.331 C 
ATOM      9  O   UNL     1      88.659  51.644  38.974  0.00  0.00    -0.246 OA
BRANCH   8  11
ATOM     10  C   UNL     1      90.884  53.906  39.770  0.00  0.00    +0.082 C 
ATOM     11  O   UNL     1      89.581  53.437  40.099  0.00  0.00    -0.465 OA
ENDBRANCH   8  11
ENDBRANCH   6   8
ENDBRANCH   5   7
ENDBRANCH   4   5
ENDBRANCH   1   4
BRANCH   2  12
ATOM     12  C   UNL     1      86.491  53.776  45.212  0.00  0.00    -0.027 C 
BRANCH  12  13
ATOM     13  C   UNL     1      85.320  54.573  44.574  0.00  0.00    -0.011 C 
ATOM     14  C   UNL     1      84.669  55.546  45.570  0.00  0.00    -0.060 C 
BRANCH  13  15
ATOM     15  C   UNL     1      85.697  55.193  43.181  0.00  0.00    +0.086 C 
BRANCH  15  16
ATOM     16  C   UNL     1      85.038  54.525  41.915  0.00  0.00    +0.086 C 
ATOM     17  C   UNL     1      83.641  53.977  42.288  0.00  0.00    -0.034 C 
ATOM     18  C   UNL     1      85.866  53.340  41.370  0.00  0.00    -0.034 C 
BRANCH  16  19
ATOM     19  O   UNL     1      84.896  55.465  40.875  0.00  0.00    -0.387 OA
ATOM     20  H   UNL     1      84.192  56.092  41.102  0.00  0.00    +0.000 HD
ENDBRANCH  16  19
ENDBRANCH  15  16
BRANCH  15  21
ATOM     21  O   UNL     1      85.554  56.593  43.150  0.00  0.00    -0.389 OA
ATOM     22  H   UNL     1      85.341  56.916  44.039  0.00  0.00    +0.000 HD
ENDBRANCH  15  21
ENDBRANCH  13  15
ENDBRANCH  12  13
ENDBRANCH   2  12
TORSDOF 11
ENDMDL
MODEL 8
REMARK VINA RESULT:    -6.003      3.314      6.059
REMARK INTER + INTRA:         -11.036
REMARK INTER:                  -9.698
REMARK INTRA:                  -1.338
REMARK UNBOUND:                -1.523
REMARK  Name = 
REMARK  16 active torsions:
REMARK  status: ('A' for Active; 'I' for Inactive)
REMARK    1  A    between atoms: C_1  and  O_2
REMARK    2  A    between atoms: O_2  and  C_3
REMARK    3  A    between atoms: C_3  and  C_5
REMARK    4  A    between atoms: C_6  and  C_7
REMARK    5  A    between atoms: C_7  and  C_8
REMARK    6  A    between atoms: C_8  and  C_9
REMARK    7  A    between atoms: C_10  and  C_11
REMARK    8  A    between atoms: C_10  and  C_20
REMARK    9  A    between atoms: C_11  and  C_12
REMARK   10  A    between atoms: C_12  and  C_13
REMARK   11  A    between atoms: C_12  and  C_19
REMARK   12  A    between atoms: C_13  and  C_14
REMARK   13  A    between atoms: C_13  and  O_18
REMARK   14  A    between atoms: C_14  and  O_15
REMARK   15  A    between atoms: C_14  and  C_16
REMARK   16  A    between atoms: C_14  and  C_17
REMARK                            x       y       z     vdW  Elec       q    Type
REMARK                         _______ _______ _______ _____ _____    ______ ____
ROOT
ATOM      1  C   UNL     1      86.902  52.637  44.249  0.00  0.00    -0.085 C 
ATOM      2  C   UNL     1      85.595  52.917  44.037  0.00  0.00    -0.076 C 
ATOM      3  C   UNL     1      84.519  51.875  44.254  0.00  0.00    -0.044 C 
ENDROOT
BRANCH   1   4
ATOM      4  C   UNL     1      87.429  51.294  44.691  0.00  0.00    -0.031 C 
BRANCH   4   5
ATOM      5  C   UNL     1      88.056  50.544  43.510  0.00  0.00    -0.031 C 
BRANCH   5   7
ATOM      6  C   UNL     1      88.513  51.214  41.170  0.00  0.00    +0.019 C 
ATOM      7  C   UNL     1      88.574  51.499  42.475  0.00  0.00    -0.077 C 
BRANCH   6   8
ATOM      8  C   UNL     1      89.029  52.133  40.145  0.00  0.00    +0.331 C 
ATOM      9  O   UNL     1      88.924  51.816  38.929  0.00  0.00    -0.246 OA
BRANCH   8  11
ATOM     10  C   UNL     1      90.673  53.942  39.758  0.00  0.00    +0.082 C 
ATOM     11  O   UNL     1      89.626  53.343  40.512  0.00  0.00    -0.465 OA
ENDBRANCH   8  11
ENDBRANCH   6   8
ENDBRANCH   5   7
ENDBRANCH   4   5
ENDBRANCH   1   4
BRANCH   2  12
ATOM     12  C   UNL     1      85.185  54.330  43.659  0.00  0.00    -0.027 C 
BRANCH  12  13
ATOM     13  C   UNL     1      85.533  55.422  44.707  0.00  0.00    -0.011 C 
ATOM     14  C   UNL     1      86.163  56.667  44.061  0.00  0.00    -0.060 C 
BRANCH  13  15
ATOM     15  C   UNL     1      84.351  55.708  45.700  0.00  0.00    +0.086 C 
BRANCH  15  16
ATOM     16  C   UNL     1      84.514  55.147  47.163  0.00  0.00    +0.086 C 
ATOM     17  C   UNL     1      86.014  55.096  47.534  0.00  0.00    -0.034 C 
ATOM     18  C   UNL     1      83.955  53.715  47.316  0.00  0.00    -0.034 C 
BRANCH  16  19
ATOM     19  O   UNL     1      83.844  55.971  48.089  0.00  0.00    -0.387 OA
ATOM     20  H   UNL     1      84.486  56.340  48.716  0.00  0.00    +0.000 HD
ENDBRANCH  16  19
ENDBRANCH  15  16
BRANCH  15  21
ATOM     21  O   UNL     1      83.965  57.062  45.714  0.00  0.00    -0.389 OA
ATOM     22  H   UNL     1      83.209  57.188  45.120  0.00  0.00    +0.000 HD
ENDBRANCH  15  21
ENDBRANCH  13  15
ENDBRANCH  12  13
ENDBRANCH   2  12
TORSDOF 11
ENDMDL
MODEL 9
REMARK VINA RESULT:    -5.869      2.269      5.649
REMARK INTER + INTRA:         -10.823
REMARK INTER:                  -9.300
REMARK INTRA:                  -1.523
REMARK UNBOUND:                -1.523
REMARK  Name = 
REMARK  16 active torsions:
REMARK  status: ('A' for Active; 'I' for Inactive)
REMARK    1  A    between atoms: C_1  and  O_2
REMARK    2  A    between atoms: O_2  and  C_3
REMARK    3  A    between atoms: C_3  and  C_5
REMARK    4  A    between atoms: C_6  and  C_7
REMARK    5  A    between atoms: C_7  and  C_8
REMARK    6  A    between atoms: C_8  and  C_9
REMARK    7  A    between atoms: C_10  and  C_11
REMARK    8  A    between atoms: C_10  and  C_20
REMARK    9  A    between atoms: C_11  and  C_12
REMARK   10  A    between atoms: C_12  and  C_13
REMARK   11  A    between atoms: C_12  and  C_19
REMARK   12  A    between atoms: C_13  and  C_14
REMARK   13  A    between atoms: C_13  and  O_18
REMARK   14  A    between atoms: C_14  and  O_15
REMARK   15  A    between atoms: C_14  and  C_16
REMARK   16  A    between atoms: C_14  and  C_17
REMARK                            x       y       z     vdW  Elec       q    Type
REMARK                         _______ _______ _______ _____ _____    ______ ____
ROOT
ATOM      1  C   UNL     1      86.638  52.737  46.054  0.00  0.00    -0.085 C 
ATOM      2  C   UNL     1      86.225  53.727  46.879  0.00  0.00    -0.076 C 
ATOM      3  C   UNL     1      85.612  53.426  48.229  0.00  0.00    -0.044 C 
ENDROOT
BRANCH   1   4
ATOM      4  C   UNL     1      86.520  51.264  46.359  0.00  0.00    -0.031 C 
BRANCH   4   5
ATOM      5  C   UNL     1      87.656  50.480  45.692  0.00  0.00    -0.031 C 
BRANCH   5   7
ATOM      6  C   UNL     1      88.166  50.170  43.288  0.00  0.00    +0.019 C 
ATOM      7  C   UNL     1      87.933  50.999  44.310  0.00  0.00    -0.077 C 
BRANCH   6   8
ATOM      8  C   UNL     1      88.453  50.662  41.933  0.00  0.00    +0.331 C 
ATOM      9  O   UNL     1      87.705  50.308  40.981  0.00  0.00    -0.246 OA
BRANCH   8  11
ATOM     10  C   UNL     1      89.646  52.321  40.537  0.00  0.00    +0.082 C 
ATOM     11  O   UNL     1      89.539  51.512  41.702  0.00  0.00    -0.465 OA
ENDBRANCH   8  11
ENDBRANCH   6   8
ENDBRANCH   5   7
ENDBRANCH   4   5
ENDBRANCH   1   4
BRANCH   2  12
ATOM     12  C   UNL     1      86.462  55.175  46.485  0.00  0.00    -0.027 C 
BRANCH  12  13
ATOM     13  C   UNL     1      85.430  55.766  45.486  0.00  0.00    -0.011 C 
ATOM     14  C   UNL     1      84.667  56.962  46.079  0.00  0.00    -0.060 C 
BRANCH  13  15
ATOM     15  C   UNL     1      86.036  56.000  44.056  0.00  0.00    +0.086 C 
BRANCH  15  16
ATOM     16  C   UNL     1      85.634  54.956  42.946  0.00  0.00    +0.086 C 
ATOM     17  C   UNL     1      84.451  54.096  43.447  0.00  0.00    -0.034 C 
ATOM     18  C   UNL     1      86.787  53.989  42.595  0.00  0.00    -0.034 C 
BRANCH  16  19
ATOM     19  O   UNL     1      85.250  55.614  41.762  0.00  0.00    -0.387 OA
ATOM     20  H   UNL     1      85.963  55.544  41.107  0.00  0.00    +0.000 HD
ENDBRANCH  16  19
ENDBRANCH  15  16
BRANCH  15  21
ATOM     21  O   UNL     1      85.863  57.320  43.599  0.00  0.00    -0.389 OA
ATOM     22  H   UNL     1      86.418  57.919  44.123  0.00  0.00    +0.000 HD
ENDBRANCH  15  21
ENDBRANCH  13  15
ENDBRANCH  12  13
ENDBRANCH   2  12
TORSDOF 11
ENDMDL
