MODEL 1
REMARK VINA RESULT:    -6.291      0.000      0.000
REMARK INTER + INTRA:          -8.800
REMARK INTER:                  -8.202
REMARK INTRA:                  -0.598
REMARK UNBOUND:                -0.854
REMARK  Name = 
REMARK  8 active torsions:
REMARK  status: ('A' for Active; 'I' for Inactive)
REMARK    1  A    between atoms: O_1  and  C_2
REMARK    2  A    between atoms: C_2  and  C_3
REMARK    3  A    between atoms: C_3  and  C_16
REMARK    4  A    between atoms: C_4  and  C_5
REMARK    5  A    between atoms: C_5  and  C_6
REMARK    6  A    between atoms: C_6  and  C_7
REMARK    7  A    between atoms: C_7  and  C_8
REMARK    8  A    between atoms: C_12  and  C_13
REMARK                            x       y       z     vdW  Elec       q    Type
REMARK                         _______ _______ _______ _____ _____    ______ ____
ROOT
ATOM      1  C   UNL     1      85.376  56.065  45.184  0.00  0.00    -0.023 C 
ATOM      2  C   UNL     1      86.722  55.943  44.420  0.00  0.00    -0.059 C 
ATOM      3  C   UNL     1      85.505  56.791  46.557  0.00  0.00    -0.035 C 
ATOM      4  C   UNL     1      84.161  56.510  47.240  0.00  0.00    -0.046 C 
ATOM      5  C   UNL     1      84.167  55.003  47.056  0.00  0.00    -0.031 C 
ATOM      6  C   UNL     1      84.958  54.724  45.787  0.00  0.00    -0.020 C 
ATOM      7  C   UNL     1      84.640  53.459  44.992  0.00  0.00    -0.059 C 
ATOM      8  C   UNL     1      85.629  54.581  47.145  0.00  0.00    -0.031 C 
ATOM      9  C   UNL     1      86.411  55.862  47.375  0.00  0.00    -0.046 C 
ENDROOT
BRANCH   1  10
ATOM     10  C   UNL     1      84.258  56.624  44.236  0.00  0.00    -0.043 C 
BRANCH  10  11
ATOM     11  C   UNL     1      84.261  56.050  42.805  0.00  0.00    -0.034 C 
BRANCH  11  13
ATOM     12  C   UNL     1      82.882  54.231  41.679  0.00  0.00    -0.051 C 
ATOM     13  C   UNL     1      82.979  55.344  42.442  0.00  0.00    -0.083 C 
ATOM     14  C   UNL     1      81.511  53.668  41.413  0.00  0.00    -0.042 C 
BRANCH  12  15
ATOM     15  C   UNL     1      84.076  53.508  41.089  0.00  0.00    +0.065 C 
BRANCH  15  16
ATOM     16  O   UNL     1      84.143  53.732  39.708  0.00  0.00    -0.391 OA
ATOM     17  H   UNL     1      83.408  54.305  39.436  0.00  0.00    +0.000 HD
ENDBRANCH  15  16
ENDBRANCH  12  15
ENDBRANCH  11  13
ENDBRANCH  10  11
ENDBRANCH   1  10
TORSDOF 5
ENDMDL
MODEL 2
REMARK VINA RESULT:    -6.289      8.056      9.736
REMARK INTER + INTRA:          -8.798
REMARK INTER:                  -8.327
REMARK INTRA:                  -0.471
REMARK UNBOUND:                -0.854
REMARK  Name = 
REMARK  8 active torsions:
REMARK  status: ('A' for Active; 'I' for Inactive)
REMARK    1  A    between atoms: O_1  and  C_2
REMARK    2  A    between atoms: C_2  and  C_3
REMARK    3  A    between atoms: C_3  and  C_16
REMARK    4  A    between atoms: C_4  and  C_5
REMARK    5  A    between atoms: C_5  and  C_6
REMARK    6  A    between atoms: C_6  and  C_7
REMARK    7  A    between atoms: C_7  and  C_8
REMARK    8  A    between atoms: C_12  and  C_13
REMARK                            x       y       z     vdW  Elec       q    Type
REMARK                         _______ _______ _______ _____ _____    ______ ____
ROOT
ATOM      1  C   UNL     1      88.665  48.501  42.852  0.00  0.00    -0.023 C 
ATOM      2  C   UNL     1      88.158  49.343  44.054  0.00  0.00    -0.059 C 
ATOM      3  C   UNL     1      89.765  47.467  43.239  0.00  0.00    -0.035 C 
ATOM      4  C   UNL     1      90.316  47.004  41.884  0.00  0.00    -0.046 C 
ATOM      5  C   UNL     1      90.590  48.383  41.312  0.00  0.00    -0.031 C 
ATOM      6  C   UNL     1      89.578  49.326  41.945  0.00  0.00    -0.020 C 
ATOM      7  C   UNL     1      89.160  50.575  41.172  0.00  0.00    -0.059 C 
ATOM      8  C   UNL     1      90.993  49.251  42.498  0.00  0.00    -0.031 C 
ATOM      9  C   UNL     1      90.935  48.339  43.711  0.00  0.00    -0.046 C 
ENDROOT
BRANCH   1  10
ATOM     10  C   UNL     1      87.454  47.917  42.044  0.00  0.00    -0.043 C 
BRANCH  10  11
ATOM     11  C   UNL     1      86.484  47.036  42.856  0.00  0.00    -0.034 C 
BRANCH  11  13
ATOM     12  C   UNL     1      86.346  44.657  43.751  0.00  0.00    -0.051 C 
ATOM     13  C   UNL     1      87.019  45.652  43.128  0.00  0.00    -0.083 C 
ATOM     14  C   UNL     1      87.047  43.339  43.943  0.00  0.00    -0.042 C 
BRANCH  12  15
ATOM     15  C   UNL     1      84.922  44.788  44.252  0.00  0.00    +0.065 C 
BRANCH  15  16
ATOM     16  O   UNL     1      84.902  45.461  45.481  0.00  0.00    -0.391 OA
ATOM     17  H   UNL     1      84.057  45.927  45.581  0.00  0.00    +0.000 HD
ENDBRANCH  15  16
ENDBRANCH  12  15
ENDBRANCH  11  13
ENDBRANCH  10  11
ENDBRANCH   1  10
TORSDOF 5
ENDMDL
MODEL 3
REMARK VINA RESULT:    -6.051      3.511      5.187
REMARK INTER + INTRA:          -8.497
REMARK INTER:                  -7.846
REMARK INTRA:                  -0.651
REMARK UNBOUND:                -0.854
REMARK  Name = 
REMARK  8 active torsions:
REMARK  status: ('A' for Active; 'I' for Inactive)
REMARK    1  A    between atoms: O_1  and  C_2
REMARK    2  A    between atoms: C_2  and  C_3
REMARK    3  A    between atoms: C_3  and  C_16
REMARK    4  A    between atoms: C_4  and  C_5
REMARK    5  A    between atoms: C_5  and  C_6
REMARK    6  A    between atoms: C_6  and  C_7
REMARK    7  A    between atoms: C_7  and  C_8
REMARK    8  A    between atoms: C_12  and  C_13
REMARK                            x       y       z     vdW  Elec       q    Type
REMARK                         _______ _______ _______ _____ _____    ______ ____
ROOT
ATOM      1  C   UNL     1      85.450  53.209  46.498  0.00  0.00    -0.023 C 
ATOM      2  C   UNL     1      84.530  52.676  45.366  0.00  0.00    -0.059 C 
ATOM      3  C   UNL     1      84.846  53.030  47.923  0.00  0.00    -0.035 C 
ATOM      4  C   UNL     1      85.754  53.891  48.810  0.00  0.00    -0.046 C 
ATOM      5  C   UNL     1      85.665  55.165  47.989  0.00  0.00    -0.031 C 
ATOM      6  C   UNL     1      85.440  54.737  46.546  0.00  0.00    -0.020 C 
ATOM      7  C   UNL     1      85.921  55.659  45.428  0.00  0.00    -0.059 C 
ATOM      8  C   UNL     1      84.261  55.180  47.399  0.00  0.00    -0.031 C 
ATOM      9  C   UNL     1      83.592  53.912  47.901  0.00  0.00    -0.046 C 
ENDROOT
BRANCH   1  10
ATOM     10  C   UNL     1      86.910  52.665  46.318  0.00  0.00    -0.043 C 
BRANCH  10  11
ATOM     11  C   UNL     1      87.089  51.158  46.587  0.00  0.00    -0.034 C 
BRANCH  11  13
ATOM     12  C   UNL     1      87.182  49.540  44.624  0.00  0.00    -0.051 C 
ATOM     13  C   UNL     1      87.772  50.426  45.459  0.00  0.00    -0.083 C 
ATOM     14  C   UNL     1      88.027  48.898  43.556  0.00  0.00    -0.042 C 
BRANCH  12  15
ATOM     15  C   UNL     1      85.714  49.168  44.691  0.00  0.00    +0.065 C 
BRANCH  15  16
ATOM     16  O   UNL     1      85.538  48.035  45.495  0.00  0.00    -0.391 OA
ATOM     17  H   UNL     1      85.202  47.303  44.953  0.00  0.00    +0.000 HD
ENDBRANCH  15  16
ENDBRANCH  12  15
ENDBRANCH  11  13
ENDBRANCH  10  11
ENDBRANCH   1  10
TORSDOF 5
ENDMDL
MODEL 4
REMARK VINA RESULT:    -5.939      1.494      2.537
REMARK INTER + INTRA:          -8.356
REMARK INTER:                  -7.474
REMARK INTRA:                  -0.882
REMARK UNBOUND:                -0.854
REMARK  Name = 
REMARK  8 active torsions:
REMARK  status: ('A' for Active; 'I' for Inactive)
REMARK    1  A    between atoms: O_1  and  C_2
REMARK    2  A    between atoms: C_2  and  C_3
REMARK    3  A    between atoms: C_3  and  C_16
REMARK    4  A    between atoms: C_4  and  C_5
REMARK    5  A    between atoms: C_5  and  C_6
REMARK    6  A    between atoms: C_6  and  C_7
REMARK    7  A    between atoms: C_7  and  C_8
REMARK    8  A    between atoms: C_12  and  C_13
REMARK                            x       y       z     vdW  Elec       q    Type
REMARK                         _______ _______ _______ _____ _____    ______ ____
ROOT
ATOM      1  C   UNL     1      85.567  53.565  46.088  0.00  0.00    -0.023 C 
ATOM      2  C   UNL     1      86.838  52.706  46.328  0.00  0.00    -0.059 C 
ATOM      3  C   UNL     1      85.843  54.869  45.281  0.00  0.00    -0.035 C 
ATOM      4  C   UNL     1      84.550  55.677  45.448  0.00  0.00    -0.046 C 
ATOM      5  C   UNL     1      84.474  55.599  46.963  0.00  0.00    -0.031 C 
ATOM      6  C   UNL     1      85.142  54.292  47.365  0.00  0.00    -0.020 C 
ATOM      7  C   UNL     1      84.703  53.616  48.661  0.00  0.00    -0.059 C 
ATOM      8  C   UNL     1      85.917  55.598  47.450  0.00  0.00    -0.031 C 
ATOM      9  C   UNL     1      86.773  55.674  46.198  0.00  0.00    -0.046 C 
ENDROOT
BRANCH   1  10
ATOM     10  C   UNL     1      84.399  52.674  45.538  0.00  0.00    -0.043 C 
BRANCH  10  11
ATOM     11  C   UNL     1      84.524  52.265  44.057  0.00  0.00    -0.034 C 
BRANCH  11  13
ATOM     12  C   UNL     1      83.611  53.722  42.180  0.00  0.00    -0.051 C 
ATOM     13  C   UNL     1      83.433  52.835  43.186  0.00  0.00    -0.083 C 
ATOM     14  C   UNL     1      82.397  54.188  41.421  0.00  0.00    -0.042 C 
BRANCH  12  15
ATOM     15  C   UNL     1      84.963  54.262  41.763  0.00  0.00    +0.065 C 
BRANCH  15  16
ATOM     16  O   UNL     1      84.943  55.663  41.753  0.00  0.00    -0.391 OA
ATOM     17  H   UNL     1      85.101  55.983  40.851  0.00  0.00    +0.000 HD
ENDBRANCH  15  16
ENDBRANCH  12  15
ENDBRANCH  11  13
ENDBRANCH  10  11
ENDBRANCH   1  10
TORSDOF 5
ENDMDL
MODEL 5
REMARK VINA RESULT:    -5.934      2.874      4.025
REMARK INTER + INTRA:          -8.350
REMARK INTER:                  -7.893
REMARK INTRA:                  -0.457
REMARK UNBOUND:                -0.854
REMARK  Name = 
REMARK  8 active torsions:
REMARK  status: ('A' for Active; 'I' for Inactive)
REMARK    1  A    between atoms: O_1  and  C_2
REMARK    2  A    between atoms: C_2  and  C_3
REMARK    3  A    between atoms: C_3  and  C_16
REMARK    4  A    between atoms: C_4  and  C_5
REMARK    5  A    between atoms: C_5  and  C_6
REMARK    6  A    between atoms: C_6  and  C_7
REMARK    7  A    between atoms: C_7  and  C_8
REMARK    8  A    between atoms: C_12  and  C_13
REMARK                            x       y       z     vdW  Elec       q    Type
REMARK                         _______ _______ _______ _____ _____    ______ ____
ROOT
ATOM      1  C   UNL     1      85.498  54.426  44.686  0.00  0.00    -0.023 C 
ATOM      2  C   UNL     1      84.416  53.459  44.135  0.00  0.00    -0.059 C 
ATOM      3  C   UNL     1      85.966  54.075  46.131  0.00  0.00    -0.035 C 
ATOM      4  C   UNL     1      86.763  55.312  46.562  0.00  0.00    -0.046 C 
ATOM      5  C   UNL     1      85.703  56.346  46.226  0.00  0.00    -0.031 C 
ATOM      6  C   UNL     1      84.889  55.774  45.074  0.00  0.00    -0.020 C 
ATOM      7  C   UNL     1      84.205  56.743  44.112  0.00  0.00    -0.059 C 
ATOM      8  C   UNL     1      84.365  55.669  46.498  0.00  0.00    -0.031 C 
ATOM      9  C   UNL     1      84.704  54.270  46.980  0.00  0.00    -0.046 C 
ENDROOT
BRANCH   1  10
ATOM     10  C   UNL     1      86.650  54.614  43.638  0.00  0.00    -0.043 C 
BRANCH  10  11
ATOM     11  C   UNL     1      86.651  53.605  42.473  0.00  0.00    -0.034 C 
BRANCH  11  13
ATOM     12  C   UNL     1      88.415  52.169  41.330  0.00  0.00    -0.051 C 
ATOM     13  C   UNL     1      87.881  52.733  42.438  0.00  0.00    -0.083 C 
ATOM     14  C   UNL     1      89.647  51.318  41.490  0.00  0.00    -0.042 C 
BRANCH  12  15
ATOM     15  C   UNL     1      87.855  52.358  39.935  0.00  0.00    +0.065 C 
BRANCH  15  16
ATOM     16  O   UNL     1      88.592  51.606  39.012  0.00  0.00    -0.391 OA
ATOM     17  H   UNL     1      88.725  50.709  39.357  0.00  0.00    +0.000 HD
ENDBRANCH  15  16
ENDBRANCH  12  15
ENDBRANCH  11  13
ENDBRANCH  10  11
ENDBRANCH   1  10
TORSDOF 5
ENDMDL
MODEL 6
REMARK VINA RESULT:    -5.929      3.153      4.161
REMARK INTER + INTRA:          -8.344
REMARK INTER:                  -7.796
REMARK INTRA:                  -0.548
REMARK UNBOUND:                -0.854
REMARK  Name = 
REMARK  8 active torsions:
REMARK  status: ('A' for Active; 'I' for Inactive)
REMARK    1  A    between atoms: O_1  and  C_2
REMARK    2  A    between atoms: C_2  and  C_3
REMARK    3  A    between atoms: C_3  and  C_16
REMARK    4  A    between atoms: C_4  and  C_5
REMARK    5  A    between atoms: C_5  and  C_6
REMARK    6  A    between atoms: C_6  and  C_7
REMARK    7  A    between atoms: C_7  and  C_8
REMARK    8  A    between atoms: C_12  and  C_13
REMARK                            x       y       z     vdW  Elec       q    Type
REMARK                         _______ _______ _______ _____ _____    ______ ____
ROOT
ATOM      1  C   UNL     1      85.575  53.491  46.185  0.00  0.00    -0.023 C 
ATOM      2  C   UNL     1      86.850  52.625  46.372  0.00  0.00    -0.059 C 
ATOM      3  C   UNL     1      85.790  54.718  45.249  0.00  0.00    -0.035 C 
ATOM      4  C   UNL     1      84.532  55.567  45.471  0.00  0.00    -0.046 C 
ATOM      5  C   UNL     1      84.604  55.615  46.987  0.00  0.00    -0.031 C 
ATOM      6  C   UNL     1      85.288  54.331  47.431  0.00  0.00    -0.020 C 
ATOM      7  C   UNL     1      84.968  53.773  48.816  0.00  0.00    -0.059 C 
ATOM      8  C   UNL     1      86.088  55.621  47.332  0.00  0.00    -0.031 C 
ATOM      9  C   UNL     1      86.817  55.574  46.000  0.00  0.00    -0.046 C 
ENDROOT
BRANCH   1  10
ATOM     10  C   UNL     1      84.346  52.586  45.827  0.00  0.00    -0.043 C 
BRANCH  10  11
ATOM     11  C   UNL     1      84.317  52.057  44.379  0.00  0.00    -0.034 C 
BRANCH  11  13
ATOM     12  C   UNL     1      83.942  49.546  44.197  0.00  0.00    -0.051 C 
ATOM     13  C   UNL     1      83.476  50.816  44.212  0.00  0.00    -0.083 C 
ATOM     14  C   UNL     1      82.950  48.428  44.010  0.00  0.00    -0.042 C 
BRANCH  12  15
ATOM     15  C   UNL     1      85.402  49.182  44.372  0.00  0.00    +0.065 C 
BRANCH  15  16
ATOM     16  O   UNL     1      85.566  48.367  45.500  0.00  0.00    -0.391 OA
ATOM     17  H   UNL     1      85.091  48.756  46.251  0.00  0.00    +0.000 HD
ENDBRANCH  15  16
ENDBRANCH  12  15
ENDBRANCH  11  13
ENDBRANCH  10  11
ENDBRANCH   1  10
TORSDOF 5
ENDMDL
MODEL 7
REMARK VINA RESULT:    -5.923      1.939      2.922
REMARK INTER + INTRA:          -8.335
REMARK INTER:                  -7.868
REMARK INTRA:                  -0.467
REMARK UNBOUND:                -0.854
REMARK  Name = 
REMARK  8 active torsions:
REMARK  status: ('A' for Active; 'I' for Inactive)
REMARK    1  A    between atoms: O_1  and  C_2
REMARK    2  A    between atoms: C_2  and  C_3
REMARK    3  A    between atoms: C_3  and  C_16
REMARK    4  A    between atoms: C_4  and  C_5
REMARK    5  A    between atoms: C_5  and  C_6
REMARK    6  A    between atoms: C_6  and  C_7
REMARK    7  A    between atoms: C_7  and  C_8
REMARK    8  A    between atoms: C_12  and  C_13
REMARK                            x       y       z     vdW  Elec       q    Type
REMARK                         _______ _______ _______ _____ _____    ______ ____
ROOT
ATOM      1  C   UNL     1      85.531  53.571  46.079  0.00  0.00    -0.023 C 
ATOM      2  C   UNL     1      86.787  52.667  46.201  0.00  0.00    -0.059 C 
ATOM      3  C   UNL     1      85.792  54.893  45.296  0.00  0.00    -0.035 C 
ATOM      4  C   UNL     1      84.540  55.732  45.579  0.00  0.00    -0.046 C 
ATOM      5  C   UNL     1      84.565  55.605  47.092  0.00  0.00    -0.031 C 
ATOM      6  C   UNL     1      85.218  54.266  47.404  0.00  0.00    -0.020 C 
ATOM      7  C   UNL     1      84.848  53.560  48.706  0.00  0.00    -0.059 C 
ATOM      8  C   UNL     1      86.039  55.545  47.477  0.00  0.00    -0.031 C 
ATOM      9  C   UNL     1      86.807  55.639  46.170  0.00  0.00    -0.046 C 
ENDROOT
BRANCH   1  10
ATOM     10  C   UNL     1      84.301  52.734  45.583  0.00  0.00    -0.043 C 
BRANCH  10  11
ATOM     11  C   UNL     1      84.301  52.388  44.081  0.00  0.00    -0.034 C 
BRANCH  11  13
ATOM     12  C   UNL     1      82.217  51.748  42.766  0.00  0.00    -0.051 C 
ATOM     13  C   UNL     1      83.175  51.468  43.679  0.00  0.00    -0.083 C 
ATOM     14  C   UNL     1      81.163  50.707  42.499  0.00  0.00    -0.042 C 
BRANCH  12  15
ATOM     15  C   UNL     1      82.152  53.045  41.985  0.00  0.00    +0.065 C 
BRANCH  15  16
ATOM     16  O   UNL     1      80.820  53.445  41.822  0.00  0.00    -0.391 OA
ATOM     17  H   UNL     1      80.696  53.803  40.928  0.00  0.00    +0.000 HD
ENDBRANCH  15  16
ENDBRANCH  12  15
ENDBRANCH  11  13
ENDBRANCH  10  11
ENDBRANCH   1  10
TORSDOF 5
ENDMDL
MODEL 8
REMARK VINA RESULT:    -5.896      1.518      2.155
REMARK INTER + INTRA:          -8.301
REMARK INTER:                  -7.447
REMARK INTRA:                  -0.854
REMARK UNBOUND:                -0.854
REMARK  Name = 
REMARK  8 active torsions:
REMARK  status: ('A' for Active; 'I' for Inactive)
REMARK    1  A    between atoms: O_1  and  C_2
REMARK    2  A    between atoms: C_2  and  C_3
REMARK    3  A    between atoms: C_3  and  C_16
REMARK    4  A    between atoms: C_4  and  C_5
REMARK    5  A    between atoms: C_5  and  C_6
REMARK    6  A    between atoms: C_6  and  C_7
REMARK    7  A    between atoms: C_7  and  C_8
REMARK    8  A    between atoms: C_12  and  C_13
REMARK                            x       y       z     vdW  Elec       q    Type
REMARK                         _______ _______ _______ _____ _____    ______ ____
ROOT
ATOM      1  C   UNL     1      85.910  53.840  44.773  0.00  0.00    -0.023 C 
ATOM      2  C   UNL     1      86.755  53.465  43.525  0.00  0.00    -0.059 C 
ATOM      3  C   UNL     1      86.712  53.774  46.107  0.00  0.00    -0.035 C 
ATOM      4  C   UNL     1      85.625  53.864  47.186  0.00  0.00    -0.046 C 
ATOM      5  C   UNL     1      84.740  52.750  46.654  0.00  0.00    -0.031 C 
ATOM      6  C   UNL     1      84.946  52.713  45.147  0.00  0.00    -0.020 C 
ATOM      7  C   UNL     1      83.812  52.194  44.268  0.00  0.00    -0.059 C 
ATOM      8  C   UNL     1      85.687  51.728  46.038  0.00  0.00    -0.031 C 
ATOM      9  C   UNL     1      87.083  52.291  46.236  0.00  0.00    -0.046 C 
ENDROOT
BRANCH   1  10
ATOM     10  C   UNL     1      85.134  55.180  44.526  0.00  0.00    -0.043 C 
BRANCH  10  11
ATOM     11  C   UNL     1      84.945  55.568  43.046  0.00  0.00    -0.034 C 
BRANCH  11  13
ATOM     12  C   UNL     1      83.216  54.516  41.501  0.00  0.00    -0.051 C 
ATOM     13  C   UNL     1      83.546  55.321  42.537  0.00  0.00    -0.083 C 
ATOM     14  C   UNL     1      81.762  54.398  41.129  0.00  0.00    -0.042 C 
BRANCH  12  15
ATOM     15  C   UNL     1      84.224  53.713  40.704  0.00  0.00    +0.065 C 
BRANCH  15  16
ATOM     16  O   UNL     1      84.090  53.989  39.337  0.00  0.00    -0.391 OA
ATOM     17  H   UNL     1      84.804  53.551  38.847  0.00  0.00    +0.000 HD
ENDBRANCH  15  16
ENDBRANCH  12  15
ENDBRANCH  11  13
ENDBRANCH  10  11
ENDBRANCH   1  10
TORSDOF 5
ENDMDL
MODEL 9
REMARK VINA RESULT:    -5.891      3.419      5.384
REMARK INTER + INTRA:          -8.296
REMARK INTER:                  -7.789
REMARK INTRA:                  -0.506
REMARK UNBOUND:                -0.854
REMARK  Name = 
REMARK  8 active torsions:
REMARK  status: ('A' for Active; 'I' for Inactive)
REMARK    1  A    between atoms: O_1  and  C_2
REMARK    2  A    between atoms: C_2  and  C_3
REMARK    3  A    between atoms: C_3  and  C_16
REMARK    4  A    between atoms: C_4  and  C_5
REMARK    5  A    between atoms: C_5  and  C_6
REMARK    6  A    between atoms: C_6  and  C_7
REMARK    7  A    between atoms: C_7  and  C_8
REMARK    8  A    between atoms: C_12  and  C_13
REMARK                            x       y       z     vdW  Elec       q    Type
REMARK                         _______ _______ _______ _____ _____    ______ ____
ROOT
ATOM      1  C   UNL     1      85.659  55.294  45.849  0.00  0.00    -0.023 C 
ATOM      2  C   UNL     1      86.739  55.536  46.939  0.00  0.00    -0.059 C 
ATOM      3  C   UNL     1      86.181  55.523  44.399  0.00  0.00    -0.035 C 
ATOM      4  C   UNL     1      84.901  55.542  43.554  0.00  0.00    -0.046 C 
ATOM      5  C   UNL     1      84.149  56.575  44.375  0.00  0.00    -0.031 C 
ATOM      6  C   UNL     1      84.651  56.443  45.805  0.00  0.00    -0.020 C 
ATOM      7  C   UNL     1      83.718  56.843  46.946  0.00  0.00    -0.059 C 
ATOM      8  C   UNL     1      85.209  57.533  44.904  0.00  0.00    -0.031 C 
ATOM      9  C   UNL     1      86.533  57.016  44.370  0.00  0.00    -0.046 C 
ENDROOT
BRANCH   1  10
ATOM     10  C   UNL     1      84.936  53.924  46.091  0.00  0.00    -0.043 C 
BRANCH  10  11
ATOM     11  C   UNL     1      85.718  52.908  46.947  0.00  0.00    -0.034 C 
BRANCH  11  13
ATOM     12  C   UNL     1      87.154  50.834  46.608  0.00  0.00    -0.051 C 
ATOM     13  C   UNL     1      86.522  51.930  46.128  0.00  0.00    -0.083 C 
ATOM     14  C   UNL     1      87.921  49.974  45.639  0.00  0.00    -0.042 C 
BRANCH  12  15
ATOM     15  C   UNL     1      87.122  50.413  48.063  0.00  0.00    +0.065 C 
BRANCH  15  16
ATOM     16  O   UNL     1      88.394  49.991  48.473  0.00  0.00    -0.391 OA
ATOM     17  H   UNL     1      88.305  49.237  49.077  0.00  0.00    +0.000 HD
ENDBRANCH  15  16
ENDBRANCH  12  15
ENDBRANCH  11  13
ENDBRANCH  10  11
ENDBRANCH   1  10
TORSDOF 5
ENDMDL
