MODEL 1
REMARK VINA RESULT:    -4.191      0.000      0.000
REMARK INTER + INTRA:          -2.107
REMARK INTER:                  -6.188
REMARK INTRA:                   4.081
REMARK UNBOUND:                 4.289
REMARK  Name = 
REMARK  21 active torsions:
REMARK  status: ('A' for Active; 'I' for Inactive)
REMARK    1  A    between atoms: C_1  and  O_2
REMARK    2  A    between atoms: O_2  and  C_3
REMARK    3  A    between atoms: C_4  and  C_5
REMARK    4  A    between atoms: C_5  and  C_6
REMARK    5  A    between atoms: C_5  and  C_7
REMARK    6  A    between atoms: C_8  and  O_44
REMARK    7  A    between atoms: C_18  and  O_19
REMARK    8  A    between atoms: O_19  and  C_20
REMARK    9  A    between atoms: C_21  and  C_26
REMARK   10  A    between atoms: C_22  and  O_24
REMARK   11  A    between atoms: O_24  and  C_25
REMARK   12  A    between atoms: C_26  and  C_27
REMARK   13  A    between atoms: C_26  and  C_28
REMARK   14  A    between atoms: C_33  and  O_34
REMARK   15  A    between atoms: O_34  and  C_35
REMARK   16  A    between atoms: C_36  and  C_41
REMARK   17  A    between atoms: C_37  and  O_39
REMARK   18  A    between atoms: O_39  and  C_40
REMARK   19  A    between atoms: C_41  and  C_42
REMARK   20  A    between atoms: C_41  and  C_43
REMARK   21  A    between atoms: O_44  and  C_45
REMARK                            x       y       z     vdW  Elec       q    Type
REMARK                         _______ _______ _______ _____ _____    ______ ____
ROOT
ATOM      1  C   UNL     1      85.682  53.372  40.532  0.00  0.00    +0.172 C 
ATOM      2  C   UNL     1      85.342  54.198  41.553  0.00  0.00    +0.049 C 
ATOM      3  C   UNL     1      86.078  54.088  42.896  0.00  0.00    +0.246 C 
ATOM      4  C   UNL     1      86.342  52.583  43.192  0.00  0.00    +0.080 C 
ATOM      5  C   UNL     1      87.188  51.860  42.083  0.00  0.00    +0.185 C 
ATOM      6  C   UNL     1      86.755  52.353  40.715  0.00  0.00    +0.241 C 
ATOM      7  O   UNL     1      87.296  51.835  39.702  0.00  0.00    -0.284 OA
ATOM      8  C   UNL     1      88.744  52.064  42.211  0.00  0.00    -0.001 C 
ATOM      9  C   UNL     1      89.456  51.005  43.064  0.00  0.00    -0.020 C 
ATOM     10  C   UNL     1      89.034  49.622  42.679  0.00  0.00    +0.002 A 
ATOM     11  C   UNL     1      87.728  49.398  42.245  0.00  0.00    +0.167 A 
ATOM     12  O   UNL     1      86.836  50.468  42.116  0.00  0.00    -0.473 OA
ATOM     13  C   UNL     1      87.292  48.095  41.955  0.00  0.00    +0.169 A 
ATOM     14  C   UNL     1      88.159  46.992  42.144  0.00  0.00    +0.042 A 
ATOM     15  C   UNL     1      89.479  47.224  42.608  0.00  0.00    +0.127 A 
ATOM     16  C   UNL     1      89.898  48.541  42.874  0.00  0.00    -0.013 A 
ATOM     17  C   UNL     1      86.904  52.402  44.615  0.00  0.00    -0.011 C 
ATOM     18  C   UNL     1      86.025  53.060  45.638  0.00  0.00    +0.002 A 
ATOM     19  C   UNL     1      85.286  54.197  45.293  0.00  0.00    +0.170 A 
ATOM     20  O   UNL     1      85.258  54.627  43.957  0.00  0.00    -0.453 OA
ATOM     21  C   UNL     1      84.531  54.872  46.274  0.00  0.00    +0.169 A 
ATOM     22  C   UNL     1      84.471  54.366  47.599  0.00  0.00    +0.042 A 
ATOM     23  C   UNL     1      85.224  53.213  47.933  0.00  0.00    +0.127 A 
ATOM     24  C   UNL     1      86.007  52.585  46.949  0.00  0.00    -0.013 A 
ENDROOT
BRANCH   2  25
ATOM     25  C   UNL     1      84.203  55.214  41.394  0.00  0.00    -0.016 C 
ATOM     26  C   UNL     1      82.812  54.605  41.644  0.00  0.00    -0.059 C 
ATOM     27  C   UNL     1      84.442  56.463  42.251  0.00  0.00    -0.059 C 
ENDBRANCH   2  25
BRANCH  14  28
ATOM     28  C   UNL     1      87.671  45.578  41.819  0.00  0.00    -0.014 C 
ATOM     29  C   UNL     1      88.749  44.524  42.103  0.00  0.00    -0.058 C 
ATOM     30  C   UNL     1      86.351  45.244  42.524  0.00  0.00    -0.058 C 
ENDBRANCH  14  28
BRANCH  22  31
ATOM     31  C   UNL     1      83.644  55.066  48.682  0.00  0.00    -0.014 C 
ATOM     32  C   UNL     1      84.169  54.769  50.093  0.00  0.00    -0.058 C 
ATOM     33  C   UNL     1      82.148  54.751  48.556  0.00  0.00    -0.058 C 
ENDBRANCH  22  31
BRANCH   1  35
ATOM     34  C   UNL     1      84.653  54.689  38.641  0.00  0.00    +0.079 C 
ATOM     35  O   UNL     1      84.982  53.481  39.317  0.00  0.00    -0.491 OA
ENDBRANCH   1  35
BRANCH  13  36
ATOM     36  O   UNL     1      85.985  47.889  41.494  0.00  0.00    -0.491 OA
ATOM     37  C   UNL     1      84.859  47.906  42.365  0.00  0.00    +0.079 C 
ENDBRANCH  13  36
BRANCH  15  38
ATOM     38  O   UNL     1      90.348  46.137  42.794  0.00  0.00    -0.495 OA
ATOM     39  C   UNL     1      91.549  46.171  43.559  0.00  0.00    +0.079 C 
ENDBRANCH  15  38
BRANCH  21  40
ATOM     40  O   UNL     1      83.823  56.040  45.955  0.00  0.00    -0.491 OA
ATOM     41  C   UNL     1      84.415  57.334  45.925  0.00  0.00    +0.079 C 
ENDBRANCH  21  40
BRANCH  23  42
ATOM     42  O   UNL     1      85.184  52.717  49.249  0.00  0.00    -0.495 OA
ATOM     43  C   UNL     1      85.584  51.406  49.639  0.00  0.00    +0.079 C 
ENDBRANCH  23  42
BRANCH   3  44
ATOM     44  O   UNL     1      87.332  54.758  42.812  0.00  0.00    -0.339 OA
ATOM     45  C   UNL     1      87.471  55.791  43.765  0.00  0.00    +0.041 C 
ENDBRANCH   3  44
TORSDOF 9
ENDMDL
MODEL 2
REMARK VINA RESULT:    -2.424      2.654      8.896
REMARK INTER + INTRA:           0.590
REMARK INTER:                  -2.955
REMARK INTRA:                   3.545
REMARK UNBOUND:                 4.289
REMARK  Name = 
REMARK  21 active torsions:
REMARK  status: ('A' for Active; 'I' for Inactive)
REMARK    1  A    between atoms: C_1  and  O_2
REMARK    2  A    between atoms: O_2  and  C_3
REMARK    3  A    between atoms: C_4  and  C_5
REMARK    4  A    between atoms: C_5  and  C_6
REMARK    5  A    between atoms: C_5  and  C_7
REMARK    6  A    between atoms: C_8  and  O_44
REMARK    7  A    between atoms: C_18  and  O_19
REMARK    8  A    between atoms: O_19  and  C_20
REMARK    9  A    between atoms: C_21  and  C_26
REMARK   10  A    between atoms: C_22  and  O_24
REMARK   11  A    between atoms: O_24  and  C_25
REMARK   12  A    between atoms: C_26  and  C_27
REMARK   13  A    between atoms: C_26  and  C_28
REMARK   14  A    between atoms: C_33  and  O_34
REMARK   15  A    between atoms: O_34  and  C_35
REMARK   16  A    between atoms: C_36  and  C_41
REMARK   17  A    between atoms: C_37  and  O_39
REMARK   18  A    between atoms: O_39  and  C_40
REMARK   19  A    between atoms: C_41  and  C_42
REMARK   20  A    between atoms: C_41  and  C_43
REMARK   21  A    between atoms: O_44  and  C_45
REMARK                            x       y       z     vdW  Elec       q    Type
REMARK                         _______ _______ _______ _____ _____    ______ ____
ROOT
ATOM      1  C   UNL     1      82.768  48.457  43.572  0.00  0.00    +0.172 C 
ATOM      2  C   UNL     1      83.853  47.651  43.701  0.00  0.00    +0.049 C 
ATOM      3  C   UNL     1      85.208  48.260  44.087  0.00  0.00    +0.246 C 
ATOM      4  C   UNL     1      85.360  49.628  43.361  0.00  0.00    +0.080 C 
ATOM      5  C   UNL     1      84.221  50.655  43.703  0.00  0.00    +0.185 C 
ATOM      6  C   UNL     1      82.893  49.927  43.790  0.00  0.00    +0.241 C 
ATOM      7  O   UNL     1      81.857  50.610  44.006  0.00  0.00    -0.284 OA
ATOM      8  C   UNL     1      84.438  51.447  45.047  0.00  0.00    -0.001 C 
ATOM      9  C   UNL     1      85.208  52.765  44.890  0.00  0.00    -0.020 C 
ATOM     10  C   UNL     1      84.665  53.583  43.761  0.00  0.00    +0.002 A 
ATOM     11  C   UNL     1      84.153  52.942  42.634  0.00  0.00    +0.167 A 
ATOM     12  O   UNL     1      84.096  51.544  42.583  0.00  0.00    -0.473 OA
ATOM     13  C   UNL     1      83.712  53.692  41.532  0.00  0.00    +0.169 A 
ATOM     14  C   UNL     1      83.826  55.103  41.535  0.00  0.00    +0.042 A 
ATOM     15  C   UNL     1      84.369  55.747  42.676  0.00  0.00    +0.127 A 
ATOM     16  C   UNL     1      84.786  54.974  43.776  0.00  0.00    -0.013 A 
ATOM     17  C   UNL     1      86.780  50.191  43.559  0.00  0.00    -0.011 C 
ATOM     18  C   UNL     1      87.826  49.192  43.159  0.00  0.00    +0.002 A 
ATOM     19  C   UNL     1      87.566  47.823  43.292  0.00  0.00    +0.170 A 
ATOM     20  O   UNL     1      86.282  47.392  43.659  0.00  0.00    -0.453 OA
ATOM     21  C   UNL     1      88.578  46.882  43.005  0.00  0.00    +0.169 A 
ATOM     22  C   UNL     1      89.840  47.320  42.524  0.00  0.00    +0.042 A 
ATOM     23  C   UNL     1      90.087  48.709  42.394  0.00  0.00    +0.127 A 
ATOM     24  C   UNL     1      89.079  49.628  42.731  0.00  0.00    -0.013 A 
ENDROOT
BRANCH   2  25
ATOM     25  C   UNL     1      83.748  46.146  43.426  0.00  0.00    -0.016 C 
ATOM     26  C   UNL     1      84.163  45.764  41.994  0.00  0.00    -0.059 C 
ATOM     27  C   UNL     1      84.510  45.330  44.477  0.00  0.00    -0.059 C 
ENDBRANCH   2  25
BRANCH  14  28
ATOM     28  C   UNL     1      83.336  55.908  40.329  0.00  0.00    -0.014 C 
ATOM     29  C   UNL     1      84.355  55.893  39.182  0.00  0.00    -0.058 C 
ATOM     30  C   UNL     1      81.946  55.459  39.859  0.00  0.00    -0.058 C 
ENDBRANCH  14  28
BRANCH  22  31
ATOM     31  C   UNL     1      90.951  46.321  42.185  0.00  0.00    -0.014 C 
ATOM     32  C   UNL     1      90.921  45.902  40.708  0.00  0.00    -0.058 C 
ATOM     33  C   UNL     1      90.936  45.105  43.119  0.00  0.00    -0.058 C 
ENDBRANCH  22  31
BRANCH   1  35
ATOM     34  C   UNL     1      80.494  47.488  44.082  0.00  0.00    +0.079 C 
ATOM     35  O   UNL     1      81.541  47.878  43.201  0.00  0.00    -0.491 OA
ENDBRANCH   1  35
BRANCH  13  36
ATOM     36  O   UNL     1      83.175  53.035  40.416  0.00  0.00    -0.491 OA
ATOM     37  C   UNL     1      82.215  51.990  40.538  0.00  0.00    +0.079 C 
ENDBRANCH  13  36
BRANCH  15  38
ATOM     38  O   UNL     1      84.481  57.148  42.692  0.00  0.00    -0.495 OA
ATOM     39  C   UNL     1      85.105  57.907  43.722  0.00  0.00    +0.079 C 
ENDBRANCH  15  38
BRANCH  21  40
ATOM     40  O   UNL     1      88.348  45.510  43.178  0.00  0.00    -0.491 OA
ATOM     41  C   UNL     1      87.620  44.712  42.251  0.00  0.00    +0.079 C 
ENDBRANCH  21  40
BRANCH  23  42
ATOM     42  O   UNL     1      91.341  49.149  41.935  0.00  0.00    -0.495 OA
ATOM     43  C   UNL     1      92.397  49.618  42.769  0.00  0.00    +0.079 C 
ENDBRANCH  23  42
BRANCH   3  44
ATOM     44  O   UNL     1      85.249  48.488  45.493  0.00  0.00    -0.339 OA
ATOM     45  C   UNL     1      86.426  49.145  45.912  0.00  0.00    +0.041 C 
ENDBRANCH   3  44
TORSDOF 9
ENDMDL
MODEL 3
REMARK VINA RESULT:    -2.043      3.228      5.078
REMARK INTER + INTRA:           1.172
REMARK INTER:                  -4.206
REMARK INTRA:                   5.378
REMARK UNBOUND:                 4.289
REMARK  Name = 
REMARK  21 active torsions:
REMARK  status: ('A' for Active; 'I' for Inactive)
REMARK    1  A    between atoms: C_1  and  O_2
REMARK    2  A    between atoms: O_2  and  C_3
REMARK    3  A    between atoms: C_4  and  C_5
REMARK    4  A    between atoms: C_5  and  C_6
REMARK    5  A    between atoms: C_5  and  C_7
REMARK    6  A    between atoms: C_8  and  O_44
REMARK    7  A    between atoms: C_18  and  O_19
REMARK    8  A    between atoms: O_19  and  C_20
REMARK    9  A    between atoms: C_21  and  C_26
REMARK   10  A    between atoms: C_22  and  O_24
REMARK   11  A    between atoms: O_24  and  C_25
REMARK   12  A    between atoms: C_26  and  C_27
REMARK   13  A    between atoms: C_26  and  C_28
REMARK   14  A    between atoms: C_33  and  O_34
REMARK   15  A    between atoms: O_34  and  C_35
REMARK   16  A    between atoms: C_36  and  C_41
REMARK   17  A    between atoms: C_37  and  O_39
REMARK   18  A    between atoms: O_39  and  C_40
REMARK   19  A    between atoms: C_41  and  C_42
REMARK   20  A    between atoms: C_41  and  C_43
REMARK   21  A    between atoms: O_44  and  C_45
REMARK                            x       y       z     vdW  Elec       q    Type
REMARK                         _______ _______ _______ _____ _____    ______ ____
ROOT
ATOM      1  C   UNL     1      84.947  53.929  41.657  0.00  0.00    +0.172 C 
ATOM      2  C   UNL     1      83.698  53.558  42.038  0.00  0.00    +0.049 C 
ATOM      3  C   UNL     1      83.523  52.481  43.119  0.00  0.00    +0.246 C 
ATOM      4  C   UNL     1      84.608  51.387  42.905  0.00  0.00    +0.080 C 
ATOM      5  C   UNL     1      86.078  51.936  42.963  0.00  0.00    +0.185 C 
ATOM      6  C   UNL     1      86.143  53.285  42.273  0.00  0.00    +0.241 C 
ATOM      7  O   UNL     1      87.265  53.849  42.179  0.00  0.00    -0.284 OA
ATOM      8  C   UNL     1      86.658  52.098  44.418  0.00  0.00    -0.001 C 
ATOM      9  C   UNL     1      87.388  50.858  44.954  0.00  0.00    -0.020 C 
ATOM     10  C   UNL     1      88.356  50.319  43.949  0.00  0.00    +0.002 A 
ATOM     11  C   UNL     1      88.061  50.415  42.590  0.00  0.00    +0.167 A 
ATOM     12  O   UNL     1      86.893  51.061  42.167  0.00  0.00    -0.473 OA
ATOM     13  C   UNL     1      88.920  49.845  41.637  0.00  0.00    +0.169 A 
ATOM     14  C   UNL     1      90.069  49.128  42.048  0.00  0.00    +0.042 A 
ATOM     15  C   UNL     1      90.352  49.014  43.433  0.00  0.00    +0.127 A 
ATOM     16  C   UNL     1      89.485  49.611  44.368  0.00  0.00    -0.013 A 
ATOM     17  C   UNL     1      84.358  50.188  43.839  0.00  0.00    -0.011 C 
ATOM     18  C   UNL     1      82.958  49.666  43.699  0.00  0.00    +0.002 A 
ATOM     19  C   UNL     1      81.922  50.540  43.353  0.00  0.00    +0.170 A 
ATOM     20  O   UNL     1      82.220  51.865  42.999  0.00  0.00    -0.453 OA
ATOM     21  C   UNL     1      80.591  50.074  43.308  0.00  0.00    +0.169 A 
ATOM     22  C   UNL     1      80.308  48.705  43.556  0.00  0.00    +0.042 A 
ATOM     23  C   UNL     1      81.368  47.832  43.904  0.00  0.00    +0.127 A 
ATOM     24  C   UNL     1      82.680  48.330  43.988  0.00  0.00    -0.013 A 
ENDROOT
BRANCH   2  25
ATOM     25  C   UNL     1      82.460  54.174  41.374  0.00  0.00    -0.016 C 
ATOM     26  C   UNL     1      81.295  53.179  41.228  0.00  0.00    -0.059 C 
ATOM     27  C   UNL     1      82.025  55.462  42.083  0.00  0.00    -0.059 C 
ENDBRANCH   2  25
BRANCH  14  28
ATOM     28  C   UNL     1      90.999  48.517  40.997  0.00  0.00    -0.014 C 
ATOM     29  C   UNL     1      90.533  47.120  40.567  0.00  0.00    -0.058 C 
ATOM     30  C   UNL     1      91.199  49.443  39.791  0.00  0.00    -0.058 C 
ENDBRANCH  14  28
BRANCH  22  31
ATOM     31  C   UNL     1      78.876  48.165  43.496  0.00  0.00    -0.014 C 
ATOM     32  C   UNL     1      78.106  48.422  44.798  0.00  0.00    -0.058 C 
ATOM     33  C   UNL     1      78.835  46.685  43.096  0.00  0.00    -0.058 C 
ENDBRANCH  22  31
BRANCH   1  35
ATOM     34  C   UNL     1      84.856  54.717  39.261  0.00  0.00    +0.079 C 
ATOM     35  O   UNL     1      85.081  54.905  40.654  0.00  0.00    -0.491 OA
ENDBRANCH   1  35
BRANCH  13  36
ATOM     36  O   UNL     1      88.623  49.973  40.273  0.00  0.00    -0.491 OA
ATOM     37  C   UNL     1      88.636  51.231  39.607  0.00  0.00    +0.079 C 
ENDBRANCH  13  36
BRANCH  15  38
ATOM     38  O   UNL     1      91.493  48.310  43.850  0.00  0.00    -0.495 OA
ATOM     39  C   UNL     1      91.635  46.893  43.822  0.00  0.00    +0.079 C 
ENDBRANCH  15  38
BRANCH  21  40
ATOM     40  O   UNL     1      79.536  50.949  43.009  0.00  0.00    -0.491 OA
ATOM     41  C   UNL     1      78.430  51.171  43.878  0.00  0.00    +0.079 C 
ENDBRANCH  21  40
BRANCH  23  42
ATOM     42  O   UNL     1      81.092  46.479  44.168  0.00  0.00    -0.495 OA
ATOM     43  C   UNL     1      82.018  45.409  44.000  0.00  0.00    +0.079 C 
ENDBRANCH  23  42
BRANCH   3  44
ATOM     44  O   UNL     1      83.710  53.059  44.407  0.00  0.00    -0.339 OA
ATOM     45  C   UNL     1      84.079  54.420  44.354  0.00  0.00    +0.041 C 
ENDBRANCH   3  44
TORSDOF 9
ENDMDL
MODEL 4
REMARK VINA RESULT:    -1.487      2.479      9.013
REMARK INTER + INTRA:           2.020
REMARK INTER:                  -1.840
REMARK INTRA:                   3.859
REMARK UNBOUND:                 4.289
REMARK  Name = 
REMARK  21 active torsions:
REMARK  status: ('A' for Active; 'I' for Inactive)
REMARK    1  A    between atoms: C_1  and  O_2
REMARK    2  A    between atoms: O_2  and  C_3
REMARK    3  A    between atoms: C_4  and  C_5
REMARK    4  A    between atoms: C_5  and  C_6
REMARK    5  A    between atoms: C_5  and  C_7
REMARK    6  A    between atoms: C_8  and  O_44
REMARK    7  A    between atoms: C_18  and  O_19
REMARK    8  A    between atoms: O_19  and  C_20
REMARK    9  A    between atoms: C_21  and  C_26
REMARK   10  A    between atoms: C_22  and  O_24
REMARK   11  A    between atoms: O_24  and  C_25
REMARK   12  A    between atoms: C_26  and  C_27
REMARK   13  A    between atoms: C_26  and  C_28
REMARK   14  A    between atoms: C_33  and  O_34
REMARK   15  A    between atoms: O_34  and  C_35
REMARK   16  A    between atoms: C_36  and  C_41
REMARK   17  A    between atoms: C_37  and  O_39
REMARK   18  A    between atoms: O_39  and  C_40
REMARK   19  A    between atoms: C_41  and  C_42
REMARK   20  A    between atoms: C_41  and  C_43
REMARK   21  A    between atoms: O_44  and  C_45
REMARK                            x       y       z     vdW  Elec       q    Type
REMARK                         _______ _______ _______ _____ _____    ______ ____
ROOT
ATOM      1  C   UNL     1      82.468  49.013  43.216  0.00  0.00    +0.172 C 
ATOM      2  C   UNL     1      83.392  48.034  43.042  0.00  0.00    +0.049 C 
ATOM      3  C   UNL     1      84.783  48.183  43.675  0.00  0.00    +0.246 C 
ATOM      4  C   UNL     1      85.222  49.671  43.557  0.00  0.00    +0.080 C 
ATOM      5  C   UNL     1      84.234  50.677  44.249  0.00  0.00    +0.185 C 
ATOM      6  C   UNL     1      82.804  50.233  44.004  0.00  0.00    +0.241 C 
ATOM      7  O   UNL     1      81.875  50.960  44.445  0.00  0.00    -0.284 OA
ATOM      8  C   UNL     1      84.443  50.834  45.802  0.00  0.00    -0.001 C 
ATOM      9  C   UNL     1      85.425  51.943  46.203  0.00  0.00    -0.020 C 
ATOM     10  C   UNL     1      85.134  53.218  45.478  0.00  0.00    +0.002 A 
ATOM     11  C   UNL     1      84.639  53.170  44.175  0.00  0.00    +0.167 A 
ATOM     12  O   UNL     1      84.364  51.937  43.572  0.00  0.00    -0.473 OA
ATOM     13  C   UNL     1      84.434  54.355  43.451  0.00  0.00    +0.169 A 
ATOM     14  C   UNL     1      84.771  55.607  44.019  0.00  0.00    +0.042 A 
ATOM     15  C   UNL     1      85.296  55.648  45.336  0.00  0.00    +0.127 A 
ATOM     16  C   UNL     1      85.474  54.447  46.048  0.00  0.00    -0.013 A 
ATOM     17  C   UNL     1      86.687  49.839  44.000  0.00  0.00    -0.011 C 
ATOM     18  C   UNL     1      87.594  48.896  43.264  0.00  0.00    +0.002 A 
ATOM     19  C   UNL     1      87.107  47.656  42.835  0.00  0.00    +0.170 A 
ATOM     20  O   UNL     1      85.740  47.364  42.966  0.00  0.00    -0.453 OA
ATOM     21  C   UNL     1      87.978  46.729  42.224  0.00  0.00    +0.169 A 
ATOM     22  C   UNL     1      89.335  47.076  41.991  0.00  0.00    +0.042 A 
ATOM     23  C   UNL     1      89.812  48.335  42.430  0.00  0.00    +0.127 A 
ATOM     24  C   UNL     1      88.937  49.223  43.078  0.00  0.00    -0.013 A 
ENDROOT
BRANCH   2  25
ATOM     25  C   UNL     1      83.075  46.799  42.189  0.00  0.00    -0.016 C 
ATOM     26  C   UNL     1      84.325  45.974  41.834  0.00  0.00    -0.059 C 
ATOM     27  C   UNL     1      81.985  45.935  42.834  0.00  0.00    -0.059 C 
ENDBRANCH   2  25
BRANCH  14  28
ATOM     28  C   UNL     1      84.537  56.891  43.219  0.00  0.00    -0.014 C 
ATOM     29  C   UNL     1      85.590  57.960  43.537  0.00  0.00    -0.058 C 
ATOM     30  C   UNL     1      84.435  56.626  41.712  0.00  0.00    -0.058 C 
ENDBRANCH  14  28
BRANCH  22  31
ATOM     31  C   UNL     1      90.299  46.098  41.312  0.00  0.00    -0.014 C 
ATOM     32  C   UNL     1      91.211  45.390  42.323  0.00  0.00    -0.058 C 
ATOM     33  C   UNL     1      91.107  46.770  40.194  0.00  0.00    -0.058 C 
ENDBRANCH  22  31
BRANCH   1  35
ATOM     34  C   UNL     1      79.951  48.827  43.283  0.00  0.00    +0.079 C 
ATOM     35  O   UNL     1      81.206  48.861  42.612  0.00  0.00    -0.491 OA
ENDBRANCH   1  35
BRANCH  13  36
ATOM     36  O   UNL     1      83.910  54.292  42.153  0.00  0.00    -0.491 OA
ATOM     37  C   UNL     1      82.704  53.597  41.851  0.00  0.00    +0.079 C 
ENDBRANCH  13  36
BRANCH  15  38
ATOM     38  O   UNL     1      85.628  56.886  45.910  0.00  0.00    -0.495 OA
ATOM     39  C   UNL     1      84.764  57.665  46.731  0.00  0.00    +0.079 C 
ENDBRANCH  15  38
BRANCH  21  40
ATOM     40  O   UNL     1      87.516  45.465  41.831  0.00  0.00    -0.491 OA
ATOM     41  C   UNL     1      87.503  44.331  42.692  0.00  0.00    +0.079 C 
ENDBRANCH  21  40
BRANCH  23  42
ATOM     42  O   UNL     1      91.160  48.677  42.218  0.00  0.00    -0.495 OA
ATOM     43  C   UNL     1      92.082  49.038  43.242  0.00  0.00    +0.079 C 
ENDBRANCH  23  42
BRANCH   3  44
ATOM     44  O   UNL     1      84.722  47.837  45.055  0.00  0.00    -0.339 OA
ATOM     45  C   UNL     1      84.814  46.447  45.282  0.00  0.00    +0.041 C 
ENDBRANCH   3  44
TORSDOF 9
ENDMDL
