MODEL 1
REMARK VINA RESULT:    -4.316      0.000      0.000
REMARK INTER + INTRA:          -6.794
REMARK INTER:                  -8.081
REMARK INTRA:                   1.287
REMARK UNBOUND:                -0.082
REMARK  Name = 
REMARK  18 active torsions:
REMARK  status: ('A' for Active; 'I' for Inactive)
REMARK    1  A    between atoms: C_1  and  C_2
REMARK    2  A    between atoms: C_2  and  C_35
REMARK    3  A    between atoms: C_3  and  C_4
REMARK    4  A    between atoms: C_4  and  C_5
REMARK    5  A    between atoms: C_6  and  O_7
REMARK    6  A    between atoms: C_9  and  C_13
REMARK    7  A    between atoms: C_11  and  O_12
REMARK    8  A    between atoms: C_14  and  C_15
REMARK    9  A    between atoms: C_17  and  O_18
REMARK   10  A    between atoms: C_24  and  C_26
REMARK   11  A    between atoms: C_28  and  O_34
REMARK   12  A    between atoms: C_29  and  O_33
REMARK   13  A    between atoms: C_30  and  C_31
REMARK   14  A    between atoms: C_30  and  C_32
REMARK   15  A    between atoms: C_35  and  C_36
REMARK   16  A    between atoms: C_36  and  C_37
REMARK   17  A    between atoms: C_38  and  C_39
REMARK   18  A    between atoms: C_38  and  C_40
REMARK                            x       y       z     vdW  Elec       q    Type
REMARK                         _______ _______ _______ _____ _____    ______ ____
ROOT
ATOM      1  C   UNL     1      84.024  53.937  47.843  0.00  0.00    -0.021 A 
ATOM      2  C   UNL     1      84.200  55.321  47.695  0.00  0.00    -0.009 A 
ATOM      3  C   UNL     1      84.539  55.869  46.451  0.00  0.00    +0.159 A 
ATOM      4  C   UNL     1      84.692  55.035  45.339  0.00  0.00    +0.166 A 
ATOM      5  C   UNL     1      84.466  53.651  45.458  0.00  0.00    -0.001 A 
ATOM      6  C   UNL     1      84.146  53.106  46.711  0.00  0.00    -0.048 A 
ATOM      7  C   UNL     1      84.605  52.746  44.259  0.00  0.00    -0.017 C 
ATOM      8  C   UNL     1      84.530  53.540  42.927  0.00  0.00    +0.010 C 
ATOM      9  C   UNL     1      85.452  54.805  42.976  0.00  0.00    +0.114 C 
ATOM     10  O   UNL     1      85.053  55.593  44.105  0.00  0.00    -0.482 OA
ATOM     11  C   UNL     1      86.949  54.468  43.181  0.00  0.00    -0.025 C 
ATOM     12  C   UNL     1      85.276  55.694  41.705  0.00  0.00    +0.016 C 
ATOM     13  C   UNL     1      84.514  55.023  40.541  0.00  0.00    +0.085 C 
ATOM     14  C   UNL     1      84.913  53.541  40.340  0.00  0.00    +0.087 C 
ATOM     15  C   UNL     1      84.626  52.654  41.616  0.00  0.00    +0.000 C 
ATOM     16  C   UNL     1      83.254  51.954  41.406  0.00  0.00    -0.057 C 
ATOM     17  C   UNL     1      85.676  51.516  41.740  0.00  0.00    -0.057 C 
ENDROOT
BRANCH   1  19
ATOM     18  C   UNL     1      83.038  52.243  49.379  0.00  0.00    -0.054 C 
ATOM     19  C   UNL     1      83.683  53.405  49.185  0.00  0.00    -0.054 C 
BRANCH  18  23
ATOM     20  C   UNL     1      82.314  50.601  53.303  0.00  0.00    +0.039 A 
ATOM     21  C   UNL     1      81.223  51.036  52.509  0.00  0.00    +0.124 A 
ATOM     22  C   UNL     1      81.452  51.564  51.233  0.00  0.00    -0.013 A 
ATOM     23  C   UNL     1      82.755  51.678  50.721  0.00  0.00    -0.018 A 
ATOM     24  C   UNL     1      83.826  51.212  51.493  0.00  0.00    -0.013 A 
ATOM     25  C   UNL     1      83.618  50.679  52.770  0.00  0.00    +0.124 A 
BRANCH  21  26
ATOM     26  O   UNL     1      79.897  50.949  52.943  0.00  0.00    -0.506 OA
ATOM     27  H   UNL     1      79.532  50.116  53.170  0.00  0.00    +0.000 HD
ENDBRANCH  21  26
BRANCH  25  28
ATOM     28  O   UNL     1      84.710  50.226  53.509  0.00  0.00    -0.506 OA
ATOM     29  H   UNL     1      85.033  49.355  53.382  0.00  0.00    +0.000 HD
ENDBRANCH  25  28
BRANCH  20  30
ATOM     30  C   UNL     1      82.102  50.011  54.680  0.00  0.00    -0.002 C 
BRANCH  30  33
ATOM     31  C   UNL     1      83.283  51.413  57.091  0.00  0.00    -0.044 C 
ATOM     32  C   UNL     1      83.977  50.280  56.376  0.00  0.00    -0.076 C 
ATOM     33  C   UNL     1      83.431  49.659  55.305  0.00  0.00    -0.080 C 
BRANCH  32  34
ATOM     34  C   UNL     1      85.323  49.807  56.889  0.00  0.00    -0.029 C 
BRANCH  34  35
ATOM     35  C   UNL     1      86.242  49.360  55.743  0.00  0.00    -0.031 C 
BRANCH  35  36
ATOM     36  C   UNL     1      86.678  47.924  55.908  0.00  0.00    -0.085 C 
ATOM     37  C   UNL     1      86.028  46.861  55.388  0.00  0.00    -0.080 C 
ATOM     38  C   UNL     1      86.622  45.490  55.582  0.00  0.00    -0.044 C 
ATOM     39  C   UNL     1      84.724  47.006  54.639  0.00  0.00    -0.044 C 
ENDBRANCH  35  36
ENDBRANCH  34  35
ENDBRANCH  32  34
ENDBRANCH  30  33
ENDBRANCH  20  30
ENDBRANCH  18  23
ENDBRANCH   1  19
BRANCH   3  40
ATOM     40  O   UNL     1      84.730  57.243  46.314  0.00  0.00    -0.503 OA
ATOM     41  H   UNL     1      84.649  57.805  47.060  0.00  0.00    +0.000 HD
ENDBRANCH   3  40
BRANCH  14  42
ATOM     42  O   UNL     1      86.230  53.393  39.850  0.00  0.00    -0.389 OA
ATOM     43  H   UNL     1      86.221  52.823  39.066  0.00  0.00    +0.000 HD
ENDBRANCH  14  42
BRANCH  13  44
ATOM     44  O   UNL     1      84.744  55.736  39.352  0.00  0.00    -0.389 OA
ATOM     45  H   UNL     1      85.481  56.353  39.483  0.00  0.00    +0.000 HD
ENDBRANCH  13  44
TORSDOF 12
ENDMDL
MODEL 2
REMARK VINA RESULT:    -2.086      6.605      9.805
REMARK INTER + INTRA:          -3.326
REMARK INTER:                  -4.293
REMARK INTRA:                   0.967
REMARK UNBOUND:                -0.082
REMARK  Name = 
REMARK  18 active torsions:
REMARK  status: ('A' for Active; 'I' for Inactive)
REMARK    1  A    between atoms: C_1  and  C_2
REMARK    2  A    between atoms: C_2  and  C_35
REMARK    3  A    between atoms: C_3  and  C_4
REMARK    4  A    between atoms: C_4  and  C_5
REMARK    5  A    between atoms: C_6  and  O_7
REMARK    6  A    between atoms: C_9  and  C_13
REMARK    7  A    between atoms: C_11  and  O_12
REMARK    8  A    between atoms: C_14  and  C_15
REMARK    9  A    between atoms: C_17  and  O_18
REMARK   10  A    between atoms: C_24  and  C_26
REMARK   11  A    between atoms: C_28  and  O_34
REMARK   12  A    between atoms: C_29  and  O_33
REMARK   13  A    between atoms: C_30  and  C_31
REMARK   14  A    between atoms: C_30  and  C_32
REMARK   15  A    between atoms: C_35  and  C_36
REMARK   16  A    between atoms: C_36  and  C_37
REMARK   17  A    between atoms: C_38  and  C_39
REMARK   18  A    between atoms: C_38  and  C_40
REMARK                            x       y       z     vdW  Elec       q    Type
REMARK                         _______ _______ _______ _____ _____    ______ ____
ROOT
ATOM      1  C   UNL     1      85.582  51.530  42.661  0.00  0.00    -0.021 A 
ATOM      2  C   UNL     1      85.696  52.327  41.512  0.00  0.00    -0.009 A 
ATOM      3  C   UNL     1      85.507  53.714  41.584  0.00  0.00    +0.159 A 
ATOM      4  C   UNL     1      85.215  54.317  42.811  0.00  0.00    +0.166 A 
ATOM      5  C   UNL     1      85.151  53.538  43.982  0.00  0.00    -0.001 A 
ATOM      6  C   UNL     1      85.322  52.148  43.900  0.00  0.00    -0.048 A 
ATOM      7  C   UNL     1      84.861  54.183  45.316  0.00  0.00    -0.017 C 
ATOM      8  C   UNL     1      85.129  55.711  45.286  0.00  0.00    +0.010 C 
ATOM      9  C   UNL     1      84.484  56.370  44.021  0.00  0.00    +0.114 C 
ATOM     10  O   UNL     1      85.007  55.701  42.866  0.00  0.00    -0.482 OA
ATOM     11  C   UNL     1      82.945  56.212  43.962  0.00  0.00    -0.025 C 
ATOM     12  C   UNL     1      84.869  57.877  43.897  0.00  0.00    +0.016 C 
ATOM     13  C   UNL     1      85.507  58.492  45.162  0.00  0.00    +0.085 C 
ATOM     14  C   UNL     1      84.820  58.024  46.467  0.00  0.00    +0.087 C 
ATOM     15  C   UNL     1      84.888  56.458  46.664  0.00  0.00    +0.000 C 
ATOM     16  C   UNL     1      86.093  56.150  47.597  0.00  0.00    -0.057 C 
ATOM     17  C   UNL     1      83.625  55.943  47.408  0.00  0.00    -0.057 C 
ENDROOT
BRANCH   1  19
ATOM     18  C   UNL     1      84.947  49.158  43.074  0.00  0.00    -0.054 C 
ATOM     19  C   UNL     1      85.774  50.065  42.529  0.00  0.00    -0.054 C 
BRANCH  18  23
ATOM     20  C   UNL     1      85.482  44.916  42.491  0.00  0.00    +0.039 A 
ATOM     21  C   UNL     1      84.379  45.390  43.246  0.00  0.00    +0.124 A 
ATOM     22  C   UNL     1      84.199  46.765  43.433  0.00  0.00    -0.013 A 
ATOM     23  C   UNL     1      85.099  47.694  42.887  0.00  0.00    -0.018 A 
ATOM     24  C   UNL     1      86.165  47.224  42.111  0.00  0.00    -0.013 A 
ATOM     25  C   UNL     1      86.362  45.853  41.910  0.00  0.00    +0.124 A 
BRANCH  21  26
ATOM     26  O   UNL     1      83.435  44.531  43.815  0.00  0.00    -0.506 OA
ATOM     27  H   UNL     1      83.403  44.421  44.745  0.00  0.00    +0.000 HD
ENDBRANCH  21  26
BRANCH  25  28
ATOM     28  O   UNL     1      87.436  45.422  41.131  0.00  0.00    -0.506 OA
ATOM     29  H   UNL     1      88.034  44.784  41.469  0.00  0.00    +0.000 HD
ENDBRANCH  25  28
BRANCH  20  30
ATOM     30  C   UNL     1      85.700  43.437  42.256  0.00  0.00    -0.002 C 
BRANCH  30  33
ATOM     31  C   UNL     1      87.413  44.419  44.553  0.00  0.00    -0.044 C 
ATOM     32  C   UNL     1      87.940  43.526  43.456  0.00  0.00    -0.076 C 
ATOM     33  C   UNL     1      87.159  43.090  42.442  0.00  0.00    -0.080 C 
BRANCH  32  34
ATOM     34  C   UNL     1      89.389  43.086  43.505  0.00  0.00    -0.029 C 
BRANCH  34  35
ATOM     35  C   UNL     1      90.346  44.285  43.550  0.00  0.00    -0.031 C 
BRANCH  35  36
ATOM     36  C   UNL     1      90.023  45.294  42.475  0.00  0.00    -0.085 C 
ATOM     37  C   UNL     1      90.441  46.579  42.478  0.00  0.00    -0.080 C 
ATOM     38  C   UNL     1      90.093  47.451  41.299  0.00  0.00    -0.044 C 
ATOM     39  C   UNL     1      91.224  47.163  43.630  0.00  0.00    -0.044 C 
ENDBRANCH  35  36
ENDBRANCH  34  35
ENDBRANCH  32  34
ENDBRANCH  30  33
ENDBRANCH  20  30
ENDBRANCH  18  23
ENDBRANCH   1  19
BRANCH   3  40
ATOM     40  O   UNL     1      85.604  54.498  40.436  0.00  0.00    -0.503 OA
ATOM     41  H   UNL     1      84.856  54.616  39.883  0.00  0.00    +0.000 HD
ENDBRANCH   3  40
BRANCH  14  42
ATOM     42  O   UNL     1      83.513  58.542  46.611  0.00  0.00    -0.389 OA
ATOM     43  H   UNL     1      83.500  59.471  46.337  0.00  0.00    +0.000 HD
ENDBRANCH  14  42
BRANCH  13  44
ATOM     44  O   UNL     1      85.457  59.895  45.083  0.00  0.00    -0.389 OA
ATOM     45  H   UNL     1      85.535  60.271  45.974  0.00  0.00    +0.000 HD
ENDBRANCH  13  44
TORSDOF 12
ENDMDL
MODEL 3
REMARK VINA RESULT:    -2.070      6.464     10.221
REMARK INTER + INTRA:          -3.301
REMARK INTER:                  -3.031
REMARK INTRA:                  -0.269
REMARK UNBOUND:                -0.082
REMARK  Name = 
REMARK  18 active torsions:
REMARK  status: ('A' for Active; 'I' for Inactive)
REMARK    1  A    between atoms: C_1  and  C_2
REMARK    2  A    between atoms: C_2  and  C_35
REMARK    3  A    between atoms: C_3  and  C_4
REMARK    4  A    between atoms: C_4  and  C_5
REMARK    5  A    between atoms: C_6  and  O_7
REMARK    6  A    between atoms: C_9  and  C_13
REMARK    7  A    between atoms: C_11  and  O_12
REMARK    8  A    between atoms: C_14  and  C_15
REMARK    9  A    between atoms: C_17  and  O_18
REMARK   10  A    between atoms: C_24  and  C_26
REMARK   11  A    between atoms: C_28  and  O_34
REMARK   12  A    between atoms: C_29  and  O_33
REMARK   13  A    between atoms: C_30  and  C_31
REMARK   14  A    between atoms: C_30  and  C_32
REMARK   15  A    between atoms: C_35  and  C_36
REMARK   16  A    between atoms: C_36  and  C_37
REMARK   17  A    between atoms: C_38  and  C_39
REMARK   18  A    between atoms: C_38  and  C_40
REMARK                            x       y       z     vdW  Elec       q    Type
REMARK                         _______ _______ _______ _____ _____    ______ ____
ROOT
ATOM      1  C   UNL     1      86.622  52.413  42.514  0.00  0.00    -0.021 A 
ATOM      2  C   UNL     1      86.229  53.185  41.409  0.00  0.00    -0.009 A 
ATOM      3  C   UNL     1      85.585  54.416  41.591  0.00  0.00    +0.159 A 
ATOM      4  C   UNL     1      85.341  54.892  42.883  0.00  0.00    +0.166 A 
ATOM      5  C   UNL     1      85.777  54.157  44.001  0.00  0.00    -0.001 A 
ATOM      6  C   UNL     1      86.404  52.915  43.812  0.00  0.00    -0.048 A 
ATOM      7  C   UNL     1      85.540  54.674  45.398  0.00  0.00    -0.017 C 
ATOM      8  C   UNL     1      85.247  56.198  45.406  0.00  0.00    +0.010 C 
ATOM      9  C   UNL     1      84.184  56.571  44.318  0.00  0.00    +0.114 C 
ATOM     10  O   UNL     1      84.677  56.115  43.051  0.00  0.00    -0.482 OA
ATOM     11  C   UNL     1      82.816  55.879  44.532  0.00  0.00    -0.025 C 
ATOM     12  C   UNL     1      83.988  58.115  44.210  0.00  0.00    +0.016 C 
ATOM     13  C   UNL     1      84.600  58.932  45.369  0.00  0.00    +0.085 C 
ATOM     14  C   UNL     1      84.381  58.268  46.749  0.00  0.00    +0.087 C 
ATOM     15  C   UNL     1      85.028  56.830  46.843  0.00  0.00    +0.000 C 
ATOM     16  C   UNL     1      86.419  56.979  47.522  0.00  0.00    -0.057 C 
ATOM     17  C   UNL     1      84.190  55.911  47.776  0.00  0.00    -0.057 C 
ENDROOT
BRANCH   1  19
ATOM     18  C   UNL     1      88.430  50.737  42.861  0.00  0.00    -0.054 C 
ATOM     19  C   UNL     1      87.284  51.109  42.268  0.00  0.00    -0.054 C 
BRANCH  18  23
ATOM     20  C   UNL     1      90.191  46.850  42.224  0.00  0.00    +0.039 A 
ATOM     21  C   UNL     1      90.838  47.786  43.070  0.00  0.00    +0.124 A 
ATOM     22  C   UNL     1      90.267  49.046  43.283  0.00  0.00    -0.013 A 
ATOM     23  C   UNL     1      89.058  49.407  42.667  0.00  0.00    -0.018 A 
ATOM     24  C   UNL     1      88.403  48.466  41.864  0.00  0.00    -0.013 A 
ATOM     25  C   UNL     1      88.956  47.200  41.639  0.00  0.00    +0.124 A 
BRANCH  21  26
ATOM     26  O   UNL     1      92.039  47.501  43.725  0.00  0.00    -0.506 OA
ATOM     27  H   UNL     1      92.854  47.609  43.277  0.00  0.00    +0.000 HD
ENDBRANCH  21  26
BRANCH  25  28
ATOM     28  O   UNL     1      88.274  46.289  40.832  0.00  0.00    -0.506 OA
ATOM     29  H   UNL     1      87.615  45.736  41.203  0.00  0.00    +0.000 HD
ENDBRANCH  25  28
BRANCH  20  30
ATOM     30  C   UNL     1      90.771  45.473  41.983  0.00  0.00    -0.002 C 
BRANCH  30  33
ATOM     31  C   UNL     1      89.145  44.944  44.483  0.00  0.00    -0.044 C 
ATOM     32  C   UNL     1      88.956  44.171  43.201  0.00  0.00    -0.076 C 
ATOM     33  C   UNL     1      89.686  44.426  42.091  0.00  0.00    -0.080 C 
BRANCH  32  34
ATOM     34  C   UNL     1      87.899  43.087  43.149  0.00  0.00    -0.029 C 
BRANCH  34  35
ATOM     35  C   UNL     1      86.579  43.551  43.780  0.00  0.00    -0.031 C 
BRANCH  35  36
ATOM     36  C   UNL     1      85.772  44.397  42.824  0.00  0.00    -0.085 C 
ATOM     37  C   UNL     1      84.916  45.372  43.199  0.00  0.00    -0.080 C 
ATOM     38  C   UNL     1      84.230  46.178  42.126  0.00  0.00    -0.044 C 
ATOM     39  C   UNL     1      84.617  45.661  44.651  0.00  0.00    -0.044 C 
ENDBRANCH  35  36
ENDBRANCH  34  35
ENDBRANCH  32  34
ENDBRANCH  30  33
ENDBRANCH  20  30
ENDBRANCH  18  23
ENDBRANCH   1  19
BRANCH   3  40
ATOM     40  O   UNL     1      85.182  55.170  40.490  0.00  0.00    -0.503 OA
ATOM     41  H   UNL     1      84.321  55.061  40.137  0.00  0.00    +0.000 HD
ENDBRANCH   3  40
BRANCH  14  42
ATOM     42  O   UNL     1      83.029  58.293  47.159  0.00  0.00    -0.389 OA
ATOM     43  H   UNL     1      82.860  59.098  47.671  0.00  0.00    +0.000 HD
ENDBRANCH  14  42
BRANCH  13  44
ATOM     44  O   UNL     1      84.050  60.225  45.378  0.00  0.00    -0.389 OA
ATOM     45  H   UNL     1      84.168  60.633  44.506  0.00  0.00    +0.000 HD
ENDBRANCH  13  44
TORSDOF 12
ENDMDL
