MODEL 1
REMARK VINA RESULT:    -6.384      0.000      0.000
REMARK INTER + INTRA:         -10.425
REMARK INTER:                  -9.103
REMARK INTRA:                  -1.321
REMARK UNBOUND:                -0.308
REMARK  Name = 
REMARK  19 active torsions:
REMARK  status: ('A' for Active; 'I' for Inactive)
REMARK    1  A    between atoms: C_1  and  O_2
REMARK    2  A    between atoms: O_2  and  C_3
REMARK    3  A    between atoms: C_5  and  C_6
REMARK    4  A    between atoms: C_7  and  C_8
REMARK    5  A    between atoms: C_10  and  O_11
REMARK    6  A    between atoms: C_12  and  C_16
REMARK    7  A    between atoms: C_13  and  O_15
REMARK    8  A    between atoms: C_16  and  C_17
REMARK    9  A    between atoms: C_18  and  C_19
REMARK   10  A    between atoms: C_18  and  C_25
REMARK   11  A    between atoms: C_19  and  C_20
REMARK   12  A    between atoms: C_20  and  C_21
REMARK   13  A    between atoms: C_22  and  C_23
REMARK   14  A    between atoms: C_22  and  C_24
REMARK   15  A    between atoms: C_30  and  C_31
REMARK   16  A    between atoms: C_33  and  O_34
REMARK   17  A    between atoms: C_35  and  O_41
REMARK   18  A    between atoms: C_36  and  C_39
REMARK   19  A    between atoms: C_36  and  C_40
REMARK                            x       y       z     vdW  Elec       q    Type
REMARK                         _______ _______ _______ _____ _____    ______ ____
ROOT
ATOM      1  C   UNL     1      83.239  46.665  44.252  0.00  0.00    +0.162 A 
ATOM      2  C   UNL     1      83.062  48.057  44.135  0.00  0.00    -0.009 A 
ATOM      3  C   UNL     1      84.146  48.894  43.807  0.00  0.00    -0.021 A 
ATOM      4  C   UNL     1      85.404  48.319  43.573  0.00  0.00    -0.048 A 
ATOM      5  C   UNL     1      85.596  46.937  43.702  0.00  0.00    -0.001 A 
ATOM      6  C   UNL     1      84.504  46.110  44.027  0.00  0.00    +0.166 A 
ATOM      7  O   UNL     1      84.675  44.723  44.141  0.00  0.00    -0.482 OA
ATOM      8  C   UNL     1      85.850  44.048  43.677  0.00  0.00    +0.114 C 
ATOM      9  C   UNL     1      85.656  43.847  42.154  0.00  0.00    -0.025 C 
ATOM     10  C   UNL     1      85.905  42.685  44.405  0.00  0.00    +0.016 C 
ATOM     11  C   UNL     1      87.249  41.943  44.271  0.00  0.00    +0.085 C 
ATOM     12  C   UNL     1      88.439  42.845  44.686  0.00  0.00    +0.087 C 
ATOM     13  C   UNL     1      88.502  44.240  43.971  0.00  0.00    +0.000 C 
ATOM     14  C   UNL     1      87.083  44.924  44.079  0.00  0.00    +0.010 C 
ATOM     15  C   UNL     1      86.966  46.344  43.463  0.00  0.00    -0.017 C 
ATOM     16  C   UNL     1      89.536  45.105  44.743  0.00  0.00    -0.057 C 
ATOM     17  C   UNL     1      89.028  44.122  42.515  0.00  0.00    -0.057 C 
ENDROOT
BRANCH   1  19
ATOM     18  C   UNL     1      80.879  46.228  44.964  0.00  0.00    +0.079 C 
ATOM     19  O   UNL     1      82.182  45.801  44.582  0.00  0.00    -0.491 OA
ENDBRANCH   1  19
BRANCH   3  20
ATOM     20  C   UNL     1      84.006  50.365  43.660  0.00  0.00    -0.054 C 
ATOM     21  C   UNL     1      84.986  51.164  43.210  0.00  0.00    -0.054 C 
BRANCH  21  22
ATOM     22  C   UNL     1      84.841  52.632  43.065  0.00  0.00    -0.018 A 
ATOM     23  C   UNL     1      85.949  53.447  43.336  0.00  0.00    -0.013 A 
ATOM     24  C   UNL     1      85.865  54.840  43.212  0.00  0.00    +0.124 A 
ATOM     25  C   UNL     1      84.658  55.441  42.809  0.00  0.00    +0.039 A 
ATOM     26  C   UNL     1      83.554  54.625  42.491  0.00  0.00    +0.124 A 
ATOM     27  C   UNL     1      83.647  53.233  42.625  0.00  0.00    -0.013 A 
BRANCH  24  28
ATOM     28  O   UNL     1      86.983  55.627  43.491  0.00  0.00    -0.506 OA
ATOM     29  H   UNL     1      87.142  55.922  44.366  0.00  0.00    +0.000 HD
ENDBRANCH  24  28
BRANCH  26  30
ATOM     30  O   UNL     1      82.366  55.197  42.036  0.00  0.00    -0.506 OA
ATOM     31  H   UNL     1      81.553  54.985  42.452  0.00  0.00    +0.000 HD
ENDBRANCH  26  30
BRANCH  25  32
ATOM     32  C   UNL     1      84.572  56.942  42.659  0.00  0.00    -0.002 C 
BRANCH  32  33
ATOM     33  C   UNL     1      84.161  57.567  43.970  0.00  0.00    -0.080 C 
ATOM     34  C   UNL     1      84.958  58.342  44.741  0.00  0.00    -0.076 C 
ATOM     35  C   UNL     1      86.387  58.653  44.362  0.00  0.00    -0.044 C 
BRANCH  34  36
ATOM     36  C   UNL     1      84.424  58.878  46.050  0.00  0.00    -0.029 C 
BRANCH  36  37
ATOM     37  C   UNL     1      83.944  57.728  46.943  0.00  0.00    -0.031 C 
BRANCH  37  38
ATOM     38  C   UNL     1      84.977  56.631  47.007  0.00  0.00    -0.085 C 
ATOM     39  C   UNL     1      84.809  55.463  47.666  0.00  0.00    -0.080 C 
ATOM     40  C   UNL     1      83.556  55.160  48.456  0.00  0.00    -0.044 C 
ATOM     41  C   UNL     1      85.921  54.446  47.621  0.00  0.00    -0.044 C 
ENDBRANCH  37  38
ENDBRANCH  36  37
ENDBRANCH  34  36
ENDBRANCH  32  33
ENDBRANCH  25  32
ENDBRANCH  21  22
ENDBRANCH   3  20
BRANCH  11  42
ATOM     42  O   UNL     1      87.421  41.430  42.976  0.00  0.00    -0.389 OA
ATOM     43  H   UNL     1      86.589  41.036  42.672  0.00  0.00    +0.000 HD
ENDBRANCH  11  42
BRANCH  12  44
ATOM     44  O   UNL     1      89.660  42.147  44.601  0.00  0.00    -0.389 OA
ATOM     45  H   UNL     1      89.997  42.193  43.693  0.00  0.00    +0.000 HD
ENDBRANCH  12  44
TORSDOF 12
ENDMDL
MODEL 2
REMARK VINA RESULT:    -6.235      6.838     11.665
REMARK INTER + INTRA:         -10.188
REMARK INTER:                  -9.183
REMARK INTRA:                  -1.005
REMARK UNBOUND:                -0.308
REMARK  Name = 
REMARK  19 active torsions:
REMARK  status: ('A' for Active; 'I' for Inactive)
REMARK    1  A    between atoms: C_1  and  O_2
REMARK    2  A    between atoms: O_2  and  C_3
REMARK    3  A    between atoms: C_5  and  C_6
REMARK    4  A    between atoms: C_7  and  C_8
REMARK    5  A    between atoms: C_10  and  O_11
REMARK    6  A    between atoms: C_12  and  C_16
REMARK    7  A    between atoms: C_13  and  O_15
REMARK    8  A    between atoms: C_16  and  C_17
REMARK    9  A    between atoms: C_18  and  C_19
REMARK   10  A    between atoms: C_18  and  C_25
REMARK   11  A    between atoms: C_19  and  C_20
REMARK   12  A    between atoms: C_20  and  C_21
REMARK   13  A    between atoms: C_22  and  C_23
REMARK   14  A    between atoms: C_22  and  C_24
REMARK   15  A    between atoms: C_30  and  C_31
REMARK   16  A    between atoms: C_33  and  O_34
REMARK   17  A    between atoms: C_35  and  O_41
REMARK   18  A    between atoms: C_36  and  C_39
REMARK   19  A    between atoms: C_36  and  C_40
REMARK                            x       y       z     vdW  Elec       q    Type
REMARK                         _______ _______ _______ _____ _____    ______ ____
ROOT
ATOM      1  C   UNL     1      84.743  55.781  47.110  0.00  0.00    +0.162 A 
ATOM      2  C   UNL     1      84.449  55.272  48.390  0.00  0.00    -0.009 A 
ATOM      3  C   UNL     1      84.063  53.928  48.558  0.00  0.00    -0.021 A 
ATOM      4  C   UNL     1      83.997  53.093  47.433  0.00  0.00    -0.048 A 
ATOM      5  C   UNL     1      84.270  53.591  46.152  0.00  0.00    -0.001 A 
ATOM      6  C   UNL     1      84.659  54.936  45.997  0.00  0.00    +0.166 A 
ATOM      7  O   UNL     1      84.955  55.445  44.725  0.00  0.00    -0.482 OA
ATOM      8  C   UNL     1      85.154  54.604  43.582  0.00  0.00    +0.114 C 
ATOM      9  C   UNL     1      86.616  54.103  43.665  0.00  0.00    -0.025 C 
ATOM     10  C   UNL     1      84.949  55.489  42.330  0.00  0.00    +0.016 C 
ATOM     11  C   UNL     1      84.820  54.705  41.010  0.00  0.00    +0.085 C 
ATOM     12  C   UNL     1      83.727  53.612  41.103  0.00  0.00    +0.087 C 
ATOM     13  C   UNL     1      83.865  52.630  42.319  0.00  0.00    +0.000 C 
ATOM     14  C   UNL     1      84.063  53.482  43.633  0.00  0.00    +0.010 C 
ATOM     15  C   UNL     1      84.174  52.674  44.954  0.00  0.00    -0.017 C 
ATOM     16  C   UNL     1      82.530  51.842  42.427  0.00  0.00    -0.057 C 
ATOM     17  C   UNL     1      84.980  51.573  42.086  0.00  0.00    -0.057 C 
ENDROOT
BRANCH   1  19
ATOM     18  C   UNL     1      84.240  58.161  46.519  0.00  0.00    +0.079 C 
ATOM     19  O   UNL     1      85.127  57.116  46.905  0.00  0.00    -0.491 OA
ENDBRANCH   1  19
BRANCH   3  20
ATOM     20  C   UNL     1      83.756  53.344  49.888  0.00  0.00    -0.054 C 
ATOM     21  C   UNL     1      83.416  52.059  50.076  0.00  0.00    -0.054 C 
BRANCH  21  22
ATOM     22  C   UNL     1      83.111  51.480  51.406  0.00  0.00    -0.018 A 
ATOM     23  C   UNL     1      81.772  51.410  51.816  0.00  0.00    -0.013 A 
ATOM     24  C   UNL     1      81.430  50.871  53.063  0.00  0.00    +0.124 A 
ATOM     25  C   UNL     1      82.435  50.387  53.923  0.00  0.00    +0.039 A 
ATOM     26  C   UNL     1      83.778  50.413  53.496  0.00  0.00    +0.124 A 
ATOM     27  C   UNL     1      84.110  50.961  52.250  0.00  0.00    -0.013 A 
BRANCH  24  28
ATOM     28  O   UNL     1      80.091  50.815  53.448  0.00  0.00    -0.506 OA
ATOM     29  H   UNL     1      79.513  50.196  53.046  0.00  0.00    +0.000 HD
ENDBRANCH  24  28
BRANCH  26  30
ATOM     30  O   UNL     1      84.783  49.887  54.310  0.00  0.00    -0.506 OA
ATOM     31  H   UNL     1      85.587  49.591  53.929  0.00  0.00    +0.000 HD
ENDBRANCH  26  30
BRANCH  25  32
ATOM     32  C   UNL     1      82.065  49.790  55.260  0.00  0.00    -0.002 C 
BRANCH  32  33
ATOM     33  C   UNL     1      82.270  50.810  56.353  0.00  0.00    -0.080 C 
ATOM     34  C   UNL     1      83.188  50.710  57.343  0.00  0.00    -0.076 C 
ATOM     35  C   UNL     1      84.112  49.523  57.465  0.00  0.00    -0.044 C 
BRANCH  34  36
ATOM     36  C   UNL     1      83.262  51.796  58.393  0.00  0.00    -0.029 C 
BRANCH  36  37
ATOM     37  C   UNL     1      83.043  51.205  59.790  0.00  0.00    -0.031 C 
BRANCH  37  38
ATOM     38  C   UNL     1      81.869  51.860  60.474  0.00  0.00    -0.085 C 
ATOM     39  C   UNL     1      81.962  52.627  61.582  0.00  0.00    -0.080 C 
ATOM     40  C   UNL     1      83.280  52.866  62.284  0.00  0.00    -0.044 C 
ATOM     41  C   UNL     1      80.703  53.240  62.140  0.00  0.00    -0.044 C 
ENDBRANCH  37  38
ENDBRANCH  36  37
ENDBRANCH  34  36
ENDBRANCH  32  33
ENDBRANCH  25  32
ENDBRANCH  21  22
ENDBRANCH   3  20
BRANCH  11  42
ATOM     42  O   UNL     1      86.053  54.166  40.614  0.00  0.00    -0.389 OA
ATOM     43  H   UNL     1      86.620  54.049  41.392  0.00  0.00    +0.000 HD
ENDBRANCH  11  42
BRANCH  12  44
ATOM     44  O   UNL     1      83.584  52.928  39.879  0.00  0.00    -0.389 OA
ATOM     45  H   UNL     1      84.252  53.246  39.251  0.00  0.00    +0.000 HD
ENDBRANCH  12  44
TORSDOF 12
ENDMDL
MODEL 3
REMARK VINA RESULT:    -5.971      7.585     11.666
REMARK INTER + INTRA:          -9.770
REMARK INTER:                  -9.532
REMARK INTRA:                  -0.237
REMARK UNBOUND:                -0.308
REMARK  Name = 
REMARK  19 active torsions:
REMARK  status: ('A' for Active; 'I' for Inactive)
REMARK    1  A    between atoms: C_1  and  O_2
REMARK    2  A    between atoms: O_2  and  C_3
REMARK    3  A    between atoms: C_5  and  C_6
REMARK    4  A    between atoms: C_7  and  C_8
REMARK    5  A    between atoms: C_10  and  O_11
REMARK    6  A    between atoms: C_12  and  C_16
REMARK    7  A    between atoms: C_13  and  O_15
REMARK    8  A    between atoms: C_16  and  C_17
REMARK    9  A    between atoms: C_18  and  C_19
REMARK   10  A    between atoms: C_18  and  C_25
REMARK   11  A    between atoms: C_19  and  C_20
REMARK   12  A    between atoms: C_20  and  C_21
REMARK   13  A    between atoms: C_22  and  C_23
REMARK   14  A    between atoms: C_22  and  C_24
REMARK   15  A    between atoms: C_30  and  C_31
REMARK   16  A    between atoms: C_33  and  O_34
REMARK   17  A    between atoms: C_35  and  O_41
REMARK   18  A    between atoms: C_36  and  C_39
REMARK   19  A    between atoms: C_36  and  C_40
REMARK                            x       y       z     vdW  Elec       q    Type
REMARK                         _______ _______ _______ _____ _____    ______ ____
ROOT
ATOM      1  C   UNL     1      83.449  54.003  48.270  0.00  0.00    +0.162 A 
ATOM      2  C   UNL     1      83.411  53.420  49.552  0.00  0.00    -0.009 A 
ATOM      3  C   UNL     1      84.169  52.269  49.841  0.00  0.00    -0.021 A 
ATOM      4  C   UNL     1      84.983  51.721  48.839  0.00  0.00    -0.048 A 
ATOM      5  C   UNL     1      85.017  52.281  47.556  0.00  0.00    -0.001 A 
ATOM      6  C   UNL     1      84.258  53.435  47.280  0.00  0.00    +0.166 A 
ATOM      7  O   UNL     1      84.296  54.019  46.006  0.00  0.00    -0.482 OA
ATOM      8  C   UNL     1      85.281  53.673  45.025  0.00  0.00    +0.114 C 
ATOM      9  C   UNL     1      86.547  54.490  45.381  0.00  0.00    -0.025 C 
ATOM     10  C   UNL     1      84.720  54.106  43.650  0.00  0.00    +0.016 C 
ATOM     11  C   UNL     1      85.494  53.546  42.441  0.00  0.00    +0.085 C 
ATOM     12  C   UNL     1      85.640  52.006  42.523  0.00  0.00    +0.087 C 
ATOM     13  C   UNL     1      86.242  51.462  43.866  0.00  0.00    +0.000 C 
ATOM     14  C   UNL     1      85.459  52.119  45.069  0.00  0.00    +0.010 C 
ATOM     15  C   UNL     1      85.890  51.660  46.489  0.00  0.00    -0.017 C 
ATOM     16  C   UNL     1      86.002  49.927  43.888  0.00  0.00    -0.057 C 
ATOM     17  C   UNL     1      87.780  51.667  43.936  0.00  0.00    -0.057 C 
ENDROOT
BRANCH   1  19
ATOM     18  C   UNL     1      83.270  56.410  47.605  0.00  0.00    +0.079 C 
ATOM     19  O   UNL     1      82.704  55.148  47.946  0.00  0.00    -0.491 OA
ENDBRANCH   1  19
BRANCH   3  20
ATOM     20  C   UNL     1      84.170  51.628  51.180  0.00  0.00    -0.054 C 
ATOM     21  C   UNL     1      83.076  51.511  51.950  0.00  0.00    -0.054 C 
BRANCH  21  22
ATOM     22  C   UNL     1      83.082  50.870  53.286  0.00  0.00    -0.018 A 
ATOM     23  C   UNL     1      84.298  50.395  53.797  0.00  0.00    -0.013 A 
ATOM     24  C   UNL     1      84.359  49.782  55.055  0.00  0.00    +0.124 A 
ATOM     25  C   UNL     1      83.190  49.639  55.828  0.00  0.00    +0.039 A 
ATOM     26  C   UNL     1      81.974  50.155  55.339  0.00  0.00    +0.124 A 
ATOM     27  C   UNL     1      81.923  50.760  54.076  0.00  0.00    -0.013 A 
BRANCH  24  28
ATOM     28  O   UNL     1      85.581  49.316  55.539  0.00  0.00    -0.506 OA
ATOM     29  H   UNL     1      86.125  49.877  56.056  0.00  0.00    +0.000 HD
ENDBRANCH  24  28
BRANCH  26  30
ATOM     30  O   UNL     1      80.815  50.074  56.113  0.00  0.00    -0.506 OA
ATOM     31  H   UNL     1      80.170  50.752  56.064  0.00  0.00    +0.000 HD
ENDBRANCH  26  30
BRANCH  25  32
ATOM     32  C   UNL     1      83.258  48.994  57.192  0.00  0.00    -0.002 C 
BRANCH  32  33
ATOM     33  C   UNL     1      82.545  49.858  58.204  0.00  0.00    -0.080 C 
ATOM     34  C   UNL     1      83.103  50.345  59.337  0.00  0.00    -0.076 C 
ATOM     35  C   UNL     1      84.533  50.047  59.721  0.00  0.00    -0.044 C 
BRANCH  34  36
ATOM     36  C   UNL     1      82.258  51.173  60.279  0.00  0.00    -0.029 C 
BRANCH  36  37
ATOM     37  C   UNL     1      83.103  52.278  60.924  0.00  0.00    -0.031 C 
BRANCH  37  38
ATOM     38  C   UNL     1      82.830  53.612  60.275  0.00  0.00    -0.085 C 
ATOM     39  C   UNL     1      83.014  54.805  60.879  0.00  0.00    -0.080 C 
ATOM     40  C   UNL     1      83.477  54.916  62.314  0.00  0.00    -0.044 C 
ATOM     41  C   UNL     1      82.724  56.060  60.096  0.00  0.00    -0.044 C 
ENDBRANCH  37  38
ENDBRANCH  36  37
ENDBRANCH  34  36
ENDBRANCH  32  33
ENDBRANCH  25  32
ENDBRANCH  21  22
ENDBRANCH   3  20
BRANCH  11  42
ATOM     42  O   UNL     1      86.741  54.173  42.299  0.00  0.00    -0.389 OA
ATOM     43  H   UNL     1      87.355  53.825  42.964  0.00  0.00    +0.000 HD
ENDBRANCH  11  42
BRANCH  12  44
ATOM     44  O   UNL     1      86.311  51.497  41.393  0.00  0.00    -0.389 OA
ATOM     45  H   UNL     1      86.751  52.223  40.924  0.00  0.00    +0.000 HD
ENDBRANCH  12  44
TORSDOF 12
ENDMDL
MODEL 4
REMARK VINA RESULT:    -5.218      2.246     11.640
REMARK INTER + INTRA:          -8.576
REMARK INTER:                  -7.705
REMARK INTRA:                  -0.871
REMARK UNBOUND:                -0.308
REMARK  Name = 
REMARK  19 active torsions:
REMARK  status: ('A' for Active; 'I' for Inactive)
REMARK    1  A    between atoms: C_1  and  O_2
REMARK    2  A    between atoms: O_2  and  C_3
REMARK    3  A    between atoms: C_5  and  C_6
REMARK    4  A    between atoms: C_7  and  C_8
REMARK    5  A    between atoms: C_10  and  O_11
REMARK    6  A    between atoms: C_12  and  C_16
REMARK    7  A    between atoms: C_13  and  O_15
REMARK    8  A    between atoms: C_16  and  C_17
REMARK    9  A    between atoms: C_18  and  C_19
REMARK   10  A    between atoms: C_18  and  C_25
REMARK   11  A    between atoms: C_19  and  C_20
REMARK   12  A    between atoms: C_20  and  C_21
REMARK   13  A    between atoms: C_22  and  C_23
REMARK   14  A    between atoms: C_22  and  C_24
REMARK   15  A    between atoms: C_30  and  C_31
REMARK   16  A    between atoms: C_33  and  O_34
REMARK   17  A    between atoms: C_35  and  O_41
REMARK   18  A    between atoms: C_36  and  C_39
REMARK   19  A    between atoms: C_36  and  C_40
REMARK                            x       y       z     vdW  Elec       q    Type
REMARK                         _______ _______ _______ _____ _____    ______ ____
ROOT
ATOM      1  C   UNL     1      85.883  53.832  41.403  0.00  0.00    +0.162 A 
ATOM      2  C   UNL     1      86.267  52.479  41.326  0.00  0.00    -0.009 A 
ATOM      3  C   UNL     1      86.448  51.716  42.495  0.00  0.00    -0.021 A 
ATOM      4  C   UNL     1      86.218  52.315  43.742  0.00  0.00    -0.048 A 
ATOM      5  C   UNL     1      85.852  53.664  43.833  0.00  0.00    -0.001 A 
ATOM      6  C   UNL     1      85.670  54.417  42.657  0.00  0.00    +0.166 A 
ATOM      7  O   UNL     1      85.286  55.763  42.730  0.00  0.00    -0.482 OA
ATOM      8  C   UNL     1      84.794  56.363  43.934  0.00  0.00    +0.114 C 
ATOM      9  C   UNL     1      83.296  55.984  44.023  0.00  0.00    -0.025 C 
ATOM     10  C   UNL     1      84.962  57.893  43.777  0.00  0.00    +0.016 C 
ATOM     11  C   UNL     1      84.775  58.692  45.082  0.00  0.00    +0.085 C 
ATOM     12  C   UNL     1      85.677  58.145  46.217  0.00  0.00    +0.087 C 
ATOM     13  C   UNL     1      85.552  56.605  46.488  0.00  0.00    +0.000 C 
ATOM     14  C   UNL     1      85.682  55.841  45.113  0.00  0.00    +0.010 C 
ATOM     15  C   UNL     1      85.628  54.291  45.190  0.00  0.00    -0.017 C 
ATOM     16  C   UNL     1      86.742  56.202  47.402  0.00  0.00    -0.057 C 
ATOM     17  C   UNL     1      84.258  56.258  47.274  0.00  0.00    -0.057 C 
ENDROOT
BRANCH   1  19
ATOM     18  C   UNL     1      84.529  54.607  39.445  0.00  0.00    +0.079 C 
ATOM     19  O   UNL     1      85.698  54.625  40.259  0.00  0.00    -0.491 OA
ENDBRANCH   1  19
BRANCH   3  20
ATOM     20  C   UNL     1      86.839  50.284  42.463  0.00  0.00    -0.054 C 
ATOM     21  C   UNL     1      88.098  49.852  42.644  0.00  0.00    -0.054 C 
BRANCH  21  22
ATOM     22  C   UNL     1      88.483  48.422  42.611  0.00  0.00    -0.018 A 
ATOM     23  C   UNL     1      89.693  48.039  43.207  0.00  0.00    -0.013 A 
ATOM     24  C   UNL     1      90.103  46.699  43.205  0.00  0.00    +0.124 A 
ATOM     25  C   UNL     1      89.296  45.715  42.602  0.00  0.00    +0.039 A 
ATOM     26  C   UNL     1      88.057  46.087  42.043  0.00  0.00    +0.124 A 
ATOM     27  C   UNL     1      87.661  47.431  42.044  0.00  0.00    -0.013 A 
BRANCH  24  28
ATOM     28  O   UNL     1      91.312  46.345  43.803  0.00  0.00    -0.506 OA
ATOM     29  H   UNL     1      91.375  45.554  44.302  0.00  0.00    +0.000 HD
ENDBRANCH  24  28
BRANCH  26  30
ATOM     30  O   UNL     1      87.217  45.119  41.491  0.00  0.00    -0.506 OA
ATOM     31  H   UNL     1      86.781  44.504  42.049  0.00  0.00    +0.000 HD
ENDBRANCH  26  30
BRANCH  25  32
ATOM     32  C   UNL     1      89.729  44.268  42.616  0.00  0.00    -0.002 C 
BRANCH  32  33
ATOM     33  C   UNL     1      88.554  43.383  42.956  0.00  0.00    -0.080 C 
ATOM     34  C   UNL     1      88.246  42.950  44.200  0.00  0.00    -0.076 C 
ATOM     35  C   UNL     1      89.084  43.304  45.405  0.00  0.00    -0.044 C 
BRANCH  34  36
ATOM     36  C   UNL     1      87.054  42.040  44.391  0.00  0.00    -0.029 C 
BRANCH  36  37
ATOM     37  C   UNL     1      85.749  42.838  44.287  0.00  0.00    -0.031 C 
BRANCH  37  38
ATOM     38  C   UNL     1      85.987  44.298  44.580  0.00  0.00    -0.085 C 
ATOM     39  C   UNL     1      85.123  45.289  44.271  0.00  0.00    -0.080 C 
ATOM     40  C   UNL     1      83.825  45.024  43.542  0.00  0.00    -0.044 C 
ATOM     41  C   UNL     1      85.484  46.703  44.649  0.00  0.00    -0.044 C 
ENDBRANCH  37  38
ENDBRANCH  36  37
ENDBRANCH  34  36
ENDBRANCH  32  33
ENDBRANCH  25  32
ENDBRANCH  21  22
ENDBRANCH   3  20
BRANCH  11  42
ATOM     42  O   UNL     1      83.427  58.727  45.469  0.00  0.00    -0.389 OA
ATOM     43  H   UNL     1      83.243  59.562  45.927  0.00  0.00    +0.000 HD
ENDBRANCH  11  42
BRANCH  12  44
ATOM     44  O   UNL     1      85.532  58.907  47.394  0.00  0.00    -0.389 OA
ATOM     45  H   UNL     1      84.682  58.699  47.811  0.00  0.00    +0.000 HD
ENDBRANCH  12  44
TORSDOF 12
ENDMDL
MODEL 5
REMARK VINA RESULT:    -4.962      1.903     11.678
REMARK INTER + INTRA:          -8.170
REMARK INTER:                  -9.125
REMARK INTRA:                   0.955
REMARK UNBOUND:                -0.308
REMARK  Name = 
REMARK  19 active torsions:
REMARK  status: ('A' for Active; 'I' for Inactive)
REMARK    1  A    between atoms: C_1  and  O_2
REMARK    2  A    between atoms: O_2  and  C_3
REMARK    3  A    between atoms: C_5  and  C_6
REMARK    4  A    between atoms: C_7  and  C_8
REMARK    5  A    between atoms: C_10  and  O_11
REMARK    6  A    between atoms: C_12  and  C_16
REMARK    7  A    between atoms: C_13  and  O_15
REMARK    8  A    between atoms: C_16  and  C_17
REMARK    9  A    between atoms: C_18  and  C_19
REMARK   10  A    between atoms: C_18  and  C_25
REMARK   11  A    between atoms: C_19  and  C_20
REMARK   12  A    between atoms: C_20  and  C_21
REMARK   13  A    between atoms: C_22  and  C_23
REMARK   14  A    between atoms: C_22  and  C_24
REMARK   15  A    between atoms: C_30  and  C_31
REMARK   16  A    between atoms: C_33  and  O_34
REMARK   17  A    between atoms: C_35  and  O_41
REMARK   18  A    between atoms: C_36  and  C_39
REMARK   19  A    between atoms: C_36  and  C_40
REMARK                            x       y       z     vdW  Elec       q    Type
REMARK                         _______ _______ _______ _____ _____    ______ ____
ROOT
ATOM      1  C   UNL     1      85.471  53.521  41.762  0.00  0.00    +0.162 A 
ATOM      2  C   UNL     1      85.495  52.114  41.817  0.00  0.00    -0.009 A 
ATOM      3  C   UNL     1      85.303  51.439  43.038  0.00  0.00    -0.021 A 
ATOM      4  C   UNL     1      85.063  52.188  44.200  0.00  0.00    -0.048 A 
ATOM      5  C   UNL     1      85.052  53.588  44.161  0.00  0.00    -0.001 A 
ATOM      6  C   UNL     1      85.242  54.252  42.933  0.00  0.00    +0.166 A 
ATOM      7  O   UNL     1      85.215  55.653  42.874  0.00  0.00    -0.482 OA
ATOM      8  C   UNL     1      84.731  56.463  43.951  0.00  0.00    +0.114 C 
ATOM      9  C   UNL     1      83.188  56.479  43.818  0.00  0.00    -0.025 C 
ATOM     10  C   UNL     1      85.312  57.882  43.745  0.00  0.00    +0.016 C 
ATOM     11  C   UNL     1      85.156  58.817  44.960  0.00  0.00    +0.085 C 
ATOM     12  C   UNL     1      85.714  58.169  46.251  0.00  0.00    +0.087 C 
ATOM     13  C   UNL     1      85.155  56.740  46.578  0.00  0.00    +0.000 C 
ATOM     14  C   UNL     1      85.275  55.846  45.283  0.00  0.00    +0.010 C 
ATOM     15  C   UNL     1      84.809  54.373  45.430  0.00  0.00    -0.017 C 
ATOM     16  C   UNL     1      86.057  56.138  47.690  0.00  0.00    -0.057 C 
ATOM     17  C   UNL     1      83.718  56.800  47.163  0.00  0.00    -0.057 C 
ENDROOT
BRANCH   1  19
ATOM     18  C   UNL     1      84.618  54.596  39.668  0.00  0.00    +0.079 C 
ATOM     19  O   UNL     1      85.662  54.227  40.563  0.00  0.00    -0.491 OA
ENDBRANCH   1  19
BRANCH   3  20
ATOM     20  C   UNL     1      85.308  49.958  43.143  0.00  0.00    -0.054 C 
ATOM     21  C   UNL     1      84.448  49.264  43.905  0.00  0.00    -0.054 C 
BRANCH  21  22
ATOM     22  C   UNL     1      84.457  47.785  44.006  0.00  0.00    -0.018 A 
ATOM     23  C   UNL     1      85.617  47.151  44.473  0.00  0.00    -0.013 A 
ATOM     24  C   UNL     1      85.676  45.756  44.589  0.00  0.00    +0.124 A 
ATOM     25  C   UNL     1      84.562  44.970  44.238  0.00  0.00    +0.039 A 
ATOM     26  C   UNL     1      83.378  45.605  43.812  0.00  0.00    +0.124 A 
ATOM     27  C   UNL     1      83.332  47.001  43.692  0.00  0.00    -0.013 A 
BRANCH  24  28
ATOM     28  O   UNL     1      86.843  45.150  45.054  0.00  0.00    -0.506 OA
ATOM     29  H   UNL     1      87.644  45.248  44.576  0.00  0.00    +0.000 HD
ENDBRANCH  24  28
BRANCH  26  30
ATOM     30  O   UNL     1      82.245  44.848  43.513  0.00  0.00    -0.506 OA
ATOM     31  H   UNL     1      81.435  45.276  43.312  0.00  0.00    +0.000 HD
ENDBRANCH  26  30
BRANCH  25  32
ATOM     32  C   UNL     1      84.619  43.467  44.379  0.00  0.00    -0.002 C 
BRANCH  32  33
ATOM     33  C   UNL     1      86.051  42.997  44.284  0.00  0.00    -0.080 C 
ATOM     34  C   UNL     1      86.791  42.995  43.151  0.00  0.00    -0.076 C 
ATOM     35  C   UNL     1      86.234  43.460  41.827  0.00  0.00    -0.044 C 
BRANCH  34  36
ATOM     36  C   UNL     1      88.206  42.465  43.196  0.00  0.00    -0.029 C 
BRANCH  36  37
ATOM     37  C   UNL     1      89.207  43.620  43.306  0.00  0.00    -0.031 C 
BRANCH  37  38
ATOM     38  C   UNL     1      88.701  44.843  42.582  0.00  0.00    -0.085 C 
ATOM     39  C   UNL     1      89.312  46.047  42.599  0.00  0.00    -0.080 C 
ATOM     40  C   UNL     1      90.567  46.299  43.403  0.00  0.00    -0.044 C 
ATOM     41  C   UNL     1      88.703  47.174  41.804  0.00  0.00    -0.044 C 
ENDBRANCH  37  38
ENDBRANCH  36  37
ENDBRANCH  34  36
ENDBRANCH  32  33
ENDBRANCH  25  32
ENDBRANCH  21  22
ENDBRANCH   3  20
BRANCH  11  42
ATOM     42  O   UNL     1      83.823  59.223  45.123  0.00  0.00    -0.389 OA
ATOM     43  H   UNL     1      83.708  60.113  44.757  0.00  0.00    +0.000 HD
ENDBRANCH  11  42
BRANCH  12  44
ATOM     44  O   UNL     1      85.607  59.047  47.349  0.00  0.00    -0.389 OA
ATOM     45  H   UNL     1      84.889  58.753  47.929  0.00  0.00    +0.000 HD
ENDBRANCH  12  44
TORSDOF 12
ENDMDL
MODEL 6
REMARK VINA RESULT:    -4.644      7.368     12.336
REMARK INTER + INTRA:          -7.666
REMARK INTER:                  -6.904
REMARK INTRA:                  -0.762
REMARK UNBOUND:                -0.308
REMARK  Name = 
REMARK  19 active torsions:
REMARK  status: ('A' for Active; 'I' for Inactive)
REMARK    1  A    between atoms: C_1  and  O_2
REMARK    2  A    between atoms: O_2  and  C_3
REMARK    3  A    between atoms: C_5  and  C_6
REMARK    4  A    between atoms: C_7  and  C_8
REMARK    5  A    between atoms: C_10  and  O_11
REMARK    6  A    between atoms: C_12  and  C_16
REMARK    7  A    between atoms: C_13  and  O_15
REMARK    8  A    between atoms: C_16  and  C_17
REMARK    9  A    between atoms: C_18  and  C_19
REMARK   10  A    between atoms: C_18  and  C_25
REMARK   11  A    between atoms: C_19  and  C_20
REMARK   12  A    between atoms: C_20  and  C_21
REMARK   13  A    between atoms: C_22  and  C_23
REMARK   14  A    between atoms: C_22  and  C_24
REMARK   15  A    between atoms: C_30  and  C_31
REMARK   16  A    between atoms: C_33  and  O_34
REMARK   17  A    between atoms: C_35  and  O_41
REMARK   18  A    between atoms: C_36  and  C_39
REMARK   19  A    between atoms: C_36  and  C_40
REMARK                            x       y       z     vdW  Elec       q    Type
REMARK                         _______ _______ _______ _____ _____    ______ ____
ROOT
ATOM      1  C   UNL     1      86.496  51.553  47.362  0.00  0.00    +0.162 A 
ATOM      2  C   UNL     1      86.138  51.017  48.614  0.00  0.00    -0.009 A 
ATOM      3  C   UNL     1      85.289  51.728  49.485  0.00  0.00    -0.021 A 
ATOM      4  C   UNL     1      84.784  52.971  49.077  0.00  0.00    -0.048 A 
ATOM      5  C   UNL     1      85.145  53.523  47.841  0.00  0.00    -0.001 A 
ATOM      6  C   UNL     1      85.991  52.800  46.977  0.00  0.00    +0.166 A 
ATOM      7  O   UNL     1      86.347  53.329  45.729  0.00  0.00    -0.482 OA
ATOM      8  C   UNL     1      85.680  54.456  45.147  0.00  0.00    +0.114 C 
ATOM      9  C   UNL     1      84.394  53.900  44.488  0.00  0.00    -0.025 C 
ATOM     10  C   UNL     1      86.632  55.042  44.079  0.00  0.00    +0.016 C 
ATOM     11  C   UNL     1      86.225  56.434  43.558  0.00  0.00    +0.085 C 
ATOM     12  C   UNL     1      86.009  57.435  44.720  0.00  0.00    +0.087 C 
ATOM     13  C   UNL     1      85.023  56.954  45.842  0.00  0.00    +0.000 C 
ATOM     14  C   UNL     1      85.443  55.500  46.290  0.00  0.00    +0.010 C 
ATOM     15  C   UNL     1      84.601  54.873  47.434  0.00  0.00    -0.017 C 
ATOM     16  C   UNL     1      85.193  57.920  47.047  0.00  0.00    -0.057 C 
ATOM     17  C   UNL     1      83.539  57.066  45.396  0.00  0.00    -0.057 C 
ENDROOT
BRANCH   1  19
ATOM     18  C   UNL     1      86.989  49.687  45.767  0.00  0.00    +0.079 C 
ATOM     19  O   UNL     1      87.342  50.873  46.470  0.00  0.00    -0.491 OA
ENDBRANCH   1  19
BRANCH   3  20
ATOM     20  C   UNL     1      84.875  51.198  50.808  0.00  0.00    -0.054 C 
ATOM     21  C   UNL     1      83.680  51.446  51.368  0.00  0.00    -0.054 C 
BRANCH  21  22
ATOM     22  C   UNL     1      83.271  50.914  52.689  0.00  0.00    -0.018 A 
ATOM     23  C   UNL     1      84.265  50.450  53.563  0.00  0.00    -0.013 A 
ATOM     24  C   UNL     1      83.932  49.939  54.824  0.00  0.00    +0.124 A 
ATOM     25  C   UNL     1      82.585  49.889  55.232  0.00  0.00    +0.039 A 
ATOM     26  C   UNL     1      81.587  50.397  54.377  0.00  0.00    +0.124 A 
ATOM     27  C   UNL     1      81.930  50.900  53.115  0.00  0.00    -0.013 A 
BRANCH  24  28
ATOM     28  O   UNL     1      84.940  49.481  55.672  0.00  0.00    -0.506 OA
ATOM     29  H   UNL     1      84.768  48.775  56.265  0.00  0.00    +0.000 HD
ENDBRANCH  24  28
BRANCH  26  30
ATOM     30  O   UNL     1      80.252  50.409  54.786  0.00  0.00    -0.506 OA
ATOM     31  H   UNL     1      79.659  51.042  54.430  0.00  0.00    +0.000 HD
ENDBRANCH  26  30
BRANCH  25  32
ATOM     32  C   UNL     1      82.227  49.355  56.599  0.00  0.00    -0.002 C 
BRANCH  32  33
ATOM     33  C   UNL     1      81.971  50.501  57.548  0.00  0.00    -0.080 C 
ATOM     34  C   UNL     1      82.577  50.663  58.747  0.00  0.00    -0.076 C 
ATOM     35  C   UNL     1      83.585  49.673  59.279  0.00  0.00    -0.044 C 
BRANCH  34  36
ATOM     36  C   UNL     1      82.199  51.846  59.610  0.00  0.00    -0.029 C 
BRANCH  36  37
ATOM     37  C   UNL     1      83.100  51.913  60.849  0.00  0.00    -0.031 C 
BRANCH  37  38
ATOM     38  C   UNL     1      82.802  53.147  61.664  0.00  0.00    -0.085 C 
ATOM     39  C   UNL     1      82.919  54.411  61.205  0.00  0.00    -0.080 C 
ATOM     40  C   UNL     1      83.417  54.716  59.810  0.00  0.00    -0.044 C 
ATOM     41  C   UNL     1      82.560  55.548  62.128  0.00  0.00    -0.044 C 
ENDBRANCH  37  38
ENDBRANCH  36  37
ENDBRANCH  34  36
ENDBRANCH  32  33
ENDBRANCH  25  32
ENDBRANCH  21  22
ENDBRANCH   3  20
BRANCH  11  42
ATOM     42  O   UNL     1      85.096  56.359  42.728  0.00  0.00    -0.389 OA
ATOM     43  H   UNL     1      84.517  57.117  42.900  0.00  0.00    +0.000 HD
ENDBRANCH  11  42
BRANCH  12  44
ATOM     44  O   UNL     1      85.680  58.716  44.234  0.00  0.00    -0.389 OA
ATOM     45  H   UNL     1      85.392  59.277  44.971  0.00  0.00    +0.000 HD
ENDBRANCH  12  44
TORSDOF 12
ENDMDL
MODEL 7
REMARK VINA RESULT:    -4.444      2.205      4.070
REMARK INTER + INTRA:          -7.350
REMARK INTER:                  -7.187
REMARK INTRA:                  -0.163
REMARK UNBOUND:                -0.308
REMARK  Name = 
REMARK  19 active torsions:
REMARK  status: ('A' for Active; 'I' for Inactive)
REMARK    1  A    between atoms: C_1  and  O_2
REMARK    2  A    between atoms: O_2  and  C_3
REMARK    3  A    between atoms: C_5  and  C_6
REMARK    4  A    between atoms: C_7  and  C_8
REMARK    5  A    between atoms: C_10  and  O_11
REMARK    6  A    between atoms: C_12  and  C_16
REMARK    7  A    between atoms: C_13  and  O_15
REMARK    8  A    between atoms: C_16  and  C_17
REMARK    9  A    between atoms: C_18  and  C_19
REMARK   10  A    between atoms: C_18  and  C_25
REMARK   11  A    between atoms: C_19  and  C_20
REMARK   12  A    between atoms: C_20  and  C_21
REMARK   13  A    between atoms: C_22  and  C_23
REMARK   14  A    between atoms: C_22  and  C_24
REMARK   15  A    between atoms: C_30  and  C_31
REMARK   16  A    between atoms: C_33  and  O_34
REMARK   17  A    between atoms: C_35  and  O_41
REMARK   18  A    between atoms: C_36  and  C_39
REMARK   19  A    between atoms: C_36  and  C_40
REMARK                            x       y       z     vdW  Elec       q    Type
REMARK                         _______ _______ _______ _____ _____    ______ ____
ROOT
ATOM      1  C   UNL     1      89.025  48.794  41.739  0.00  0.00    +0.162 A 
ATOM      2  C   UNL     1      88.844  50.163  42.016  0.00  0.00    -0.009 A 
ATOM      3  C   UNL     1      87.748  50.603  42.783  0.00  0.00    -0.021 A 
ATOM      4  C   UNL     1      86.848  49.655  43.290  0.00  0.00    -0.048 A 
ATOM      5  C   UNL     1      87.007  48.292  43.008  0.00  0.00    -0.001 A 
ATOM      6  C   UNL     1      88.109  47.864  42.243  0.00  0.00    +0.166 A 
ATOM      7  O   UNL     1      88.294  46.501  41.969  0.00  0.00    -0.482 OA
ATOM      8  C   UNL     1      87.573  45.469  42.652  0.00  0.00    +0.114 C 
ATOM      9  C   UNL     1      88.311  45.246  43.995  0.00  0.00    -0.025 C 
ATOM     10  C   UNL     1      87.650  44.203  41.768  0.00  0.00    +0.016 C 
ATOM     11  C   UNL     1      86.684  43.076  42.182  0.00  0.00    +0.085 C 
ATOM     12  C   UNL     1      85.226  43.590  42.292  0.00  0.00    +0.087 C 
ATOM     13  C   UNL     1      85.029  44.851  43.203  0.00  0.00    +0.000 C 
ATOM     14  C   UNL     1      86.087  45.945  42.783  0.00  0.00    +0.010 C 
ATOM     15  C   UNL     1      86.012  47.292  43.552  0.00  0.00    -0.017 C 
ATOM     16  C   UNL     1      83.602  45.400  42.925  0.00  0.00    -0.057 C 
ATOM     17  C   UNL     1      85.073  44.489  44.713  0.00  0.00    -0.057 C 
ENDROOT
BRANCH   1  19
ATOM     18  C   UNL     1      90.907  47.197  41.322  0.00  0.00    +0.079 C 
ATOM     19  O   UNL     1      90.103  48.320  40.975  0.00  0.00    -0.491 OA
ENDBRANCH   1  19
BRANCH   3  20
ATOM     20  C   UNL     1      87.524  52.034  43.110  0.00  0.00    -0.054 C 
ATOM     21  C   UNL     1      86.364  52.674  42.889  0.00  0.00    -0.054 C 
BRANCH  21  22
ATOM     22  C   UNL     1      86.145  54.103  43.218  0.00  0.00    -0.018 A 
ATOM     23  C   UNL     1      84.852  54.630  43.093  0.00  0.00    -0.013 A 
ATOM     24  C   UNL     1      84.590  55.973  43.393  0.00  0.00    +0.124 A 
ATOM     25  C   UNL     1      85.632  56.814  43.830  0.00  0.00    +0.039 A 
ATOM     26  C   UNL     1      86.924  56.278  44.002  0.00  0.00    +0.124 A 
ATOM     27  C   UNL     1      87.176  54.935  43.692  0.00  0.00    -0.013 A 
BRANCH  24  28
ATOM     28  O   UNL     1      83.295  56.472  43.257  0.00  0.00    -0.506 OA
ATOM     29  H   UNL     1      82.960  57.083  43.885  0.00  0.00    +0.000 HD
ENDBRANCH  24  28
BRANCH  26  30
ATOM     30  O   UNL     1      87.957  57.081  44.488  0.00  0.00    -0.506 OA
ATOM     31  H   UNL     1      87.931  58.009  44.356  0.00  0.00    +0.000 HD
ENDBRANCH  26  30
BRANCH  25  32
ATOM     32  C   UNL     1      85.347  58.258  44.171  0.00  0.00    -0.002 C 
BRANCH  32  33
ATOM     33  C   UNL     1      84.340  58.332  45.293  0.00  0.00    -0.080 C 
ATOM     34  C   UNL     1      84.533  57.844  46.540  0.00  0.00    -0.076 C 
ATOM     35  C   UNL     1      85.808  57.139  46.939  0.00  0.00    -0.044 C 
BRANCH  34  36
ATOM     36  C   UNL     1      83.422  57.961  47.559  0.00  0.00    -0.029 C 
BRANCH  36  37
ATOM     37  C   UNL     1      82.627  56.652  47.636  0.00  0.00    -0.031 C 
BRANCH  37  38
ATOM     38  C   UNL     1      83.311  55.660  48.543  0.00  0.00    -0.085 C 
ATOM     39  C   UNL     1      83.940  54.543  48.116  0.00  0.00    -0.080 C 
ATOM     40  C   UNL     1      83.978  54.152  46.656  0.00  0.00    -0.044 C 
ATOM     41  C   UNL     1      84.603  53.656  49.138  0.00  0.00    -0.044 C 
ENDBRANCH  37  38
ENDBRANCH  36  37
ENDBRANCH  34  36
ENDBRANCH  32  33
ENDBRANCH  25  32
ENDBRANCH  21  22
ENDBRANCH   3  20
BRANCH  11  42
ATOM     42  O   UNL     1      87.101  42.457  43.371  0.00  0.00    -0.389 OA
ATOM     43  H   UNL     1      86.366  41.946  43.744  0.00  0.00    +0.000 HD
ENDBRANCH  11  42
BRANCH  12  44
ATOM     44  O   UNL     1      84.342  42.545  42.629  0.00  0.00    -0.389 OA
ATOM     45  H   UNL     1      84.147  42.580  43.578  0.00  0.00    +0.000 HD
ENDBRANCH  12  44
TORSDOF 12
ENDMDL
MODEL 8
REMARK VINA RESULT:    -4.408      2.748     11.741
REMARK INTER + INTRA:          -7.292
REMARK INTER:                  -6.076
REMARK INTRA:                  -1.216
REMARK UNBOUND:                -0.308
REMARK  Name = 
REMARK  19 active torsions:
REMARK  status: ('A' for Active; 'I' for Inactive)
REMARK    1  A    between atoms: C_1  and  O_2
REMARK    2  A    between atoms: O_2  and  C_3
REMARK    3  A    between atoms: C_5  and  C_6
REMARK    4  A    between atoms: C_7  and  C_8
REMARK    5  A    between atoms: C_10  and  O_11
REMARK    6  A    between atoms: C_12  and  C_16
REMARK    7  A    between atoms: C_13  and  O_15
REMARK    8  A    between atoms: C_16  and  C_17
REMARK    9  A    between atoms: C_18  and  C_19
REMARK   10  A    between atoms: C_18  and  C_25
REMARK   11  A    between atoms: C_19  and  C_20
REMARK   12  A    between atoms: C_20  and  C_21
REMARK   13  A    between atoms: C_22  and  C_23
REMARK   14  A    between atoms: C_22  and  C_24
REMARK   15  A    between atoms: C_30  and  C_31
REMARK   16  A    between atoms: C_33  and  O_34
REMARK   17  A    between atoms: C_35  and  O_41
REMARK   18  A    between atoms: C_36  and  C_39
REMARK   19  A    between atoms: C_36  and  C_40
REMARK                            x       y       z     vdW  Elec       q    Type
REMARK                         _______ _______ _______ _____ _____    ______ ____
ROOT
ATOM      1  C   UNL     1      85.556  52.622  48.048  0.00  0.00    +0.162 A 
ATOM      2  C   UNL     1      86.103  51.434  47.526  0.00  0.00    -0.009 A 
ATOM      3  C   UNL     1      86.659  51.407  46.233  0.00  0.00    -0.021 A 
ATOM      4  C   UNL     1      86.684  52.588  45.477  0.00  0.00    -0.048 A 
ATOM      5  C   UNL     1      86.129  53.773  45.979  0.00  0.00    -0.001 A 
ATOM      6  C   UNL     1      85.579  53.788  47.275  0.00  0.00    +0.166 A 
ATOM      7  O   UNL     1      85.037  54.971  47.800  0.00  0.00    -0.482 OA
ATOM      8  C   UNL     1      85.251  56.253  47.199  0.00  0.00    +0.114 C 
ATOM      9  C   UNL     1      86.639  56.732  47.691  0.00  0.00    -0.025 C 
ATOM     10  C   UNL     1      84.134  57.187  47.720  0.00  0.00    +0.016 C 
ATOM     11  C   UNL     1      84.012  58.521  46.957  0.00  0.00    +0.085 C 
ATOM     12  C   UNL     1      83.881  58.293  45.431  0.00  0.00    +0.087 C 
ATOM     13  C   UNL     1      84.993  57.390  44.791  0.00  0.00    +0.000 C 
ATOM     14  C   UNL     1      85.123  56.071  45.649  0.00  0.00    +0.010 C 
ATOM     15  C   UNL     1      86.153  55.028  45.137  0.00  0.00    -0.017 C 
ATOM     16  C   UNL     1      84.513  57.014  43.362  0.00  0.00    -0.057 C 
ATOM     17  C   UNL     1      86.333  58.156  44.617  0.00  0.00    -0.057 C 
ENDROOT
BRANCH   1  19
ATOM     18  C   UNL     1      83.593  52.633  49.602  0.00  0.00    +0.079 C 
ATOM     19  O   UNL     1      84.990  52.685  49.332  0.00  0.00    -0.491 OA
ENDBRANCH   1  19
BRANCH   3  20
ATOM     20  C   UNL     1      87.258  50.181  45.645  0.00  0.00    -0.054 C 
ATOM     21  C   UNL     1      87.940  50.168  44.489  0.00  0.00    -0.054 C 
BRANCH  21  22
ATOM     22  C   UNL     1      88.536  48.942  43.906  0.00  0.00    -0.018 A 
ATOM     23  C   UNL     1      87.775  48.192  42.999  0.00  0.00    -0.013 A 
ATOM     24  C   UNL     1      88.292  47.026  42.419  0.00  0.00    +0.124 A 
ATOM     25  C   UNL     1      89.594  46.594  42.741  0.00  0.00    +0.039 A 
ATOM     26  C   UNL     1      90.379  47.370  43.617  0.00  0.00    +0.124 A 
ATOM     27  C   UNL     1      89.849  48.530  44.197  0.00  0.00    -0.013 A 
BRANCH  24  28
ATOM     28  O   UNL     1      87.513  46.296  41.521  0.00  0.00    -0.506 OA
ATOM     29  H   UNL     1      86.943  45.622  41.836  0.00  0.00    +0.000 HD
ENDBRANCH  24  28
BRANCH  26  30
ATOM     30  O   UNL     1      91.691  46.990  43.905  0.00  0.00    -0.506 OA
ATOM     31  H   UNL     1      92.334  47.642  44.105  0.00  0.00    +0.000 HD
ENDBRANCH  26  30
BRANCH  25  32
ATOM     32  C   UNL     1      90.158  45.348  42.102  0.00  0.00    -0.002 C 
BRANCH  32  33
ATOM     33  C   UNL     1      89.160  44.220  42.208  0.00  0.00    -0.080 C 
ATOM     34  C   UNL     1      88.769  43.638  43.365  0.00  0.00    -0.076 C 
ATOM     35  C   UNL     1      89.324  44.061  44.705  0.00  0.00    -0.044 C 
BRANCH  34  36
ATOM     36  C   UNL     1      87.783  42.493  43.320  0.00  0.00    -0.029 C 
BRANCH  36  37
ATOM     37  C   UNL     1      86.510  42.852  44.095  0.00  0.00    -0.031 C 
BRANCH  37  38
ATOM     38  C   UNL     1      85.578  43.680  43.246  0.00  0.00    -0.085 C 
ATOM     39  C   UNL     1      85.219  44.952  43.525  0.00  0.00    -0.080 C 
ATOM     40  C   UNL     1      85.693  45.665  44.771  0.00  0.00    -0.044 C 
ATOM     41  C   UNL     1      84.298  45.665  42.569  0.00  0.00    -0.044 C 
ENDBRANCH  37  38
ENDBRANCH  36  37
ENDBRANCH  34  36
ENDBRANCH  32  33
ENDBRANCH  25  32
ENDBRANCH  21  22
ENDBRANCH   3  20
BRANCH  11  42
ATOM     42  O   UNL     1      85.080  59.380  47.258  0.00  0.00    -0.389 OA
ATOM     43  H   UNL     1      84.852  59.923  48.028  0.00  0.00    +0.000 HD
ENDBRANCH  11  42
BRANCH  12  44
ATOM     44  O   UNL     1      83.726  59.514  44.745  0.00  0.00    -0.389 OA
ATOM     45  H   UNL     1      84.582  59.969  44.696  0.00  0.00    +0.000 HD
ENDBRANCH  12  44
TORSDOF 12
ENDMDL
MODEL 9
REMARK VINA RESULT:    -4.343      7.026     11.019
REMARK INTER + INTRA:          -7.189
REMARK INTER:                  -6.882
REMARK INTRA:                  -0.308
REMARK UNBOUND:                -0.308
REMARK  Name = 
REMARK  19 active torsions:
REMARK  status: ('A' for Active; 'I' for Inactive)
REMARK    1  A    between atoms: C_1  and  O_2
REMARK    2  A    between atoms: O_2  and  C_3
REMARK    3  A    between atoms: C_5  and  C_6
REMARK    4  A    between atoms: C_7  and  C_8
REMARK    5  A    between atoms: C_10  and  O_11
REMARK    6  A    between atoms: C_12  and  C_16
REMARK    7  A    between atoms: C_13  and  O_15
REMARK    8  A    between atoms: C_16  and  C_17
REMARK    9  A    between atoms: C_18  and  C_19
REMARK   10  A    between atoms: C_18  and  C_25
REMARK   11  A    between atoms: C_19  and  C_20
REMARK   12  A    between atoms: C_20  and  C_21
REMARK   13  A    between atoms: C_22  and  C_23
REMARK   14  A    between atoms: C_22  and  C_24
REMARK   15  A    between atoms: C_30  and  C_31
REMARK   16  A    between atoms: C_33  and  O_34
REMARK   17  A    between atoms: C_35  and  O_41
REMARK   18  A    between atoms: C_36  and  C_39
REMARK   19  A    between atoms: C_36  and  C_40
REMARK                            x       y       z     vdW  Elec       q    Type
REMARK                         _______ _______ _______ _____ _____    ______ ____
ROOT
ATOM      1  C   UNL     1      84.292  54.927  46.469  0.00  0.00    +0.162 A 
ATOM      2  C   UNL     1      83.790  54.579  47.738  0.00  0.00    -0.009 A 
ATOM      3  C   UNL     1      84.016  53.297  48.274  0.00  0.00    -0.021 A 
ATOM      4  C   UNL     1      84.770  52.373  47.535  0.00  0.00    -0.048 A 
ATOM      5  C   UNL     1      85.261  52.701  46.264  0.00  0.00    -0.001 A 
ATOM      6  C   UNL     1      85.032  53.988  45.741  0.00  0.00    +0.166 A 
ATOM      7  O   UNL     1      85.533  54.338  44.479  0.00  0.00    -0.482 OA
ATOM      8  C   UNL     1      86.509  53.550  43.788  0.00  0.00    +0.114 C 
ATOM      9  C   UNL     1      87.882  53.946  44.385  0.00  0.00    -0.025 C 
ATOM     10  C   UNL     1      86.430  53.942  42.294  0.00  0.00    +0.016 C 
ATOM     11  C   UNL     1      87.185  52.991  41.344  0.00  0.00    +0.085 C 
ATOM     12  C   UNL     1      86.757  51.517  41.558  0.00  0.00    +0.087 C 
ATOM     13  C   UNL     1      86.841  51.004  43.038  0.00  0.00    +0.000 C 
ATOM     14  C   UNL     1      86.113  52.047  43.973  0.00  0.00    +0.010 C 
ATOM     15  C   UNL     1      86.055  51.681  45.481  0.00  0.00    -0.017 C 
ATOM     16  C   UNL     1      86.074  49.654  43.099  0.00  0.00    -0.057 C 
ATOM     17  C   UNL     1      88.303  50.698  43.463  0.00  0.00    -0.057 C 
ENDROOT
BRANCH   1  19
ATOM     18  C   UNL     1      84.569  57.415  46.451  0.00  0.00    +0.079 C 
ATOM     19  O   UNL     1      84.083  56.194  45.902  0.00  0.00    -0.491 OA
ENDBRANCH   1  19
BRANCH   3  20
ATOM     20  C   UNL     1      83.518  52.890  49.612  0.00  0.00    -0.054 C 
ATOM     21  C   UNL     1      83.732  51.678  50.148  0.00  0.00    -0.054 C 
BRANCH  21  22
ATOM     22  C   UNL     1      83.233  51.276  51.485  0.00  0.00    -0.018 A 
ATOM     23  C   UNL     1      84.156  50.823  52.438  0.00  0.00    -0.013 A 
ATOM     24  C   UNL     1      83.736  50.433  53.716  0.00  0.00    +0.124 A 
ATOM     25  C   UNL     1      82.372  50.497  54.062  0.00  0.00    +0.039 A 
ATOM     26  C   UNL     1      81.447  50.996  53.124  0.00  0.00    +0.124 A 
ATOM     27  C   UNL     1      81.876  51.376  51.845  0.00  0.00    -0.013 A 
BRANCH  24  28
ATOM     28  O   UNL     1      84.675  49.983  54.644  0.00  0.00    -0.506 OA
ATOM     29  H   UNL     1      84.580  50.202  55.551  0.00  0.00    +0.000 HD
ENDBRANCH  24  28
BRANCH  26  30
ATOM     30  O   UNL     1      80.099  51.120  53.465  0.00  0.00    -0.506 OA
ATOM     31  H   UNL     1      79.786  51.913  53.854  0.00  0.00    +0.000 HD
ENDBRANCH  26  30
BRANCH  25  32
ATOM     32  C   UNL     1      81.922  50.094  55.446  0.00  0.00    -0.002 C 
BRANCH  32  33
ATOM     33  C   UNL     1      82.667  50.899  56.483  0.00  0.00    -0.080 C 
ATOM     34  C   UNL     1      82.377  50.915  57.805  0.00  0.00    -0.076 C 
ATOM     35  C   UNL     1      81.233  50.120  58.387  0.00  0.00    -0.044 C 
BRANCH  34  36
ATOM     36  C   UNL     1      83.190  51.796  58.728  0.00  0.00    -0.029 C 
BRANCH  36  37
ATOM     37  C   UNL     1      83.143  51.255  60.161  0.00  0.00    -0.031 C 
BRANCH  37  38
ATOM     38  C   UNL     1      81.981  51.845  60.921  0.00  0.00    -0.085 C 
ATOM     39  C   UNL     1      82.036  52.997  61.625  0.00  0.00    -0.080 C 
ATOM     40  C   UNL     1      83.312  53.797  61.756  0.00  0.00    -0.044 C 
ATOM     41  C   UNL     1      80.785  53.478  62.314  0.00  0.00    -0.044 C 
ENDBRANCH  37  38
ENDBRANCH  36  37
ENDBRANCH  34  36
ENDBRANCH  32  33
ENDBRANCH  25  32
ENDBRANCH  21  22
ENDBRANCH   3  20
BRANCH  11  42
ATOM     42  O   UNL     1      88.574  53.145  41.468  0.00  0.00    -0.389 OA
ATOM     43  H   UNL     1      89.009  52.292  41.315  0.00  0.00    +0.000 HD
ENDBRANCH  11  42
BRANCH  12  44
ATOM     44  O   UNL     1      87.420  50.659  40.657  0.00  0.00    -0.389 OA
ATOM     45  H   UNL     1      86.996  49.787  40.671  0.00  0.00    +0.000 HD
ENDBRANCH  12  44
TORSDOF 12
ENDMDL
