MODEL 1
REMARK VINA RESULT:    -7.968      0.000      0.000
REMARK INTER + INTRA:         -11.311
REMARK INTER:                 -10.325
REMARK INTRA:                  -0.986
REMARK UNBOUND:                 1.083
REMARK  Name = 
REMARK  18 active torsions:
REMARK  status: ('A' for Active; 'I' for Inactive)
REMARK    1  A    between atoms: C_1  and  C_2
REMARK    2  A    between atoms: C_2  and  C_35
REMARK    3  A    between atoms: C_3  and  C_4
REMARK    4  A    between atoms: C_4  and  C_5
REMARK    5  A    between atoms: C_6  and  O_7
REMARK    6  A    between atoms: C_9  and  C_13
REMARK    7  A    between atoms: C_11  and  O_12
REMARK    8  A    between atoms: C_14  and  C_15
REMARK    9  A    between atoms: C_17  and  O_18
REMARK   10  A    between atoms: C_24  and  C_26
REMARK   11  A    between atoms: C_28  and  O_34
REMARK   12  A    between atoms: C_29  and  O_33
REMARK   13  A    between atoms: C_30  and  C_31
REMARK   14  A    between atoms: C_30  and  C_32
REMARK   15  A    between atoms: C_35  and  C_36
REMARK   16  A    between atoms: C_36  and  C_37
REMARK   17  A    between atoms: C_38  and  C_39
REMARK   18  A    between atoms: C_38  and  C_40
REMARK                            x       y       z     vdW  Elec       q    Type
REMARK                         _______ _______ _______ _____ _____    ______ ____
ROOT
ATOM      1  C   UNL     1      83.948  53.852  48.407  0.00  0.00    -0.021 A 
ATOM      2  C   UNL     1      84.105  55.240  48.274  0.00  0.00    -0.009 A 
ATOM      3  C   UNL     1      84.429  55.806  47.033  0.00  0.00    +0.159 A 
ATOM      4  C   UNL     1      84.584  54.987  45.911  0.00  0.00    +0.166 A 
ATOM      5  C   UNL     1      84.377  53.599  46.016  0.00  0.00    -0.001 A 
ATOM      6  C   UNL     1      84.072  53.036  47.265  0.00  0.00    -0.048 A 
ATOM      7  C   UNL     1      84.518  52.709  44.805  0.00  0.00    -0.017 C 
ATOM      8  C   UNL     1      84.424  53.517  43.483  0.00  0.00    +0.010 C 
ATOM      9  C   UNL     1      85.330  54.793  43.540  0.00  0.00    +0.114 C 
ATOM     10  O   UNL     1      84.929  55.563  44.681  0.00  0.00    -0.482 OA
ATOM     11  C   UNL     1      86.832  54.473  43.731  0.00  0.00    -0.025 C 
ATOM     12  C   UNL     1      85.134  55.694  42.281  0.00  0.00    +0.016 C 
ATOM     13  C   UNL     1      84.372  55.027  41.115  0.00  0.00    +0.085 C 
ATOM     14  C   UNL     1      84.788  53.553  40.894  0.00  0.00    +0.087 C 
ATOM     15  C   UNL     1      84.522  52.648  42.161  0.00  0.00    +0.000 C 
ATOM     16  C   UNL     1      83.157  51.932  41.952  0.00  0.00    -0.057 C 
ATOM     17  C   UNL     1      85.587  51.522  42.265  0.00  0.00    -0.057 C 
ENDROOT
BRANCH   1  19
ATOM     18  C   UNL     1      83.239  52.030  49.949  0.00  0.00    -0.054 C 
ATOM     19  C   UNL     1      83.623  53.300  49.745  0.00  0.00    -0.054 C 
BRANCH  18  23
ATOM     20  C   UNL     1      82.383  50.367  53.838  0.00  0.00    +0.039 A 
ATOM     21  C   UNL     1      83.725  50.459  53.390  0.00  0.00    +0.124 A 
ATOM     22  C   UNL     1      84.008  51.002  52.132  0.00  0.00    -0.013 A 
ATOM     23  C   UNL     1      82.978  51.459  51.293  0.00  0.00    -0.018 A 
ATOM     24  C   UNL     1      81.657  51.402  51.754  0.00  0.00    -0.013 A 
ATOM     25  C   UNL     1      81.354  50.864  53.010  0.00  0.00    +0.124 A 
BRANCH  21  26
ATOM     26  O   UNL     1      84.806  50.034  54.168  0.00  0.00    -0.506 OA
ATOM     27  H   UNL     1      85.680  50.121  53.842  0.00  0.00    +0.000 HD
ENDBRANCH  21  26
BRANCH  25  28
ATOM     28  O   UNL     1      80.026  50.824  53.435  0.00  0.00    -0.506 OA
ATOM     29  H   UNL     1      79.582  51.618  53.661  0.00  0.00    +0.000 HD
ENDBRANCH  25  28
BRANCH  20  30
ATOM     30  C   UNL     1      82.042  49.800  55.198  0.00  0.00    -0.002 C 
BRANCH  30  33
ATOM     31  C   UNL     1      84.113  49.526  57.392  0.00  0.00    -0.044 C 
ATOM     32  C   UNL     1      83.206  50.725  57.261  0.00  0.00    -0.076 C 
ATOM     33  C   UNL     1      82.292  50.835  56.270  0.00  0.00    -0.080 C 
BRANCH  32  34
ATOM     34  C   UNL     1      83.339  51.855  58.262  0.00  0.00    -0.029 C 
BRANCH  34  35
ATOM     35  C   UNL     1      82.815  51.451  59.647  0.00  0.00    -0.031 C 
BRANCH  35  36
ATOM     36  C   UNL     1      82.981  52.567  60.651  0.00  0.00    -0.085 C 
ATOM     37  C   UNL     1      81.960  53.221  61.245  0.00  0.00    -0.080 C 
ATOM     38  C   UNL     1      82.282  54.269  62.279  0.00  0.00    -0.044 C 
ATOM     39  C   UNL     1      80.518  52.947  60.890  0.00  0.00    -0.044 C 
ENDBRANCH  35  36
ENDBRANCH  34  35
ENDBRANCH  32  34
ENDBRANCH  30  33
ENDBRANCH  20  30
ENDBRANCH  18  23
ENDBRANCH   1  19
BRANCH   3  40
ATOM     40  O   UNL     1      84.600  57.184  46.911  0.00  0.00    -0.503 OA
ATOM     41  H   UNL     1      84.226  57.762  47.547  0.00  0.00    +0.000 HD
ENDBRANCH   3  40
BRANCH  14  42
ATOM     42  O   UNL     1      86.104  53.427  40.393  0.00  0.00    -0.389 OA
ATOM     43  H   UNL     1      86.340  54.227  39.899  0.00  0.00    +0.000 HD
ENDBRANCH  14  42
BRANCH  13  44
ATOM     44  O   UNL     1      84.585  55.757  39.933  0.00  0.00    -0.389 OA
ATOM     45  H   UNL     1      85.078  55.210  39.300  0.00  0.00    +0.000 HD
ENDBRANCH  13  44
TORSDOF 12
ENDMDL
MODEL 2
REMARK VINA RESULT:    -6.862      6.772     11.608
REMARK INTER + INTRA:          -9.590
REMARK INTER:                  -8.352
REMARK INTRA:                  -1.237
REMARK UNBOUND:                 1.083
REMARK  Name = 
REMARK  18 active torsions:
REMARK  status: ('A' for Active; 'I' for Inactive)
REMARK    1  A    between atoms: C_1  and  C_2
REMARK    2  A    between atoms: C_2  and  C_35
REMARK    3  A    between atoms: C_3  and  C_4
REMARK    4  A    between atoms: C_4  and  C_5
REMARK    5  A    between atoms: C_6  and  O_7
REMARK    6  A    between atoms: C_9  and  C_13
REMARK    7  A    between atoms: C_11  and  O_12
REMARK    8  A    between atoms: C_14  and  C_15
REMARK    9  A    between atoms: C_17  and  O_18
REMARK   10  A    between atoms: C_24  and  C_26
REMARK   11  A    between atoms: C_28  and  O_34
REMARK   12  A    between atoms: C_29  and  O_33
REMARK   13  A    between atoms: C_30  and  C_31
REMARK   14  A    between atoms: C_30  and  C_32
REMARK   15  A    between atoms: C_35  and  C_36
REMARK   16  A    between atoms: C_36  and  C_37
REMARK   17  A    between atoms: C_38  and  C_39
REMARK   18  A    between atoms: C_38  and  C_40
REMARK                            x       y       z     vdW  Elec       q    Type
REMARK                         _______ _______ _______ _____ _____    ______ ____
ROOT
ATOM      1  C   UNL     1      84.300  48.843  43.853  0.00  0.00    -0.021 A 
ATOM      2  C   UNL     1      83.219  48.087  44.331  0.00  0.00    -0.009 A 
ATOM      3  C   UNL     1      83.316  46.694  44.446  0.00  0.00    +0.159 A 
ATOM      4  C   UNL     1      84.505  46.046  44.096  0.00  0.00    +0.166 A 
ATOM      5  C   UNL     1      85.617  46.794  43.667  0.00  0.00    -0.001 A 
ATOM      6  C   UNL     1      85.506  48.187  43.536  0.00  0.00    -0.048 A 
ATOM      7  C   UNL     1      86.912  46.106  43.311  0.00  0.00    -0.017 C 
ATOM      8  C   UNL     1      86.989  44.678  43.914  0.00  0.00    +0.010 C 
ATOM      9  C   UNL     1      85.665  43.885  43.650  0.00  0.00    +0.114 C 
ATOM     10  O   UNL     1      84.582  44.650  44.195  0.00  0.00    -0.482 OA
ATOM     11  C   UNL     1      85.353  43.691  42.146  0.00  0.00    -0.025 C 
ATOM     12  C   UNL     1      85.667  42.504  44.376  0.00  0.00    +0.016 C 
ATOM     13  C   UNL     1      87.042  42.054  44.917  0.00  0.00    +0.085 C 
ATOM     14  C   UNL     1      88.199  42.360  43.936  0.00  0.00    +0.087 C 
ATOM     15  C   UNL     1      88.340  43.902  43.620  0.00  0.00    +0.000 C 
ATOM     16  C   UNL     1      89.441  44.478  44.555  0.00  0.00    -0.057 C 
ATOM     17  C   UNL     1      88.850  44.120  42.169  0.00  0.00    -0.057 C 
ENDROOT
BRANCH   1  19
ATOM     18  C   UNL     1      85.140  51.140  43.389  0.00  0.00    -0.054 C 
ATOM     19  C   UNL     1      84.140  50.313  43.734  0.00  0.00    -0.054 C 
BRANCH  18  23
ATOM     20  C   UNL     1      84.732  55.404  42.864  0.00  0.00    +0.039 A 
ATOM     21  C   UNL     1      83.639  54.550  42.569  0.00  0.00    +0.124 A 
ATOM     22  C   UNL     1      83.766  53.167  42.743  0.00  0.00    -0.013 A 
ATOM     23  C   UNL     1      84.966  52.602  43.204  0.00  0.00    -0.018 A 
ATOM     24  C   UNL     1      86.029  53.452  43.531  0.00  0.00    -0.013 A 
ATOM     25  C   UNL     1      85.923  54.838  43.366  0.00  0.00    +0.124 A 
BRANCH  21  26
ATOM     26  O   UNL     1      82.410  55.034  42.114  0.00  0.00    -0.506 OA
ATOM     27  H   UNL     1      82.332  55.925  41.835  0.00  0.00    +0.000 HD
ENDBRANCH  21  26
BRANCH  25  28
ATOM     28  O   UNL     1      87.004  55.653  43.702  0.00  0.00    -0.506 OA
ATOM     29  H   UNL     1      86.868  56.421  44.221  0.00  0.00    +0.000 HD
ENDBRANCH  25  28
BRANCH  20  30
ATOM     30  C   UNL     1      84.626  56.905  42.703  0.00  0.00    -0.002 C 
BRANCH  30  33
ATOM     31  C   UNL     1      86.390  58.673  44.416  0.00  0.00    -0.044 C 
ATOM     32  C   UNL     1      84.969  58.323  44.786  0.00  0.00    -0.076 C 
ATOM     33  C   UNL     1      84.193  57.538  44.005  0.00  0.00    -0.080 C 
BRANCH  32  34
ATOM     34  C   UNL     1      84.386  58.887  46.066  0.00  0.00    -0.029 C 
BRANCH  34  35
ATOM     35  C   UNL     1      83.950  57.775  47.030  0.00  0.00    -0.031 C 
BRANCH  35  36
ATOM     36  C   UNL     1      84.942  56.637  47.052  0.00  0.00    -0.085 C 
ATOM     37  C   UNL     1      84.737  55.453  47.667  0.00  0.00    -0.080 C 
ATOM     38  C   UNL     1      85.795  54.387  47.545  0.00  0.00    -0.044 C 
ATOM     39  C   UNL     1      83.495  55.177  48.481  0.00  0.00    -0.044 C 
ENDBRANCH  35  36
ENDBRANCH  34  35
ENDBRANCH  32  34
ENDBRANCH  30  33
ENDBRANCH  20  30
ENDBRANCH  18  23
ENDBRANCH   1  19
BRANCH   3  40
ATOM     40  O   UNL     1      82.232  45.947  44.904  0.00  0.00    -0.503 OA
ATOM     41  H   UNL     1      81.468  45.851  44.369  0.00  0.00    +0.000 HD
ENDBRANCH   3  40
BRANCH  14  42
ATOM     42  O   UNL     1      88.153  41.560  42.771  0.00  0.00    -0.389 OA
ATOM     43  H   UNL     1      87.230  41.366  42.548  0.00  0.00    +0.000 HD
ENDBRANCH  14  42
BRANCH  13  44
ATOM     44  O   UNL     1      87.014  40.677  45.194  0.00  0.00    -0.389 OA
ATOM     45  H   UNL     1      86.624  40.204  44.442  0.00  0.00    +0.000 HD
ENDBRANCH  13  44
TORSDOF 12
ENDMDL
MODEL 3
REMARK VINA RESULT:    -6.657      1.740      2.989
REMARK INTER + INTRA:          -9.272
REMARK INTER:                  -8.736
REMARK INTRA:                  -0.536
REMARK UNBOUND:                 1.083
REMARK  Name = 
REMARK  18 active torsions:
REMARK  status: ('A' for Active; 'I' for Inactive)
REMARK    1  A    between atoms: C_1  and  C_2
REMARK    2  A    between atoms: C_2  and  C_35
REMARK    3  A    between atoms: C_3  and  C_4
REMARK    4  A    between atoms: C_4  and  C_5
REMARK    5  A    between atoms: C_6  and  O_7
REMARK    6  A    between atoms: C_9  and  C_13
REMARK    7  A    between atoms: C_11  and  O_12
REMARK    8  A    between atoms: C_14  and  C_15
REMARK    9  A    between atoms: C_17  and  O_18
REMARK   10  A    between atoms: C_24  and  C_26
REMARK   11  A    between atoms: C_28  and  O_34
REMARK   12  A    between atoms: C_29  and  O_33
REMARK   13  A    between atoms: C_30  and  C_31
REMARK   14  A    between atoms: C_30  and  C_32
REMARK   15  A    between atoms: C_35  and  C_36
REMARK   16  A    between atoms: C_36  and  C_37
REMARK   17  A    between atoms: C_38  and  C_39
REMARK   18  A    between atoms: C_38  and  C_40
REMARK                            x       y       z     vdW  Elec       q    Type
REMARK                         _______ _______ _______ _____ _____    ______ ____
ROOT
ATOM      1  C   UNL     1      84.243  52.095  50.064  0.00  0.00    -0.021 A 
ATOM      2  C   UNL     1      83.360  53.126  49.710  0.00  0.00    -0.009 A 
ATOM      3  C   UNL     1      83.333  53.625  48.400  0.00  0.00    +0.159 A 
ATOM      4  C   UNL     1      84.183  53.086  47.430  0.00  0.00    +0.166 A 
ATOM      5  C   UNL     1      85.036  52.015  47.755  0.00  0.00    -0.001 A 
ATOM      6  C   UNL     1      85.072  51.533  49.073  0.00  0.00    -0.048 A 
ATOM      7  C   UNL     1      85.940  51.410  46.708  0.00  0.00    -0.017 C 
ATOM      8  C   UNL     1      85.466  51.755  45.271  0.00  0.00    +0.010 C 
ATOM      9  C   UNL     1      85.143  53.281  45.138  0.00  0.00    +0.114 C 
ATOM     10  O   UNL     1      84.161  53.608  46.130  0.00  0.00    -0.482 OA
ATOM     11  C   UNL     1      86.364  54.194  45.409  0.00  0.00    -0.025 C 
ATOM     12  C   UNL     1      84.526  53.619  43.745  0.00  0.00    +0.016 C 
ATOM     13  C   UNL     1      84.651  52.500  42.688  0.00  0.00    +0.085 C 
ATOM     14  C   UNL     1      86.032  51.802  42.719  0.00  0.00    +0.087 C 
ATOM     15  C   UNL     1      86.340  51.121  44.110  0.00  0.00    +0.000 C 
ATOM     16  C   UNL     1      85.966  49.615  43.993  0.00  0.00    -0.057 C 
ATOM     17  C   UNL     1      87.862  51.164  44.418  0.00  0.00    -0.057 C 
ENDROOT
BRANCH   1  19
ATOM     18  C   UNL     1      83.130  51.272  52.133  0.00  0.00    -0.054 C 
ATOM     19  C   UNL     1      84.245  51.614  51.467  0.00  0.00    -0.054 C 
BRANCH  18  23
ATOM     20  C   UNL     1      83.249  49.692  56.147  0.00  0.00    +0.039 A 
ATOM     21  C   UNL     1      82.013  50.105  55.589  0.00  0.00    +0.124 A 
ATOM     22  C   UNL     1      81.969  50.614  54.286  0.00  0.00    -0.013 A 
ATOM     23  C   UNL     1      83.137  50.727  53.514  0.00  0.00    -0.018 A 
ATOM     24  C   UNL     1      84.349  50.282  54.054  0.00  0.00    -0.013 A 
ATOM     25  C   UNL     1      84.413  49.769  55.355  0.00  0.00    +0.124 A 
BRANCH  21  26
ATOM     26  O   UNL     1      80.806  50.017  56.289  0.00  0.00    -0.506 OA
ATOM     27  H   UNL     1      80.246  50.766  56.353  0.00  0.00    +0.000 HD
ENDBRANCH  21  26
BRANCH  25  28
ATOM     28  O   UNL     1      85.640  49.335  55.860  0.00  0.00    -0.506 OA
ATOM     29  H   UNL     1      85.665  48.772  56.608  0.00  0.00    +0.000 HD
ENDBRANCH  25  28
BRANCH  20  30
ATOM     30  C   UNL     1      83.331  49.123  57.547  0.00  0.00    -0.002 C 
BRANCH  30  33
ATOM     31  C   UNL     1      84.480  50.044  60.194  0.00  0.00    -0.044 C 
ATOM     32  C   UNL     1      83.109  50.445  59.709  0.00  0.00    -0.076 C 
ATOM     33  C   UNL     1      82.614  50.030  58.520  0.00  0.00    -0.080 C 
BRANCH  32  34
ATOM     34  C   UNL     1      82.265  51.360  60.573  0.00  0.00    -0.029 C 
BRANCH  34  35
ATOM     35  C   UNL     1      83.090  52.524  61.140  0.00  0.00    -0.031 C 
BRANCH  35  36
ATOM     36  C   UNL     1      82.733  53.833  60.477  0.00  0.00    -0.085 C 
ATOM     37  C   UNL     1      83.076  55.050  60.951  0.00  0.00    -0.080 C 
ATOM     38  C   UNL     1      82.705  56.266  60.142  0.00  0.00    -0.044 C 
ATOM     39  C   UNL     1      83.798  55.224  62.266  0.00  0.00    -0.044 C 
ENDBRANCH  35  36
ENDBRANCH  34  35
ENDBRANCH  32  34
ENDBRANCH  30  33
ENDBRANCH  20  30
ENDBRANCH  18  23
ENDBRANCH   1  19
BRANCH   3  40
ATOM     40  O   UNL     1      82.465  54.661  48.059  0.00  0.00    -0.503 OA
ATOM     41  H   UNL     1      81.669  54.475  47.601  0.00  0.00    +0.000 HD
ENDBRANCH   3  40
BRANCH  14  42
ATOM     42  O   UNL     1      87.078  52.640  42.272  0.00  0.00    -0.389 OA
ATOM     43  H   UNL     1      87.705  52.123  41.743  0.00  0.00    +0.000 HD
ENDBRANCH  14  42
BRANCH  13  44
ATOM     44  O   UNL     1      84.424  53.032  41.407  0.00  0.00    -0.389 OA
ATOM     45  H   UNL     1      83.685  52.563  40.989  0.00  0.00    +0.000 HD
ENDBRANCH  13  44
TORSDOF 12
ENDMDL
MODEL 4
REMARK VINA RESULT:    -6.237      7.855     11.793
REMARK INTER + INTRA:          -8.618
REMARK INTER:                  -6.560
REMARK INTRA:                  -2.059
REMARK UNBOUND:                 1.083
REMARK  Name = 
REMARK  18 active torsions:
REMARK  status: ('A' for Active; 'I' for Inactive)
REMARK    1  A    between atoms: C_1  and  C_2
REMARK    2  A    between atoms: C_2  and  C_35
REMARK    3  A    between atoms: C_3  and  C_4
REMARK    4  A    between atoms: C_4  and  C_5
REMARK    5  A    between atoms: C_6  and  O_7
REMARK    6  A    between atoms: C_9  and  C_13
REMARK    7  A    between atoms: C_11  and  O_12
REMARK    8  A    between atoms: C_14  and  C_15
REMARK    9  A    between atoms: C_17  and  O_18
REMARK   10  A    between atoms: C_24  and  C_26
REMARK   11  A    between atoms: C_28  and  O_34
REMARK   12  A    between atoms: C_29  and  O_33
REMARK   13  A    between atoms: C_30  and  C_31
REMARK   14  A    between atoms: C_30  and  C_32
REMARK   15  A    between atoms: C_35  and  C_36
REMARK   16  A    between atoms: C_36  and  C_37
REMARK   17  A    between atoms: C_38  and  C_39
REMARK   18  A    between atoms: C_38  and  C_40
REMARK                            x       y       z     vdW  Elec       q    Type
REMARK                         _______ _______ _______ _____ _____    ______ ____
ROOT
ATOM      1  C   UNL     1      87.776  49.538  42.389  0.00  0.00    -0.021 A 
ATOM      2  C   UNL     1      88.968  49.148  41.760  0.00  0.00    -0.009 A 
ATOM      3  C   UNL     1      89.358  47.802  41.742  0.00  0.00    +0.159 A 
ATOM      4  C   UNL     1      88.549  46.832  42.342  0.00  0.00    +0.166 A 
ATOM      5  C   UNL     1      87.324  47.200  42.929  0.00  0.00    -0.001 A 
ATOM      6  C   UNL     1      86.949  48.552  42.961  0.00  0.00    -0.048 A 
ATOM      7  C   UNL     1      86.432  46.157  43.557  0.00  0.00    -0.017 C 
ATOM      8  C   UNL     1      86.777  44.729  43.058  0.00  0.00    +0.010 C 
ATOM      9  C   UNL     1      88.320  44.473  43.113  0.00  0.00    +0.114 C 
ATOM     10  O   UNL     1      88.960  45.492  42.335  0.00  0.00    -0.482 OA
ATOM     11  C   UNL     1      88.910  44.573  44.541  0.00  0.00    -0.025 C 
ATOM     12  C   UNL     1      88.699  43.099  42.478  0.00  0.00    +0.016 C 
ATOM     13  C   UNL     1      87.509  42.146  42.228  0.00  0.00    +0.085 C 
ATOM     14  C   UNL     1      86.486  42.151  43.389  0.00  0.00    +0.087 C 
ATOM     15  C   UNL     1      85.856  43.577  43.641  0.00  0.00    +0.000 C 
ATOM     16  C   UNL     1      84.491  43.629  42.897  0.00  0.00    -0.057 C 
ATOM     17  C   UNL     1      85.533  43.777  45.148  0.00  0.00    -0.057 C 
ENDROOT
BRANCH   1  19
ATOM     18  C   UNL     1      86.158  51.426  42.533  0.00  0.00    -0.054 C 
ATOM     19  C   UNL     1      87.417  50.978  42.396  0.00  0.00    -0.054 C 
BRANCH  18  23
ATOM     20  C   UNL     1      85.038  55.588  42.728  0.00  0.00    +0.039 A 
ATOM     21  C   UNL     1      86.323  55.183  43.170  0.00  0.00    +0.124 A 
ATOM     22  C   UNL     1      86.692  53.835  43.104  0.00  0.00    -0.013 A 
ATOM     23  C   UNL     1      85.806  52.865  42.607  0.00  0.00    -0.018 A 
ATOM     24  C   UNL     1      84.553  53.275  42.136  0.00  0.00    -0.013 A 
ATOM     25  C   UNL     1      84.165  54.619  42.191  0.00  0.00    +0.124 A 
BRANCH  21  26
ATOM     26  O   UNL     1      87.264  56.087  43.670  0.00  0.00    -0.506 OA
ATOM     27  H   UNL     1      87.931  55.791  44.259  0.00  0.00    +0.000 HD
ENDBRANCH  21  26
BRANCH  25  28
ATOM     28  O   UNL     1      82.908  54.989  41.712  0.00  0.00    -0.506 OA
ATOM     29  H   UNL     1      82.514  54.506  41.012  0.00  0.00    +0.000 HD
ENDBRANCH  25  28
BRANCH  20  30
ATOM     30  C   UNL     1      84.610  57.039  42.770  0.00  0.00    -0.002 C 
BRANCH  30  33
ATOM     31  C   UNL     1      86.182  58.763  44.701  0.00  0.00    -0.044 C 
ATOM     32  C   UNL     1      84.839  58.165  45.039  0.00  0.00    -0.076 C 
ATOM     33  C   UNL     1      84.146  57.404  44.161  0.00  0.00    -0.080 C 
BRANCH  32  34
ATOM     34  C   UNL     1      84.234  58.445  46.400  0.00  0.00    -0.029 C 
BRANCH  34  35
ATOM     35  C   UNL     1      84.018  57.153  47.202  0.00  0.00    -0.031 C 
BRANCH  35  36
ATOM     36  C   UNL     1      85.266  56.305  47.236  0.00  0.00    -0.085 C 
ATOM     37  C   UNL     1      85.354  55.050  46.744  0.00  0.00    -0.080 C 
ATOM     38  C   UNL     1      86.688  54.351  46.790  0.00  0.00    -0.044 C 
ATOM     39  C   UNL     1      84.156  54.328  46.172  0.00  0.00    -0.044 C 
ENDBRANCH  35  36
ENDBRANCH  34  35
ENDBRANCH  32  34
ENDBRANCH  30  33
ENDBRANCH  20  30
ENDBRANCH  18  23
ENDBRANCH   1  19
BRANCH   3  40
ATOM     40  O   UNL     1      90.552  47.422  41.131  0.00  0.00    -0.503 OA
ATOM     41  H   UNL     1      90.815  47.823  40.325  0.00  0.00    +0.000 HD
ENDBRANCH   3  40
BRANCH  14  42
ATOM     42  O   UNL     1      86.995  41.557  44.567  0.00  0.00    -0.389 OA
ATOM     43  H   UNL     1      87.681  42.127  44.946  0.00  0.00    +0.000 HD
ENDBRANCH  14  42
BRANCH  13  44
ATOM     44  O   UNL     1      87.983  40.839  42.027  0.00  0.00    -0.389 OA
ATOM     45  H   UNL     1      87.278  40.295  41.643  0.00  0.00    +0.000 HD
ENDBRANCH  13  44
TORSDOF 12
ENDMDL
MODEL 5
REMARK VINA RESULT:    -6.151      7.211     11.403
REMARK INTER + INTRA:          -8.485
REMARK INTER:                  -7.397
REMARK INTRA:                  -1.087
REMARK UNBOUND:                 1.083
REMARK  Name = 
REMARK  18 active torsions:
REMARK  status: ('A' for Active; 'I' for Inactive)
REMARK    1  A    between atoms: C_1  and  C_2
REMARK    2  A    between atoms: C_2  and  C_35
REMARK    3  A    between atoms: C_3  and  C_4
REMARK    4  A    between atoms: C_4  and  C_5
REMARK    5  A    between atoms: C_6  and  O_7
REMARK    6  A    between atoms: C_9  and  C_13
REMARK    7  A    between atoms: C_11  and  O_12
REMARK    8  A    between atoms: C_14  and  C_15
REMARK    9  A    between atoms: C_17  and  O_18
REMARK   10  A    between atoms: C_24  and  C_26
REMARK   11  A    between atoms: C_28  and  O_34
REMARK   12  A    between atoms: C_29  and  O_33
REMARK   13  A    between atoms: C_30  and  C_31
REMARK   14  A    between atoms: C_30  and  C_32
REMARK   15  A    between atoms: C_35  and  C_36
REMARK   16  A    between atoms: C_36  and  C_37
REMARK   17  A    between atoms: C_38  and  C_39
REMARK   18  A    between atoms: C_38  and  C_40
REMARK                            x       y       z     vdW  Elec       q    Type
REMARK                         _______ _______ _______ _____ _____    ______ ____
ROOT
ATOM      1  C   UNL     1      86.404  51.666  42.680  0.00  0.00    -0.021 A 
ATOM      2  C   UNL     1      86.207  52.465  41.544  0.00  0.00    -0.009 A 
ATOM      3  C   UNL     1      85.686  53.761  41.664  0.00  0.00    +0.159 A 
ATOM      4  C   UNL     1      85.372  54.273  42.926  0.00  0.00    +0.166 A 
ATOM      5  C   UNL     1      85.615  53.505  44.080  0.00  0.00    -0.001 A 
ATOM      6  C   UNL     1      86.118  52.201  43.952  0.00  0.00    -0.048 A 
ATOM      7  C   UNL     1      85.301  54.058  45.449  0.00  0.00    -0.017 C 
ATOM      8  C   UNL     1      85.177  55.605  45.430  0.00  0.00    +0.010 C 
ATOM      9  C   UNL     1      84.271  56.080  44.244  0.00  0.00    +0.114 C 
ATOM     10  O   UNL     1      84.832  55.562  43.031  0.00  0.00    -0.482 OA
ATOM     11  C   UNL     1      82.822  55.543  44.324  0.00  0.00    -0.025 C 
ATOM     12  C   UNL     1      84.256  57.636  44.120  0.00  0.00    +0.016 C 
ATOM     13  C   UNL     1      84.839  58.392  45.333  0.00  0.00    +0.085 C 
ATOM     14  C   UNL     1      84.416  57.769  46.685  0.00  0.00    +0.087 C 
ATOM     15  C   UNL     1      84.890  56.270  46.840  0.00  0.00    +0.000 C 
ATOM     16  C   UNL     1      86.217  56.274  47.650  0.00  0.00    -0.057 C 
ATOM     17  C   UNL     1      83.871  55.457  47.685  0.00  0.00    -0.057 C 
ENDROOT
BRANCH   1  19
ATOM     18  C   UNL     1      88.096  49.874  43.040  0.00  0.00    -0.054 C 
ATOM     19  C   UNL     1      86.941  50.295  42.498  0.00  0.00    -0.054 C 
BRANCH  18  23
ATOM     20  C   UNL     1      89.491  45.814  42.608  0.00  0.00    +0.039 A 
ATOM     21  C   UNL     1      90.277  46.758  43.316  0.00  0.00    +0.124 A 
ATOM     22  C   UNL     1      89.826  48.074  43.463  0.00  0.00    -0.013 A 
ATOM     23  C   UNL     1      88.600  48.485  42.914  0.00  0.00    -0.018 A 
ATOM     24  C   UNL     1      87.809  47.541  42.249  0.00  0.00    -0.013 A 
ATOM     25  C   UNL     1      88.241  46.218  42.094  0.00  0.00    +0.124 A 
BRANCH  21  26
ATOM     26  O   UNL     1      91.504  46.426  43.898  0.00  0.00    -0.506 OA
ATOM     27  H   UNL     1      91.533  45.842  44.630  0.00  0.00    +0.000 HD
ENDBRANCH  21  26
BRANCH  25  28
ATOM     28  O   UNL     1      87.425  45.306  41.424  0.00  0.00    -0.506 OA
ATOM     29  H   UNL     1      87.721  44.427  41.286  0.00  0.00    +0.000 HD
ENDBRANCH  25  28
BRANCH  20  30
ATOM     30  C   UNL     1      89.940  44.378  42.443  0.00  0.00    -0.002 C 
BRANCH  30  33
ATOM     31  C   UNL     1      89.350  43.391  45.245  0.00  0.00    -0.044 C 
ATOM     32  C   UNL     1      88.539  42.980  44.041  0.00  0.00    -0.076 C 
ATOM     33  C   UNL     1      88.812  43.437  42.797  0.00  0.00    -0.080 C 
BRANCH  32  34
ATOM     34  C   UNL     1      87.366  42.040  44.234  0.00  0.00    -0.029 C 
BRANCH  34  35
ATOM     35  C   UNL     1      86.024  42.758  44.033  0.00  0.00    -0.031 C 
BRANCH  35  36
ATOM     36  C   UNL     1      86.084  44.191  44.504  0.00  0.00    -0.085 C 
ATOM     37  C   UNL     1      85.318  45.191  44.017  0.00  0.00    -0.080 C 
ATOM     38  C   UNL     1      85.443  46.559  44.635  0.00  0.00    -0.044 C 
ATOM     39  C   UNL     1      84.360  44.979  42.868  0.00  0.00    -0.044 C 
ENDBRANCH  35  36
ENDBRANCH  34  35
ENDBRANCH  32  34
ENDBRANCH  30  33
ENDBRANCH  20  30
ENDBRANCH  18  23
ENDBRANCH   1  19
BRANCH   3  40
ATOM     40  O   UNL     1      85.476  54.543  40.530  0.00  0.00    -0.503 OA
ATOM     41  H   UNL     1      85.308  55.461  40.617  0.00  0.00    +0.000 HD
ENDBRANCH   3  40
BRANCH  14  42
ATOM     42  O   UNL     1      83.041  57.944  46.961  0.00  0.00    -0.389 OA
ATOM     43  H   UNL     1      82.519  57.372  46.379  0.00  0.00    +0.000 HD
ENDBRANCH  14  42
BRANCH  13  44
ATOM     44  O   UNL     1      84.434  59.737  45.291  0.00  0.00    -0.389 OA
ATOM     45  H   UNL     1      84.469  60.057  44.376  0.00  0.00    +0.000 HD
ENDBRANCH  13  44
TORSDOF 12
ENDMDL
MODEL 6
REMARK VINA RESULT:    -5.897      2.317     12.816
REMARK INTER + INTRA:          -8.089
REMARK INTER:                  -6.197
REMARK INTRA:                  -1.892
REMARK UNBOUND:                 1.083
REMARK  Name = 
REMARK  18 active torsions:
REMARK  status: ('A' for Active; 'I' for Inactive)
REMARK    1  A    between atoms: C_1  and  C_2
REMARK    2  A    between atoms: C_2  and  C_35
REMARK    3  A    between atoms: C_3  and  C_4
REMARK    4  A    between atoms: C_4  and  C_5
REMARK    5  A    between atoms: C_6  and  O_7
REMARK    6  A    between atoms: C_9  and  C_13
REMARK    7  A    between atoms: C_11  and  O_12
REMARK    8  A    between atoms: C_14  and  C_15
REMARK    9  A    between atoms: C_17  and  O_18
REMARK   10  A    between atoms: C_24  and  C_26
REMARK   11  A    between atoms: C_28  and  O_34
REMARK   12  A    between atoms: C_29  and  O_33
REMARK   13  A    between atoms: C_30  and  C_31
REMARK   14  A    between atoms: C_30  and  C_32
REMARK   15  A    between atoms: C_35  and  C_36
REMARK   16  A    between atoms: C_36  and  C_37
REMARK   17  A    between atoms: C_38  and  C_39
REMARK   18  A    between atoms: C_38  and  C_40
REMARK                            x       y       z     vdW  Elec       q    Type
REMARK                         _______ _______ _______ _____ _____    ______ ____
ROOT
ATOM      1  C   UNL     1      82.968  51.489  50.922  0.00  0.00    -0.021 A 
ATOM      2  C   UNL     1      81.595  51.625  51.174  0.00  0.00    -0.009 A 
ATOM      3  C   UNL     1      81.066  51.314  52.435  0.00  0.00    +0.159 A 
ATOM      4  C   UNL     1      81.912  50.877  53.458  0.00  0.00    +0.166 A 
ATOM      5  C   UNL     1      83.299  50.787  53.238  0.00  0.00    -0.001 A 
ATOM      6  C   UNL     1      83.820  51.081  51.968  0.00  0.00    -0.048 A 
ATOM      7  C   UNL     1      84.224  50.339  54.344  0.00  0.00    -0.017 C 
ATOM      8  C   UNL     1      83.560  50.479  55.740  0.00  0.00    +0.010 C 
ATOM      9  C   UNL     1      82.113  49.882  55.735  0.00  0.00    +0.114 C 
ATOM     10  O   UNL     1      81.368  50.549  54.708  0.00  0.00    -0.482 OA
ATOM     11  C   UNL     1      82.071  48.371  55.399  0.00  0.00    -0.025 C 
ATOM     12  C   UNL     1      81.377  50.147  57.086  0.00  0.00    +0.016 C 
ATOM     13  C   UNL     1      82.284  50.630  58.238  0.00  0.00    +0.085 C 
ATOM     14  C   UNL     1      83.639  49.883  58.285  0.00  0.00    +0.087 C 
ATOM     15  C   UNL     1      84.483  50.068  56.962  0.00  0.00    +0.000 C 
ATOM     16  C   UNL     1      85.501  51.218  57.206  0.00  0.00    -0.057 C 
ATOM     17  C   UNL     1      85.329  48.798  56.669  0.00  0.00    -0.057 C 
ENDROOT
BRANCH   1  19
ATOM     18  C   UNL     1      83.868  53.045  49.198  0.00  0.00    -0.054 C 
ATOM     19  C   UNL     1      83.475  51.814  49.566  0.00  0.00    -0.054 C 
BRANCH  18  23
ATOM     20  C   UNL     1      85.454  53.898  45.277  0.00  0.00    +0.039 A 
ATOM     21  C   UNL     1      85.934  54.614  46.403  0.00  0.00    +0.124 A 
ATOM     22  C   UNL     1      85.426  54.337  47.677  0.00  0.00    -0.013 A 
ATOM     23  C   UNL     1      84.438  53.357  47.865  0.00  0.00    -0.018 A 
ATOM     24  C   UNL     1      83.994  52.626  46.757  0.00  0.00    -0.013 A 
ATOM     25  C   UNL     1      84.491  52.886  45.474  0.00  0.00    +0.124 A 
BRANCH  21  26
ATOM     26  O   UNL     1      86.921  55.599  46.300  0.00  0.00    -0.506 OA
ATOM     27  H   UNL     1      86.682  56.505  46.311  0.00  0.00    +0.000 HD
ENDBRANCH  21  26
BRANCH  25  28
ATOM     28  O   UNL     1      84.024  52.136  44.394  0.00  0.00    -0.506 OA
ATOM     29  H   UNL     1      83.158  52.279  44.065  0.00  0.00    +0.000 HD
ENDBRANCH  25  28
BRANCH  20  30
ATOM     30  C   UNL     1      85.991  54.160  43.887  0.00  0.00    -0.002 C 
BRANCH  30  33
ATOM     31  C   UNL     1      85.931  52.069  41.697  0.00  0.00    -0.044 C 
ATOM     32  C   UNL     1      87.114  52.267  42.613  0.00  0.00    -0.076 C 
ATOM     33  C   UNL     1      87.127  53.211  43.581  0.00  0.00    -0.080 C 
BRANCH  32  34
ATOM     34  C   UNL     1      88.337  51.391  42.429  0.00  0.00    -0.029 C 
BRANCH  34  35
ATOM     35  C   UNL     1      88.256  50.116  43.280  0.00  0.00    -0.031 C 
BRANCH  35  36
ATOM     36  C   UNL     1      88.063  50.435  44.742  0.00  0.00    -0.085 C 
ATOM     37  C   UNL     1      87.026  50.001  45.491  0.00  0.00    -0.080 C 
ATOM     38  C   UNL     1      87.004  50.347  46.958  0.00  0.00    -0.044 C 
ATOM     39  C   UNL     1      85.889  49.203  44.899  0.00  0.00    -0.044 C 
ENDBRANCH  35  36
ENDBRANCH  34  35
ENDBRANCH  32  34
ENDBRANCH  30  33
ENDBRANCH  20  30
ENDBRANCH  18  23
ENDBRANCH   1  19
BRANCH   3  40
ATOM     40  O   UNL     1      79.698  51.435  52.674  0.00  0.00    -0.503 OA
ATOM     41  H   UNL     1      79.373  52.146  53.192  0.00  0.00    +0.000 HD
ENDBRANCH   3  40
BRANCH  14  42
ATOM     42  O   UNL     1      83.504  48.530  58.669  0.00  0.00    -0.389 OA
ATOM     43  H   UNL     1      82.911  48.468  59.432  0.00  0.00    +0.000 HD
ENDBRANCH  14  42
BRANCH  13  44
ATOM     44  O   UNL     1      81.618  50.467  59.465  0.00  0.00    -0.389 OA
ATOM     45  H   UNL     1      82.260  50.515  60.190  0.00  0.00    +0.000 HD
ENDBRANCH  13  44
TORSDOF 12
ENDMDL
MODEL 7
REMARK VINA RESULT:    -5.735      2.152     13.164
REMARK INTER + INTRA:          -7.837
REMARK INTER:                  -6.228
REMARK INTRA:                  -1.609
REMARK UNBOUND:                 1.083
REMARK  Name = 
REMARK  18 active torsions:
REMARK  status: ('A' for Active; 'I' for Inactive)
REMARK    1  A    between atoms: C_1  and  C_2
REMARK    2  A    between atoms: C_2  and  C_35
REMARK    3  A    between atoms: C_3  and  C_4
REMARK    4  A    between atoms: C_4  and  C_5
REMARK    5  A    between atoms: C_6  and  O_7
REMARK    6  A    between atoms: C_9  and  C_13
REMARK    7  A    between atoms: C_11  and  O_12
REMARK    8  A    between atoms: C_14  and  C_15
REMARK    9  A    between atoms: C_17  and  O_18
REMARK   10  A    between atoms: C_24  and  C_26
REMARK   11  A    between atoms: C_28  and  O_34
REMARK   12  A    between atoms: C_29  and  O_33
REMARK   13  A    between atoms: C_30  and  C_31
REMARK   14  A    between atoms: C_30  and  C_32
REMARK   15  A    between atoms: C_35  and  C_36
REMARK   16  A    between atoms: C_36  and  C_37
REMARK   17  A    between atoms: C_38  and  C_39
REMARK   18  A    between atoms: C_38  and  C_40
REMARK                            x       y       z     vdW  Elec       q    Type
REMARK                         _______ _______ _______ _____ _____    ______ ____
ROOT
ATOM      1  C   UNL     1      83.000  51.529  50.891  0.00  0.00    -0.021 A 
ATOM      2  C   UNL     1      81.616  51.597  51.112  0.00  0.00    -0.009 A 
ATOM      3  C   UNL     1      81.074  51.256  52.359  0.00  0.00    +0.159 A 
ATOM      4  C   UNL     1      81.916  50.856  53.400  0.00  0.00    +0.166 A 
ATOM      5  C   UNL     1      83.311  50.834  53.212  0.00  0.00    -0.001 A 
ATOM      6  C   UNL     1      83.845  51.158  51.955  0.00  0.00    -0.048 A 
ATOM      7  C   UNL     1      84.230  50.427  54.338  0.00  0.00    -0.017 C 
ATOM      8  C   UNL     1      83.529  50.529  55.718  0.00  0.00    +0.010 C 
ATOM      9  C   UNL     1      82.112  49.863  55.679  0.00  0.00    +0.114 C 
ATOM     10  O   UNL     1      81.360  50.497  54.636  0.00  0.00    -0.482 OA
ATOM     11  C   UNL     1      82.152  48.353  55.337  0.00  0.00    -0.025 C 
ATOM     12  C   UNL     1      81.334  50.086  57.012  0.00  0.00    +0.016 C 
ATOM     13  C   UNL     1      82.190  50.608  58.187  0.00  0.00    +0.085 C 
ATOM     14  C   UNL     1      83.578  49.928  58.263  0.00  0.00    +0.087 C 
ATOM     15  C   UNL     1      84.442  50.158  56.960  0.00  0.00    +0.000 C 
ATOM     16  C   UNL     1      85.397  51.355  57.231  0.00  0.00    -0.057 C 
ATOM     17  C   UNL     1      85.355  48.932  56.683  0.00  0.00    -0.057 C 
ENDROOT
BRANCH   1  19
ATOM     18  C   UNL     1      84.060  53.079  49.256  0.00  0.00    -0.054 C 
ATOM     19  C   UNL     1      83.521  51.884  49.548  0.00  0.00    -0.054 C 
BRANCH  18  23
ATOM     20  C   UNL     1      85.743  54.144  45.428  0.00  0.00    +0.039 A 
ATOM     21  C   UNL     1      85.818  52.803  45.882  0.00  0.00    +0.124 A 
ATOM     22  C   UNL     1      85.269  52.452  47.120  0.00  0.00    -0.013 A 
ATOM     23  C   UNL     1      84.643  53.412  47.933  0.00  0.00    -0.018 A 
ATOM     24  C   UNL     1      84.537  54.726  47.464  0.00  0.00    -0.013 A 
ATOM     25  C   UNL     1      85.078  55.098  46.228  0.00  0.00    +0.124 A 
BRANCH  21  26
ATOM     26  O   UNL     1      86.417  51.789  45.130  0.00  0.00    -0.506 OA
ATOM     27  H   UNL     1      87.215  51.395  45.425  0.00  0.00    +0.000 HD
ENDBRANCH  21  26
BRANCH  25  28
ATOM     28  O   UNL     1      84.954  56.418  45.795  0.00  0.00    -0.506 OA
ATOM     29  H   UNL     1      84.407  56.620  45.060  0.00  0.00    +0.000 HD
ENDBRANCH  25  28
BRANCH  20  30
ATOM     30  C   UNL     1      86.312  54.557  44.088  0.00  0.00    -0.002 C 
BRANCH  30  33
ATOM     31  C   UNL     1      86.231  52.691  41.703  0.00  0.00    -0.044 C 
ATOM     32  C   UNL     1      85.176  53.738  41.965  0.00  0.00    -0.076 C 
ATOM     33  C   UNL     1      85.224  54.558  43.040  0.00  0.00    -0.080 C 
BRANCH  32  34
ATOM     34  C   UNL     1      84.012  53.861  41.002  0.00  0.00    -0.029 C 
BRANCH  34  35
ATOM     35  C   UNL     1      82.672  53.972  41.743  0.00  0.00    -0.031 C 
BRANCH  35  36
ATOM     36  C   UNL     1      81.900  52.676  41.693  0.00  0.00    -0.085 C 
ATOM     37  C   UNL     1      82.021  51.677  42.594  0.00  0.00    -0.080 C 
ATOM     38  C   UNL     1      81.132  50.468  42.450  0.00  0.00    -0.044 C 
ATOM     39  C   UNL     1      83.026  51.731  43.720  0.00  0.00    -0.044 C 
ENDBRANCH  35  36
ENDBRANCH  34  35
ENDBRANCH  32  34
ENDBRANCH  30  33
ENDBRANCH  20  30
ENDBRANCH  18  23
ENDBRANCH   1  19
BRANCH   3  40
ATOM     40  O   UNL     1      79.697  51.310  52.567  0.00  0.00    -0.503 OA
ATOM     41  H   UNL     1      79.222  50.528  52.772  0.00  0.00    +0.000 HD
ENDBRANCH   3  40
BRANCH  14  42
ATOM     42  O   UNL     1      83.500  48.568  58.639  0.00  0.00    -0.389 OA
ATOM     43  H   UNL     1      83.437  48.502  59.604  0.00  0.00    +0.000 HD
ENDBRANCH  14  42
BRANCH  13  44
ATOM     44  O   UNL     1      81.504  50.408  59.397  0.00  0.00    -0.389 OA
ATOM     45  H   UNL     1      82.041  50.746  60.132  0.00  0.00    +0.000 HD
ENDBRANCH  13  44
TORSDOF 12
ENDMDL
MODEL 8
REMARK VINA RESULT:    -5.646      6.972     11.273
REMARK INTER + INTRA:          -7.700
REMARK INTER:                  -7.004
REMARK INTRA:                  -0.696
REMARK UNBOUND:                 1.083
REMARK  Name = 
REMARK  18 active torsions:
REMARK  status: ('A' for Active; 'I' for Inactive)
REMARK    1  A    between atoms: C_1  and  C_2
REMARK    2  A    between atoms: C_2  and  C_35
REMARK    3  A    between atoms: C_3  and  C_4
REMARK    4  A    between atoms: C_4  and  C_5
REMARK    5  A    between atoms: C_6  and  O_7
REMARK    6  A    between atoms: C_9  and  C_13
REMARK    7  A    between atoms: C_11  and  O_12
REMARK    8  A    between atoms: C_14  and  C_15
REMARK    9  A    between atoms: C_17  and  O_18
REMARK   10  A    between atoms: C_24  and  C_26
REMARK   11  A    between atoms: C_28  and  O_34
REMARK   12  A    between atoms: C_29  and  O_33
REMARK   13  A    between atoms: C_30  and  C_31
REMARK   14  A    between atoms: C_30  and  C_32
REMARK   15  A    between atoms: C_35  and  C_36
REMARK   16  A    between atoms: C_36  and  C_37
REMARK   17  A    between atoms: C_38  and  C_39
REMARK   18  A    between atoms: C_38  and  C_40
REMARK                            x       y       z     vdW  Elec       q    Type
REMARK                         _______ _______ _______ _____ _____    ______ ____
ROOT
ATOM      1  C   UNL     1      86.700  51.247  45.995  0.00  0.00    -0.021 A 
ATOM      2  C   UNL     1      86.152  51.232  47.286  0.00  0.00    -0.009 A 
ATOM      3  C   UNL     1      85.624  52.401  47.852  0.00  0.00    +0.159 A 
ATOM      4  C   UNL     1      85.628  53.593  47.121  0.00  0.00    +0.166 A 
ATOM      5  C   UNL     1      86.123  53.613  45.804  0.00  0.00    -0.001 A 
ATOM      6  C   UNL     1      86.669  52.444  45.251  0.00  0.00    -0.048 A 
ATOM      7  C   UNL     1      86.109  54.889  44.999  0.00  0.00    -0.017 C 
ATOM      8  C   UNL     1      85.110  55.925  45.581  0.00  0.00    +0.010 C 
ATOM      9  C   UNL     1      85.283  56.062  47.131  0.00  0.00    +0.114 C 
ATOM     10  O   UNL     1      85.116  54.759  47.706  0.00  0.00    -0.482 OA
ATOM     11  C   UNL     1      86.689  56.552  47.552  0.00  0.00    -0.025 C 
ATOM     12  C   UNL     1      84.189  56.986  47.752  0.00  0.00    +0.016 C 
ATOM     13  C   UNL     1      83.384  57.819  46.732  0.00  0.00    +0.085 C 
ATOM     14  C   UNL     1      84.269  58.401  45.603  0.00  0.00    +0.087 C 
ATOM     15  C   UNL     1      85.004  57.280  44.766  0.00  0.00    +0.000 C 
ATOM     16  C   UNL     1      84.156  57.011  43.490  0.00  0.00    -0.057 C 
ATOM     17  C   UNL     1      86.385  57.786  44.267  0.00  0.00    -0.057 C 
ENDROOT
BRANCH   1  19
ATOM     18  C   UNL     1      87.830  49.896  44.235  0.00  0.00    -0.054 C 
ATOM     19  C   UNL     1      87.262  49.988  45.449  0.00  0.00    -0.054 C 
BRANCH  18  23
ATOM     20  C   UNL     1      89.562  46.271  42.659  0.00  0.00    +0.039 A 
ATOM     21  C   UNL     1      90.329  47.107  43.510  0.00  0.00    +0.124 A 
ATOM     22  C   UNL     1      89.770  48.281  44.027  0.00  0.00    -0.013 A 
ATOM     23  C   UNL     1      88.452  48.654  43.714  0.00  0.00    -0.018 A 
ATOM     24  C   UNL     1      87.686  47.806  42.905  0.00  0.00    -0.013 A 
ATOM     25  C   UNL     1      88.226  46.627  42.380  0.00  0.00    +0.124 A 
BRANCH  21  26
ATOM     26  O   UNL     1      91.644  46.803  43.875  0.00  0.00    -0.506 OA
ATOM     27  H   UNL     1      92.120  46.146  43.405  0.00  0.00    +0.000 HD
ENDBRANCH  21  26
BRANCH  25  28
ATOM     28  O   UNL     1      87.431  45.808  41.577  0.00  0.00    -0.506 OA
ATOM     29  H   UNL     1      87.129  44.984  41.904  0.00  0.00    +0.000 HD
ENDBRANCH  25  28
BRANCH  20  30
ATOM     30  C   UNL     1      90.130  44.987  42.094  0.00  0.00    -0.002 C 
BRANCH  30  33
ATOM     31  C   UNL     1      89.433  43.966  44.859  0.00  0.00    -0.044 C 
ATOM     32  C   UNL     1      88.872  43.364  43.594  0.00  0.00    -0.076 C 
ATOM     33  C   UNL     1      89.187  43.838  42.368  0.00  0.00    -0.080 C 
BRANCH  32  34
ATOM     34  C   UNL     1      87.904  42.203  43.704  0.00  0.00    -0.029 C 
BRANCH  34  35
ATOM     35  C   UNL     1      86.444  42.678  43.699  0.00  0.00    -0.031 C 
BRANCH  35  36
ATOM     36  C   UNL     1      86.301  44.040  44.333  0.00  0.00    -0.085 C 
ATOM     37  C   UNL     1      85.354  44.944  44.002  0.00  0.00    -0.080 C 
ATOM     38  C   UNL     1      85.295  46.239  44.771  0.00  0.00    -0.044 C 
ATOM     39  C   UNL     1      84.373  44.702  42.879  0.00  0.00    -0.044 C 
ENDBRANCH  35  36
ENDBRANCH  34  35
ENDBRANCH  32  34
ENDBRANCH  30  33
ENDBRANCH  20  30
ENDBRANCH  18  23
ENDBRANCH   1  19
BRANCH   3  40
ATOM     40  O   UNL     1      85.098  52.383  49.142  0.00  0.00    -0.503 OA
ATOM     41  H   UNL     1      84.745  51.590  49.495  0.00  0.00    +0.000 HD
ENDBRANCH   3  40
BRANCH  14  42
ATOM     42  O   UNL     1      85.146  59.410  46.063  0.00  0.00    -0.389 OA
ATOM     43  H   UNL     1      84.633  60.122  46.475  0.00  0.00    +0.000 HD
ENDBRANCH  14  42
BRANCH  13  44
ATOM     44  O   UNL     1      82.721  58.867  47.394  0.00  0.00    -0.389 OA
ATOM     45  H   UNL     1      83.376  59.468  47.784  0.00  0.00    +0.000 HD
ENDBRANCH  13  44
TORSDOF 12
ENDMDL
