MODEL 1
REMARK VINA RESULT:    -4.294      0.000      0.000
REMARK INTER + INTRA:          -5.848
REMARK INTER:                  -7.334
REMARK INTRA:                   1.486
REMARK UNBOUND:                 0.956
REMARK  Name = 
REMARK  19 active torsions:
REMARK  status: ('A' for Active; 'I' for Inactive)
REMARK    1  A    between atoms: C_1  and  O_2
REMARK    2  A    between atoms: O_2  and  C_3
REMARK    3  A    between atoms: C_5  and  C_6
REMARK    4  A    between atoms: C_7  and  C_8
REMARK    5  A    between atoms: C_10  and  O_11
REMARK    6  A    between atoms: C_12  and  C_16
REMARK    7  A    between atoms: C_13  and  O_15
REMARK    8  A    between atoms: C_16  and  C_17
REMARK    9  A    between atoms: C_18  and  C_19
REMARK   10  A    between atoms: C_18  and  C_25
REMARK   11  A    between atoms: C_19  and  C_20
REMARK   12  A    between atoms: C_20  and  C_21
REMARK   13  A    between atoms: C_22  and  C_23
REMARK   14  A    between atoms: C_22  and  C_24
REMARK   15  A    between atoms: C_30  and  C_31
REMARK   16  A    between atoms: C_33  and  O_34
REMARK   17  A    between atoms: C_35  and  O_41
REMARK   18  A    between atoms: C_36  and  C_39
REMARK   19  A    between atoms: C_36  and  C_40
REMARK                            x       y       z     vdW  Elec       q    Type
REMARK                         _______ _______ _______ _____ _____    ______ ____
ROOT
ATOM      1  C   UNL     1      84.473  54.459  45.314  0.00  0.00    +0.162 A 
ATOM      2  C   UNL     1      84.084  54.199  46.642  0.00  0.00    -0.009 A 
ATOM      3  C   UNL     1      84.635  53.116  47.354  0.00  0.00    -0.021 A 
ATOM      4  C   UNL     1      85.598  52.311  46.729  0.00  0.00    -0.048 A 
ATOM      5  C   UNL     1      85.982  52.548  45.403  0.00  0.00    -0.001 A 
ATOM      6  C   UNL     1      85.426  53.637  44.703  0.00  0.00    +0.166 A 
ATOM      7  O   UNL     1      85.813  53.900  43.381  0.00  0.00    -0.482 OA
ATOM      8  C   UNL     1      86.956  53.287  42.773  0.00  0.00    +0.114 C 
ATOM      9  C   UNL     1      88.184  54.107  43.242  0.00  0.00    -0.025 C 
ATOM     10  C   UNL     1      86.772  53.406  41.242  0.00  0.00    +0.016 C 
ATOM     11  C   UNL     1      87.742  52.541  40.414  0.00  0.00    +0.085 C 
ATOM     12  C   UNL     1      87.710  51.060  40.865  0.00  0.00    +0.087 C 
ATOM     13  C   UNL     1      87.930  50.824  42.401  0.00  0.00    +0.000 C 
ATOM     14  C   UNL     1      86.962  51.781  43.200  0.00  0.00    +0.010 C 
ATOM     15  C   UNL     1      87.008  51.654  44.747  0.00  0.00    -0.017 C 
ATOM     16  C   UNL     1      87.538  49.350  42.699  0.00  0.00    -0.057 C 
ATOM     17  C   UNL     1      89.424  50.970  42.801  0.00  0.00    -0.057 C 
ENDROOT
BRANCH   1  19
ATOM     18  C   UNL     1      84.469  56.849  44.570  0.00  0.00    +0.079 C 
ATOM     19  O   UNL     1      83.941  55.526  44.573  0.00  0.00    -0.491 OA
ENDBRANCH   1  19
BRANCH   3  20
ATOM     20  C   UNL     1      84.266  52.812  48.760  0.00  0.00    -0.054 C 
ATOM     21  C   UNL     1      83.604  51.703  49.131  0.00  0.00    -0.054 C 
BRANCH  21  22
ATOM     22  C   UNL     1      83.237  51.403  50.535  0.00  0.00    -0.018 A 
ATOM     23  C   UNL     1      81.888  51.478  50.907  0.00  0.00    -0.013 A 
ATOM     24  C   UNL     1      81.488  51.202  52.221  0.00  0.00    +0.124 A 
ATOM     25  C   UNL     1      82.445  50.841  53.189  0.00  0.00    +0.039 A 
ATOM     26  C   UNL     1      83.797  50.720  52.810  0.00  0.00    +0.124 A 
ATOM     27  C   UNL     1      84.186  51.005  51.494  0.00  0.00    -0.013 A 
BRANCH  24  28
ATOM     28  O   UNL     1      80.139  51.287  52.565  0.00  0.00    -0.506 OA
ATOM     29  H   UNL     1      79.481  51.234  51.899  0.00  0.00    +0.000 HD
ENDBRANCH  24  28
BRANCH  26  30
ATOM     30  O   UNL     1      84.752  50.309  53.740  0.00  0.00    -0.506 OA
ATOM     31  H   UNL     1      85.658  50.503  53.598  0.00  0.00    +0.000 HD
ENDBRANCH  26  30
BRANCH  25  32
ATOM     32  C   UNL     1      82.012  50.527  54.602  0.00  0.00    -0.002 C 
BRANCH  32  33
ATOM     33  C   UNL     1      83.142  49.862  55.349  0.00  0.00    -0.080 C 
ATOM     34  C   UNL     1      83.735  50.360  56.459  0.00  0.00    -0.076 C 
ATOM     35  C   UNL     1      83.324  51.680  57.066  0.00  0.00    -0.044 C 
BRANCH  34  36
ATOM     36  C   UNL     1      84.881  49.599  57.088  0.00  0.00    -0.029 C 
BRANCH  36  37
ATOM     37  C   UNL     1      86.037  49.454  56.093  0.00  0.00    -0.031 C 
BRANCH  37  38
ATOM     38  C   UNL     1      86.501  48.021  56.012  0.00  0.00    -0.085 C 
ATOM     39  C   UNL     1      85.870  47.054  55.311  0.00  0.00    -0.080 C 
ATOM     40  C   UNL     1      84.583  47.315  54.563  0.00  0.00    -0.044 C 
ATOM     41  C   UNL     1      86.466  45.669  55.301  0.00  0.00    -0.044 C 
ENDBRANCH  37  38
ENDBRANCH  36  37
ENDBRANCH  34  36
ENDBRANCH  32  33
ENDBRANCH  25  32
ENDBRANCH  21  22
ENDBRANCH   3  20
BRANCH  11  42
ATOM     42  O   UNL     1      89.045  53.061  40.450  0.00  0.00    -0.389 OA
ATOM     43  H   UNL     1      89.588  52.618  39.779  0.00  0.00    +0.000 HD
ENDBRANCH  11  42
BRANCH  12  44
ATOM     44  O   UNL     1      88.567  50.268  40.075  0.00  0.00    -0.389 OA
ATOM     45  H   UNL     1      88.352  50.395  39.138  0.00  0.00    +0.000 HD
ENDBRANCH  12  44
TORSDOF 12
ENDMDL
MODEL 2
REMARK VINA RESULT:    -4.274      4.546      9.986
REMARK INTER + INTRA:          -5.816
REMARK INTER:                  -5.951
REMARK INTRA:                   0.134
REMARK UNBOUND:                 0.956
REMARK  Name = 
REMARK  19 active torsions:
REMARK  status: ('A' for Active; 'I' for Inactive)
REMARK    1  A    between atoms: C_1  and  O_2
REMARK    2  A    between atoms: O_2  and  C_3
REMARK    3  A    between atoms: C_5  and  C_6
REMARK    4  A    between atoms: C_7  and  C_8
REMARK    5  A    between atoms: C_10  and  O_11
REMARK    6  A    between atoms: C_12  and  C_16
REMARK    7  A    between atoms: C_13  and  O_15
REMARK    8  A    between atoms: C_16  and  C_17
REMARK    9  A    between atoms: C_18  and  C_19
REMARK   10  A    between atoms: C_18  and  C_25
REMARK   11  A    between atoms: C_19  and  C_20
REMARK   12  A    between atoms: C_20  and  C_21
REMARK   13  A    between atoms: C_22  and  C_23
REMARK   14  A    between atoms: C_22  and  C_24
REMARK   15  A    between atoms: C_30  and  C_31
REMARK   16  A    between atoms: C_33  and  O_34
REMARK   17  A    between atoms: C_35  and  O_41
REMARK   18  A    between atoms: C_36  and  C_39
REMARK   19  A    between atoms: C_36  and  C_40
REMARK                            x       y       z     vdW  Elec       q    Type
REMARK                         _______ _______ _______ _____ _____    ______ ____
ROOT
ATOM      1  C   UNL     1      85.017  52.430  47.753  0.00  0.00    +0.162 A 
ATOM      2  C   UNL     1      85.191  51.159  47.172  0.00  0.00    -0.009 A 
ATOM      3  C   UNL     1      85.461  51.029  45.796  0.00  0.00    -0.021 A 
ATOM      4  C   UNL     1      85.579  52.186  45.013  0.00  0.00    -0.048 A 
ATOM      5  C   UNL     1      85.392  53.456  45.575  0.00  0.00    -0.001 A 
ATOM      6  C   UNL     1      85.126  53.573  46.954  0.00  0.00    +0.166 A 
ATOM      7  O   UNL     1      84.955  54.837  47.536  0.00  0.00    -0.482 OA
ATOM      8  C   UNL     1      85.306  56.053  46.864  0.00  0.00    +0.114 C 
ATOM      9  C   UNL     1      86.832  56.226  47.059  0.00  0.00    -0.025 C 
ATOM     10  C   UNL     1      84.533  57.195  47.564  0.00  0.00    +0.016 C 
ATOM     11  C   UNL     1      84.540  58.532  46.798  0.00  0.00    +0.085 C 
ATOM     12  C   UNL     1      84.063  58.351  45.335  0.00  0.00    +0.087 C 
ATOM     13  C   UNL     1      84.815  57.242  44.519  0.00  0.00    +0.000 C 
ATOM     14  C   UNL     1      84.838  55.917  45.377  0.00  0.00    +0.010 C 
ATOM     15  C   UNL     1      85.506  54.687  44.706  0.00  0.00    -0.017 C 
ATOM     16  C   UNL     1      83.993  56.989  43.225  0.00  0.00    -0.057 C 
ATOM     17  C   UNL     1      86.222  57.713  44.061  0.00  0.00    -0.057 C 
ENDROOT
BRANCH   1  19
ATOM     18  C   UNL     1      83.678  51.955  49.815  0.00  0.00    +0.079 C 
ATOM     19  O   UNL     1      84.742  52.598  49.120  0.00  0.00    -0.491 OA
ENDBRANCH   1  19
BRANCH   3  20
ATOM     20  C   UNL     1      85.664  49.712  45.142  0.00  0.00    -0.054 C 
ATOM     21  C   UNL     1      84.748  49.122  44.357  0.00  0.00    -0.054 C 
BRANCH  21  22
ATOM     22  C   UNL     1      84.956  47.807  43.706  0.00  0.00    -0.018 A 
ATOM     23  C   UNL     1      86.047  47.651  42.840  0.00  0.00    -0.013 A 
ATOM     24  C   UNL     1      86.289  46.428  42.201  0.00  0.00    +0.124 A 
ATOM     25  C   UNL     1      85.434  45.333  42.426  0.00  0.00    +0.039 A 
ATOM     26  C   UNL     1      84.362  45.470  43.331  0.00  0.00    +0.124 A 
ATOM     27  C   UNL     1      84.125  46.700  43.959  0.00  0.00    -0.013 A 
BRANCH  24  28
ATOM     28  O   UNL     1      87.381  46.302  41.342  0.00  0.00    -0.506 OA
ATOM     29  H   UNL     1      88.251  46.278  41.690  0.00  0.00    +0.000 HD
ENDBRANCH  24  28
BRANCH  26  30
ATOM     30  O   UNL     1      83.537  44.380  43.611  0.00  0.00    -0.506 OA
ATOM     31  H   UNL     1      82.774  44.495  44.144  0.00  0.00    +0.000 HD
ENDBRANCH  26  30
BRANCH  25  32
ATOM     32  C   UNL     1      85.705  44.009  41.751  0.00  0.00    -0.002 C 
BRANCH  32  33
ATOM     33  C   UNL     1      87.168  43.659  41.874  0.00  0.00    -0.080 C 
ATOM     34  C   UNL     1      87.809  43.414  43.040  0.00  0.00    -0.076 C 
ATOM     35  C   UNL     1      87.107  43.487  44.375  0.00  0.00    -0.044 C 
BRANCH  34  36
ATOM     36  C   UNL     1      89.289  43.105  43.017  0.00  0.00    -0.029 C 
BRANCH  36  37
ATOM     37  C   UNL     1      90.102  44.351  43.389  0.00  0.00    -0.031 C 
BRANCH  37  38
ATOM     38  C   UNL     1      89.956  45.422  42.337  0.00  0.00    -0.085 C 
ATOM     39  C   UNL     1      90.471  46.667  42.440  0.00  0.00    -0.080 C 
ATOM     40  C   UNL     1      91.220  47.127  43.669  0.00  0.00    -0.044 C 
ATOM     41  C   UNL     1      90.267  47.625  41.294  0.00  0.00    -0.044 C 
ENDBRANCH  37  38
ENDBRANCH  36  37
ENDBRANCH  34  36
ENDBRANCH  32  33
ENDBRANCH  25  32
ENDBRANCH  21  22
ENDBRANCH   3  20
BRANCH  11  42
ATOM     42  O   UNL     1      85.800  59.146  46.855  0.00  0.00    -0.389 OA
ATOM     43  H   UNL     1      86.341  58.711  47.532  0.00  0.00    +0.000 HD
ENDBRANCH  11  42
BRANCH  12  44
ATOM     44  O   UNL     1      84.031  59.585  44.654  0.00  0.00    -0.389 OA
ATOM     45  H   UNL     1      83.488  59.499  43.855  0.00  0.00    +0.000 HD
ENDBRANCH  12  44
TORSDOF 12
ENDMDL
MODEL 3
REMARK VINA RESULT:    -4.164      6.856      9.948
REMARK INTER + INTRA:          -5.641
REMARK INTER:                  -6.265
REMARK INTRA:                   0.623
REMARK UNBOUND:                 0.956
REMARK  Name = 
REMARK  19 active torsions:
REMARK  status: ('A' for Active; 'I' for Inactive)
REMARK    1  A    between atoms: C_1  and  O_2
REMARK    2  A    between atoms: O_2  and  C_3
REMARK    3  A    between atoms: C_5  and  C_6
REMARK    4  A    between atoms: C_7  and  C_8
REMARK    5  A    between atoms: C_10  and  O_11
REMARK    6  A    between atoms: C_12  and  C_16
REMARK    7  A    between atoms: C_13  and  O_15
REMARK    8  A    between atoms: C_16  and  C_17
REMARK    9  A    between atoms: C_18  and  C_19
REMARK   10  A    between atoms: C_18  and  C_25
REMARK   11  A    between atoms: C_19  and  C_20
REMARK   12  A    between atoms: C_20  and  C_21
REMARK   13  A    between atoms: C_22  and  C_23
REMARK   14  A    between atoms: C_22  and  C_24
REMARK   15  A    between atoms: C_30  and  C_31
REMARK   16  A    between atoms: C_33  and  O_34
REMARK   17  A    between atoms: C_35  and  O_41
REMARK   18  A    between atoms: C_36  and  C_39
REMARK   19  A    between atoms: C_36  and  C_40
REMARK                            x       y       z     vdW  Elec       q    Type
REMARK                         _______ _______ _______ _____ _____    ______ ____
ROOT
ATOM      1  C   UNL     1      85.258  54.027  41.202  0.00  0.00    +0.162 A 
ATOM      2  C   UNL     1      85.334  52.628  41.057  0.00  0.00    -0.009 A 
ATOM      3  C   UNL     1      85.315  51.786  42.186  0.00  0.00    -0.021 A 
ATOM      4  C   UNL     1      85.197  52.360  43.461  0.00  0.00    -0.048 A 
ATOM      5  C   UNL     1      85.137  53.751  43.620  0.00  0.00    -0.001 A 
ATOM      6  C   UNL     1      85.152  54.582  42.482  0.00  0.00    +0.166 A 
ATOM      7  O   UNL     1      85.074  55.975  42.623  0.00  0.00    -0.482 OA
ATOM      8  C   UNL     1      84.702  56.609  43.852  0.00  0.00    +0.114 C 
ATOM      9  C   UNL     1      83.155  56.568  43.905  0.00  0.00    -0.025 C 
ATOM     10  C   UNL     1      85.208  58.068  43.778  0.00  0.00    +0.016 C 
ATOM     11  C   UNL     1      85.174  58.823  45.121  0.00  0.00    +0.085 C 
ATOM     12  C   UNL     1      85.907  58.035  46.235  0.00  0.00    +0.087 C 
ATOM     13  C   UNL     1      85.438  56.550  46.423  0.00  0.00    +0.000 C 
ATOM     14  C   UNL     1      85.426  55.844  45.010  0.00  0.00    +0.010 C 
ATOM     15  C   UNL     1      85.027  54.344  45.005  0.00  0.00    -0.017 C 
ATOM     16  C   UNL     1      86.489  55.847  47.326  0.00  0.00    -0.057 C 
ATOM     17  C   UNL     1      84.083  56.461  47.176  0.00  0.00    -0.057 C 
ENDROOT
BRANCH   1  19
ATOM     18  C   UNL     1      84.182  55.102  39.214  0.00  0.00    +0.079 C 
ATOM     19  O   UNL     1      85.278  54.896  40.099  0.00  0.00    -0.491 OA
ENDBRANCH   1  19
BRANCH   3  20
ATOM     20  C   UNL     1      85.380  50.307  42.082  0.00  0.00    -0.054 C 
ATOM     21  C   UNL     1      84.870  49.473  43.004  0.00  0.00    -0.054 C 
BRANCH  21  22
ATOM     22  C   UNL     1      84.937  47.997  42.895  0.00  0.00    -0.018 A 
ATOM     23  C   UNL     1      85.987  47.424  42.165  0.00  0.00    -0.013 A 
ATOM     24  C   UNL     1      86.097  46.034  42.033  0.00  0.00    +0.124 A 
ATOM     25  C   UNL     1      85.147  45.190  42.641  0.00  0.00    +0.039 A 
ATOM     26  C   UNL     1      84.116  45.758  43.414  0.00  0.00    +0.124 A 
ATOM     27  C   UNL     1      84.011  47.151  43.533  0.00  0.00    -0.013 A 
BRANCH  24  28
ATOM     28  O   UNL     1      87.150  45.490  41.298  0.00  0.00    -0.506 OA
ATOM     29  H   UNL     1      87.981  45.343  41.708  0.00  0.00    +0.000 HD
ENDBRANCH  24  28
BRANCH  26  30
ATOM     30  O   UNL     1      83.198  44.938  44.071  0.00  0.00    -0.506 OA
ATOM     31  H   UNL     1      83.258  44.816  44.998  0.00  0.00    +0.000 HD
ENDBRANCH  26  30
BRANCH  25  32
ATOM     32  C   UNL     1      85.275  43.690  42.513  0.00  0.00    -0.002 C 
BRANCH  32  33
ATOM     33  C   UNL     1      86.732  43.304  42.427  0.00  0.00    -0.080 C 
ATOM     34  C   UNL     1      87.645  43.505  43.405  0.00  0.00    -0.076 C 
ATOM     35  C   UNL     1      87.289  44.173  44.712  0.00  0.00    -0.044 C 
BRANCH  34  36
ATOM     36  C   UNL     1      89.081  43.096  43.170  0.00  0.00    -0.029 C 
BRANCH  36  37
ATOM     37  C   UNL     1      90.022  44.284  43.403  0.00  0.00    -0.031 C 
BRANCH  37  38
ATOM     38  C   UNL     1      89.764  45.379  42.398  0.00  0.00    -0.085 C 
ATOM     39  C   UNL     1      90.320  46.609  42.451  0.00  0.00    -0.080 C 
ATOM     40  C   UNL     1      91.239  47.026  43.576  0.00  0.00    -0.044 C 
ATOM     41  C   UNL     1      89.989  47.595  41.360  0.00  0.00    -0.044 C 
ENDBRANCH  37  38
ENDBRANCH  36  37
ENDBRANCH  34  36
ENDBRANCH  32  33
ENDBRANCH  25  32
ENDBRANCH  21  22
ENDBRANCH   3  20
BRANCH  11  42
ATOM     42  O   UNL     1      83.859  59.139  45.496  0.00  0.00    -0.389 OA
ATOM     43  H   UNL     1      83.615  58.625  46.281  0.00  0.00    +0.000 HD
ENDBRANCH  11  42
BRANCH  12  44
ATOM     44  O   UNL     1      85.909  58.751  47.449  0.00  0.00    -0.389 OA
ATOM     45  H   UNL     1      85.457  59.600  47.324  0.00  0.00    +0.000 HD
ENDBRANCH  12  44
TORSDOF 12
ENDMDL
MODEL 4
REMARK VINA RESULT:    -2.648      1.815      3.419
REMARK INTER + INTRA:          -3.240
REMARK INTER:                  -3.917
REMARK INTRA:                   0.677
REMARK UNBOUND:                 0.956
REMARK  Name = 
REMARK  19 active torsions:
REMARK  status: ('A' for Active; 'I' for Inactive)
REMARK    1  A    between atoms: C_1  and  O_2
REMARK    2  A    between atoms: O_2  and  C_3
REMARK    3  A    between atoms: C_5  and  C_6
REMARK    4  A    between atoms: C_7  and  C_8
REMARK    5  A    between atoms: C_10  and  O_11
REMARK    6  A    between atoms: C_12  and  C_16
REMARK    7  A    between atoms: C_13  and  O_15
REMARK    8  A    between atoms: C_16  and  C_17
REMARK    9  A    between atoms: C_18  and  C_19
REMARK   10  A    between atoms: C_18  and  C_25
REMARK   11  A    between atoms: C_19  and  C_20
REMARK   12  A    between atoms: C_20  and  C_21
REMARK   13  A    between atoms: C_22  and  C_23
REMARK   14  A    between atoms: C_22  and  C_24
REMARK   15  A    between atoms: C_30  and  C_31
REMARK   16  A    between atoms: C_33  and  O_34
REMARK   17  A    between atoms: C_35  and  O_41
REMARK   18  A    between atoms: C_36  and  C_39
REMARK   19  A    between atoms: C_36  and  C_40
REMARK                            x       y       z     vdW  Elec       q    Type
REMARK                         _______ _______ _______ _____ _____    ______ ____
ROOT
ATOM      1  C   UNL     1      87.061  51.402  45.458  0.00  0.00    +0.162 A 
ATOM      2  C   UNL     1      86.734  51.205  46.814  0.00  0.00    -0.009 A 
ATOM      3  C   UNL     1      85.557  51.757  47.357  0.00  0.00    -0.021 A 
ATOM      4  C   UNL     1      84.700  52.489  46.521  0.00  0.00    -0.048 A 
ATOM      5  C   UNL     1      85.023  52.706  45.175  0.00  0.00    -0.001 A 
ATOM      6  C   UNL     1      86.200  52.145  44.643  0.00  0.00    +0.166 A 
ATOM      7  O   UNL     1      86.528  52.337  43.293  0.00  0.00    -0.482 OA
ATOM      8  C   UNL     1      85.593  52.847  42.335  0.00  0.00    +0.114 C 
ATOM      9  C   UNL     1      84.723  51.642  41.900  0.00  0.00    -0.025 C 
ATOM     10  C   UNL     1      86.418  53.385  41.143  0.00  0.00    +0.016 C 
ATOM     11  C   UNL     1      85.615  54.246  40.149  0.00  0.00    +0.085 C 
ATOM     12  C   UNL     1      84.864  55.394  40.870  0.00  0.00    +0.087 C 
ATOM     13  C   UNL     1      83.961  54.950  42.074  0.00  0.00    +0.000 C 
ATOM     14  C   UNL     1      84.811  54.016  43.021  0.00  0.00    +0.010 C 
ATOM     15  C   UNL     1      84.091  53.513  44.301  0.00  0.00    -0.017 C 
ATOM     16  C   UNL     1      83.572  56.236  42.854  0.00  0.00    -0.057 C 
ATOM     17  C   UNL     1      82.631  54.307  41.594  0.00  0.00    -0.057 C 
ENDROOT
BRANCH   1  19
ATOM     18  C   UNL     1      88.315  49.585  44.277  0.00  0.00    +0.079 C 
ATOM     19  O   UNL     1      88.227  50.870  44.884  0.00  0.00    -0.491 OA
ENDBRANCH   1  19
BRANCH   3  20
ATOM     20  C   UNL     1      85.165  51.565  48.775  0.00  0.00    -0.054 C 
ATOM     21  C   UNL     1      83.893  51.425  49.183  0.00  0.00    -0.054 C 
BRANCH  21  22
ATOM     22  C   UNL     1      83.506  51.234  50.601  0.00  0.00    -0.018 A 
ATOM     23  C   UNL     1      82.158  51.385  50.955  0.00  0.00    -0.013 A 
ATOM     24  C   UNL     1      81.739  51.214  52.281  0.00  0.00    +0.124 A 
ATOM     25  C   UNL     1      82.675  50.881  53.279  0.00  0.00    +0.039 A 
ATOM     26  C   UNL     1      84.023  50.681  52.920  0.00  0.00    +0.124 A 
ATOM     27  C   UNL     1      84.432  50.863  51.592  0.00  0.00    -0.013 A 
BRANCH  24  28
ATOM     28  O   UNL     1      80.393  51.374  52.607  0.00  0.00    -0.506 OA
ATOM     29  H   UNL     1      79.850  51.939  52.093  0.00  0.00    +0.000 HD
ENDBRANCH  24  28
BRANCH  26  30
ATOM     30  O   UNL     1      84.956  50.296  53.884  0.00  0.00    -0.506 OA
ATOM     31  H   UNL     1      85.586  49.630  53.687  0.00  0.00    +0.000 HD
ENDBRANCH  26  30
BRANCH  25  32
ATOM     32  C   UNL     1      82.221  50.678  54.705  0.00  0.00    -0.002 C 
BRANCH  32  33
ATOM     33  C   UNL     1      83.111  49.668  55.389  0.00  0.00    -0.080 C 
ATOM     34  C   UNL     1      83.892  49.927  56.464  0.00  0.00    -0.076 C 
ATOM     35  C   UNL     1      83.966  51.297  57.092  0.00  0.00    -0.044 C 
BRANCH  34  36
ATOM     36  C   UNL     1      84.759  48.824  57.028  0.00  0.00    -0.029 C 
BRANCH  36  37
ATOM     37  C   UNL     1      85.501  48.097  55.901  0.00  0.00    -0.031 C 
BRANCH  37  38
ATOM     38  C   UNL     1      85.909  46.710  56.333  0.00  0.00    -0.085 C 
ATOM     39  C   UNL     1      86.658  45.869  55.587  0.00  0.00    -0.080 C 
ATOM     40  C   UNL     1      87.129  46.232  54.197  0.00  0.00    -0.044 C 
ATOM     41  C   UNL     1      87.011  44.520  56.160  0.00  0.00    -0.044 C 
ENDBRANCH  37  38
ENDBRANCH  36  37
ENDBRANCH  34  36
ENDBRANCH  32  33
ENDBRANCH  25  32
ENDBRANCH  21  22
ENDBRANCH   3  20
BRANCH  11  42
ATOM     42  O   UNL     1      84.739  53.461  39.385  0.00  0.00    -0.389 OA
ATOM     43  H   UNL     1      84.450  52.697  39.907  0.00  0.00    +0.000 HD
ENDBRANCH  11  42
BRANCH  12  44
ATOM     44  O   UNL     1      84.167  56.203  39.950  0.00  0.00    -0.389 OA
ATOM     45  H   UNL     1      84.337  55.888  39.049  0.00  0.00    +0.000 HD
ENDBRANCH  12  44
TORSDOF 12
ENDMDL
MODEL 5
REMARK VINA RESULT:    -1.939      5.893      9.579
REMARK INTER + INTRA:          -2.116
REMARK INTER:                  -1.932
REMARK INTRA:                  -0.184
REMARK UNBOUND:                 0.956
REMARK  Name = 
REMARK  19 active torsions:
REMARK  status: ('A' for Active; 'I' for Inactive)
REMARK    1  A    between atoms: C_1  and  O_2
REMARK    2  A    between atoms: O_2  and  C_3
REMARK    3  A    between atoms: C_5  and  C_6
REMARK    4  A    between atoms: C_7  and  C_8
REMARK    5  A    between atoms: C_10  and  O_11
REMARK    6  A    between atoms: C_12  and  C_16
REMARK    7  A    between atoms: C_13  and  O_15
REMARK    8  A    between atoms: C_16  and  C_17
REMARK    9  A    between atoms: C_18  and  C_19
REMARK   10  A    between atoms: C_18  and  C_25
REMARK   11  A    between atoms: C_19  and  C_20
REMARK   12  A    between atoms: C_20  and  C_21
REMARK   13  A    between atoms: C_22  and  C_23
REMARK   14  A    between atoms: C_22  and  C_24
REMARK   15  A    between atoms: C_30  and  C_31
REMARK   16  A    between atoms: C_33  and  O_34
REMARK   17  A    between atoms: C_35  and  O_41
REMARK   18  A    between atoms: C_36  and  C_39
REMARK   19  A    between atoms: C_36  and  C_40
REMARK                            x       y       z     vdW  Elec       q    Type
REMARK                         _______ _______ _______ _____ _____    ______ ____
ROOT
ATOM      1  C   UNL     1      89.152  49.369  41.694  0.00  0.00    +0.162 A 
ATOM      2  C   UNL     1      88.970  50.745  41.935  0.00  0.00    -0.009 A 
ATOM      3  C   UNL     1      87.820  51.212  42.600  0.00  0.00    -0.021 A 
ATOM      4  C   UNL     1      86.865  50.284  43.042  0.00  0.00    -0.048 A 
ATOM      5  C   UNL     1      87.027  48.915  42.794  0.00  0.00    -0.001 A 
ATOM      6  C   UNL     1      88.183  48.459  42.132  0.00  0.00    +0.166 A 
ATOM      7  O   UNL     1      88.370  47.090  41.893  0.00  0.00    -0.482 OA
ATOM      8  C   UNL     1      87.578  46.080  42.527  0.00  0.00    +0.114 C 
ATOM      9  C   UNL     1      88.196  45.867  43.931  0.00  0.00    -0.025 C 
ATOM     10  C   UNL     1      87.711  44.799  41.671  0.00  0.00    +0.016 C 
ATOM     11  C   UNL     1      86.695  43.692  42.018  0.00  0.00    +0.085 C 
ATOM     12  C   UNL     1      85.242  44.228  41.996  0.00  0.00    +0.087 C 
ATOM     13  C   UNL     1      84.987  45.506  42.869  0.00  0.00    +0.000 C 
ATOM     14  C   UNL     1      86.094  46.578  42.525  0.00  0.00    +0.010 C 
ATOM     15  C   UNL     1      85.975  47.937  43.266  0.00  0.00    -0.017 C 
ATOM     16  C   UNL     1      83.597  46.070  42.463  0.00  0.00    -0.057 C 
ATOM     17  C   UNL     1      84.898  45.166  44.382  0.00  0.00    -0.057 C 
ENDROOT
BRANCH   1  19
ATOM     18  C   UNL     1      91.596  48.835  41.584  0.00  0.00    +0.079 C 
ATOM     19  O   UNL     1      90.284  48.869  41.031  0.00  0.00    -0.491 OA
ENDBRANCH   1  19
BRANCH   3  20
ATOM     20  C   UNL     1      87.590  52.650  42.887  0.00  0.00    -0.054 C 
ATOM     21  C   UNL     1      86.375  53.221  42.901  0.00  0.00    -0.054 C 
BRANCH  21  22
ATOM     22  C   UNL     1      86.151  54.658  43.188  0.00  0.00    -0.018 A 
ATOM     23  C   UNL     1      84.854  55.175  43.058  0.00  0.00    -0.013 A 
ATOM     24  C   UNL     1      84.589  56.525  43.319  0.00  0.00    +0.124 A 
ATOM     25  C   UNL     1      85.629  57.384  43.723  0.00  0.00    +0.039 A 
ATOM     26  C   UNL     1      86.925  56.860  43.900  0.00  0.00    +0.124 A 
ATOM     27  C   UNL     1      87.181  55.509  43.629  0.00  0.00    -0.013 A 
BRANCH  24  28
ATOM     28  O   UNL     1      83.290  57.014  43.179  0.00  0.00    -0.506 OA
ATOM     29  H   UNL     1      82.651  56.845  43.844  0.00  0.00    +0.000 HD
ENDBRANCH  24  28
BRANCH  26  30
ATOM     30  O   UNL     1      87.958  57.682  44.353  0.00  0.00    -0.506 OA
ATOM     31  H   UNL     1      88.104  57.786  45.274  0.00  0.00    +0.000 HD
ENDBRANCH  26  30
BRANCH  25  32
ATOM     32  C   UNL     1      85.340  58.836  44.022  0.00  0.00    -0.002 C 
BRANCH  32  33
ATOM     33  C   UNL     1      84.301  58.939  45.112  0.00  0.00    -0.080 C 
ATOM     34  C   UNL     1      84.441  58.443  46.364  0.00  0.00    -0.076 C 
ATOM     35  C   UNL     1      85.680  57.699  46.800  0.00  0.00    -0.044 C 
BRANCH  34  36
ATOM     36  C   UNL     1      83.302  58.592  47.348  0.00  0.00    -0.029 C 
BRANCH  36  37
ATOM     37  C   UNL     1      82.606  57.244  47.568  0.00  0.00    -0.031 C 
BRANCH  37  38
ATOM     38  C   UNL     1      83.287  56.152  46.781  0.00  0.00    -0.085 C 
ATOM     39  C   UNL     1      83.823  55.038  47.327  0.00  0.00    -0.080 C 
ATOM     40  C   UNL     1      83.831  54.801  48.820  0.00  0.00    -0.044 C 
ATOM     41  C   UNL     1      84.449  54.018  46.411  0.00  0.00    -0.044 C 
ENDBRANCH  37  38
ENDBRANCH  36  37
ENDBRANCH  34  36
ENDBRANCH  32  33
ENDBRANCH  25  32
ENDBRANCH  21  22
ENDBRANCH   3  20
BRANCH  11  42
ATOM     42  O   UNL     1      87.001  43.086  43.245  0.00  0.00    -0.389 OA
ATOM     43  H   UNL     1      86.179  42.867  43.711  0.00  0.00    +0.000 HD
ENDBRANCH  11  42
BRANCH  12  44
ATOM     44  O   UNL     1      84.317  43.201  42.271  0.00  0.00    -0.389 OA
ATOM     45  H   UNL     1      84.786  42.427  42.618  0.00  0.00    +0.000 HD
ENDBRANCH  12  44
TORSDOF 12
ENDMDL
