MODEL 1
REMARK VINA RESULT:    -9.996      0.000      0.000
REMARK INTER + INTRA:         -14.558
REMARK INTER:                 -13.220
REMARK INTRA:                  -1.338
REMARK UNBOUND:                -0.764
REMARK  Name = 
REMARK  13 active torsions:
REMARK  status: ('A' for Active; 'I' for Inactive)
REMARK    1  A    between atoms: C_1  and  C_2
REMARK    2  A    between atoms: C_2  and  C_3
REMARK    3  A    between atoms: C_3  and  C_4
REMARK    4  A    between atoms: C_3  and  C_7
REMARK    5  A    between atoms: C_4  and  C_5
REMARK    6  A    between atoms: C_4  and  C_6
REMARK    7  A    between atoms: C_7  and  C_8
REMARK    8  A    between atoms: C_8  and  C_9
REMARK    9  A    between atoms: C_9  and  C_10
REMARK   10  A    between atoms: C_9  and  C_30
REMARK   11  A    between atoms: C_14  and  C_15
REMARK   12  A    between atoms: C_23  and  C_24
REMARK   13  A    between atoms: C_27  and  O_29
REMARK                            x       y       z     vdW  Elec       q    Type
REMARK                         _______ _______ _______ _____ _____    ______ ____
ROOT
ATOM      1  C   UNL     1      89.394  49.406  42.890  0.00  0.00    -0.033 C 
ATOM      2  C   UNL     1      89.351  49.980  41.446  0.00  0.00    -0.049 C 
ATOM      3  C   UNL     1      88.445  51.218  41.476  0.00  0.00    -0.049 C 
ATOM      4  C   UNL     1      88.168  51.436  42.953  0.00  0.00    -0.032 C 
ATOM      5  C   UNL     1      88.133  50.025  43.566  0.00  0.00    -0.026 C 
ATOM      6  C   UNL     1      86.850  49.221  43.181  0.00  0.00    -0.059 C 
ATOM      7  C   UNL     1      88.221  50.210  45.103  0.00  0.00    -0.047 C 
ATOM      8  C   UNL     1      87.068  51.094  45.635  0.00  0.00    -0.049 C 
ATOM      9  C   UNL     1      86.944  52.468  44.901  0.00  0.00    -0.029 C 
ATOM     10  C   UNL     1      86.964  52.318  43.350  0.00  0.00    -0.031 C 
ATOM     11  C   UNL     1      87.087  53.709  42.707  0.00  0.00    -0.031 C 
ATOM     12  C   UNL     1      86.118  54.703  43.278  0.00  0.00    -0.084 C 
ATOM     13  C   UNL     1      85.604  54.618  44.525  0.00  0.00    -0.065 C 
ATOM     14  C   UNL     1      85.723  53.345  45.381  0.00  0.00    -0.008 C 
ATOM     15  C   UNL     1      84.386  52.562  45.272  0.00  0.00    -0.056 C 
ATOM     16  C   UNL     1      85.954  53.765  46.868  0.00  0.00    -0.041 C 
ATOM     17  C   UNL     1      84.984  54.850  47.362  0.00  0.00    -0.026 C 
ATOM     18  C   UNL     1      85.064  56.101  46.481  0.00  0.00    +0.059 C 
ATOM     19  C   UNL     1      84.732  55.756  45.024  0.00  0.00    -0.005 C 
ENDROOT
BRANCH   1  20
ATOM     20  C   UNL     1      89.559  47.847  42.904  0.00  0.00    -0.041 C 
ATOM     21  C   UNL     1      90.999  47.409  43.228  0.00  0.00    -0.062 C 
BRANCH  20  22
ATOM     22  C   UNL     1      89.086  47.178  41.580  0.00  0.00    -0.050 C 
BRANCH  22  23
ATOM     23  C   UNL     1      87.822  46.299  41.726  0.00  0.00    -0.050 C 
BRANCH  23  24
ATOM     24  C   UNL     1      87.851  45.428  43.014  0.00  0.00    -0.039 C 
BRANCH  24  25
ATOM     25  C   UNL     1      86.431  44.874  43.392  0.00  0.00    -0.044 C 
ATOM     26  C   UNL     1      85.592  44.479  42.158  0.00  0.00    -0.062 C 
ATOM     27  C   UNL     1      85.625  45.899  44.215  0.00  0.00    -0.062 C 
ENDBRANCH  24  25
BRANCH  24  29
ATOM     28  C   UNL     1      88.659  43.138  43.850  0.00  0.00    -0.065 C 
ATOM     29  C   UNL     1      88.883  44.267  42.842  0.00  0.00    -0.053 C 
ENDBRANCH  24  29
ENDBRANCH  23  24
ENDBRANCH  22  23
ENDBRANCH  20  22
ENDBRANCH   1  20
BRANCH  18  30
ATOM     30  O   UNL     1      84.159  57.059  46.964  0.00  0.00    -0.391 OA
ATOM     31  H   UNL     1      83.253  56.775  46.769  0.00  0.00    +0.000 HD
ENDBRANCH  18  30
TORSDOF 7
ENDMDL
MODEL 2
REMARK VINA RESULT:    -9.099      1.530      3.834
REMARK INTER + INTRA:         -13.321
REMARK INTER:                 -12.376
REMARK INTRA:                  -0.945
REMARK UNBOUND:                -0.764
REMARK  Name = 
REMARK  13 active torsions:
REMARK  status: ('A' for Active; 'I' for Inactive)
REMARK    1  A    between atoms: C_1  and  C_2
REMARK    2  A    between atoms: C_2  and  C_3
REMARK    3  A    between atoms: C_3  and  C_4
REMARK    4  A    between atoms: C_3  and  C_7
REMARK    5  A    between atoms: C_4  and  C_5
REMARK    6  A    between atoms: C_4  and  C_6
REMARK    7  A    between atoms: C_7  and  C_8
REMARK    8  A    between atoms: C_8  and  C_9
REMARK    9  A    between atoms: C_9  and  C_10
REMARK   10  A    between atoms: C_9  and  C_30
REMARK   11  A    between atoms: C_14  and  C_15
REMARK   12  A    between atoms: C_23  and  C_24
REMARK   13  A    between atoms: C_27  and  O_29
REMARK                            x       y       z     vdW  Elec       q    Type
REMARK                         _______ _______ _______ _____ _____    ______ ____
ROOT
ATOM      1  C   UNL     1      85.519  49.398  44.266  0.00  0.00    -0.033 C 
ATOM      2  C   UNL     1      86.203  49.076  45.623  0.00  0.00    -0.049 C 
ATOM      3  C   UNL     1      86.474  50.413  46.326  0.00  0.00    -0.049 C 
ATOM      4  C   UNL     1      85.759  51.435  45.458  0.00  0.00    -0.032 C 
ATOM      5  C   UNL     1      85.880  50.896  44.022  0.00  0.00    -0.026 C 
ATOM      6  C   UNL     1      87.322  51.027  43.437  0.00  0.00    -0.059 C 
ATOM      7  C   UNL     1      84.867  51.696  43.164  0.00  0.00    -0.047 C 
ATOM      8  C   UNL     1      85.145  53.216  43.230  0.00  0.00    -0.049 C 
ATOM      9  C   UNL     1      85.226  53.775  44.687  0.00  0.00    -0.029 C 
ATOM     10  C   UNL     1      86.155  52.920  45.601  0.00  0.00    -0.031 C 
ATOM     11  C   UNL     1      85.992  53.378  47.059  0.00  0.00    -0.031 C 
ATOM     12  C   UNL     1      86.074  54.869  47.216  0.00  0.00    -0.084 C 
ATOM     13  C   UNL     1      85.767  55.744  46.233  0.00  0.00    -0.065 C 
ATOM     14  C   UNL     1      85.588  55.309  44.768  0.00  0.00    -0.008 C 
ATOM     15  C   UNL     1      86.905  55.621  44.006  0.00  0.00    -0.056 C 
ATOM     16  C   UNL     1      84.422  56.139  44.142  0.00  0.00    -0.041 C 
ATOM     17  C   UNL     1      84.520  57.648  44.415  0.00  0.00    -0.026 C 
ATOM     18  C   UNL     1      84.572  57.932  45.919  0.00  0.00    +0.059 C 
ATOM     19  C   UNL     1      85.773  57.226  46.561  0.00  0.00    -0.005 C 
ENDROOT
BRANCH   1  20
ATOM     20  C   UNL     1      85.882  48.352  43.155  0.00  0.00    -0.041 C 
ATOM     21  C   UNL     1      84.921  47.150  43.140  0.00  0.00    -0.062 C 
BRANCH  20  22
ATOM     22  C   UNL     1      87.355  47.855  43.253  0.00  0.00    -0.050 C 
BRANCH  22  23
ATOM     23  C   UNL     1      87.942  47.333  41.921  0.00  0.00    -0.050 C 
BRANCH  23  24
ATOM     24  C   UNL     1      89.494  47.419  41.885  0.00  0.00    -0.039 C 
BRANCH  24  25
ATOM     25  C   UNL     1      90.041  48.677  42.650  0.00  0.00    -0.044 C 
ATOM     26  C   UNL     1      90.465  49.819  41.701  0.00  0.00    -0.062 C 
ATOM     27  C   UNL     1      91.247  48.316  43.540  0.00  0.00    -0.062 C 
ENDBRANCH  24  25
BRANCH  24  29
ATOM     28  C   UNL     1      89.094  44.958  42.501  0.00  0.00    -0.065 C 
ATOM     29  C   UNL     1      90.110  46.101  42.456  0.00  0.00    -0.053 C 
ENDBRANCH  24  29
ENDBRANCH  23  24
ENDBRANCH  22  23
ENDBRANCH  20  22
ENDBRANCH   1  20
BRANCH  18  30
ATOM     30  O   UNL     1      84.668  59.318  46.120  0.00  0.00    -0.391 OA
ATOM     31  H   UNL     1      84.009  59.771  45.571  0.00  0.00    +0.000 HD
ENDBRANCH  18  30
TORSDOF 7
ENDMDL
MODEL 3
REMARK VINA RESULT:    -8.736      3.111      8.767
REMARK INTER + INTRA:         -12.820
REMARK INTER:                 -11.376
REMARK INTRA:                  -1.444
REMARK UNBOUND:                -0.764
REMARK  Name = 
REMARK  13 active torsions:
REMARK  status: ('A' for Active; 'I' for Inactive)
REMARK    1  A    between atoms: C_1  and  C_2
REMARK    2  A    between atoms: C_2  and  C_3
REMARK    3  A    between atoms: C_3  and  C_4
REMARK    4  A    between atoms: C_3  and  C_7
REMARK    5  A    between atoms: C_4  and  C_5
REMARK    6  A    between atoms: C_4  and  C_6
REMARK    7  A    between atoms: C_7  and  C_8
REMARK    8  A    between atoms: C_8  and  C_9
REMARK    9  A    between atoms: C_9  and  C_10
REMARK   10  A    between atoms: C_9  and  C_30
REMARK   11  A    between atoms: C_14  and  C_15
REMARK   12  A    between atoms: C_23  and  C_24
REMARK   13  A    between atoms: C_27  and  O_29
REMARK                            x       y       z     vdW  Elec       q    Type
REMARK                         _______ _______ _______ _____ _____    ______ ____
ROOT
ATOM      1  C   UNL     1      85.553  54.019  42.975  0.00  0.00    -0.033 C 
ATOM      2  C   UNL     1      87.051  54.128  42.574  0.00  0.00    -0.049 C 
ATOM      3  C   UNL     1      87.606  52.699  42.495  0.00  0.00    -0.049 C 
ATOM      4  C   UNL     1      86.377  51.819  42.647  0.00  0.00    -0.032 C 
ATOM      5  C   UNL     1      85.445  52.592  43.595  0.00  0.00    -0.026 C 
ATOM      6  C   UNL     1      85.942  52.595  45.076  0.00  0.00    -0.059 C 
ATOM      7  C   UNL     1      84.052  51.921  43.487  0.00  0.00    -0.047 C 
ATOM      8  C   UNL     1      84.117  50.418  43.848  0.00  0.00    -0.049 C 
ATOM      9  C   UNL     1      85.196  49.627  43.040  0.00  0.00    -0.029 C 
ATOM     10  C   UNL     1      86.581  50.340  43.041  0.00  0.00    -0.031 C 
ATOM     11  C   UNL     1      87.512  49.642  42.037  0.00  0.00    -0.031 C 
ATOM     12  C   UNL     1      87.519  48.149  42.188  0.00  0.00    -0.084 C 
ATOM     13  C   UNL     1      86.489  47.442  42.702  0.00  0.00    -0.065 C 
ATOM     14  C   UNL     1      85.326  48.110  43.456  0.00  0.00    -0.008 C 
ATOM     15  C   UNL     1      85.589  47.962  44.980  0.00  0.00    -0.056 C 
ATOM     16  C   UNL     1      84.002  47.368  43.087  0.00  0.00    -0.041 C 
ATOM     17  C   UNL     1      84.104  45.837  43.178  0.00  0.00    -0.026 C 
ATOM     18  C   UNL     1      85.229  45.308  42.283  0.00  0.00    +0.059 C 
ATOM     19  C   UNL     1      86.574  45.927  42.684  0.00  0.00    -0.005 C 
ENDROOT
BRANCH   1  20
ATOM     20  C   UNL     1      85.078  55.243  43.832  0.00  0.00    -0.041 C 
ATOM     21  C   UNL     1      84.165  56.198  43.041  0.00  0.00    -0.062 C 
BRANCH  20  22
ATOM     22  C   UNL     1      86.262  56.037  44.458  0.00  0.00    -0.050 C 
BRANCH  22  23
ATOM     23  C   UNL     1      86.123  56.300  45.976  0.00  0.00    -0.050 C 
BRANCH  23  24
ATOM     24  C   UNL     1      84.650  56.192  46.463  0.00  0.00    -0.039 C 
BRANCH  24  25
ATOM     25  C   UNL     1      84.518  55.357  47.786  0.00  0.00    -0.044 C 
ATOM     26  C   UNL     1      85.790  54.546  48.113  0.00  0.00    -0.062 C 
ATOM     27  C   UNL     1      83.326  54.381  47.722  0.00  0.00    -0.062 C 
ENDBRANCH  24  25
BRANCH  24  29
ATOM     28  C   UNL     1      84.801  58.675  45.823  0.00  0.00    -0.065 C 
ATOM     29  C   UNL     1      84.045  57.623  46.636  0.00  0.00    -0.053 C 
ENDBRANCH  24  29
ENDBRANCH  23  24
ENDBRANCH  22  23
ENDBRANCH  20  22
ENDBRANCH   1  20
BRANCH  18  30
ATOM     30  O   UNL     1      85.291  43.911  42.402  0.00  0.00    -0.391 OA
ATOM     31  H   UNL     1      86.066  43.579  41.923  0.00  0.00    +0.000 HD
ENDBRANCH  18  30
TORSDOF 7
ENDMDL
MODEL 4
REMARK VINA RESULT:    -8.350      1.555      3.485
REMARK INTER + INTRA:         -12.287
REMARK INTER:                 -12.468
REMARK INTRA:                   0.181
REMARK UNBOUND:                -0.764
REMARK  Name = 
REMARK  13 active torsions:
REMARK  status: ('A' for Active; 'I' for Inactive)
REMARK    1  A    between atoms: C_1  and  C_2
REMARK    2  A    between atoms: C_2  and  C_3
REMARK    3  A    between atoms: C_3  and  C_4
REMARK    4  A    between atoms: C_3  and  C_7
REMARK    5  A    between atoms: C_4  and  C_5
REMARK    6  A    between atoms: C_4  and  C_6
REMARK    7  A    between atoms: C_7  and  C_8
REMARK    8  A    between atoms: C_8  and  C_9
REMARK    9  A    between atoms: C_9  and  C_10
REMARK   10  A    between atoms: C_9  and  C_30
REMARK   11  A    between atoms: C_14  and  C_15
REMARK   12  A    between atoms: C_23  and  C_24
REMARK   13  A    between atoms: C_27  and  O_29
REMARK                            x       y       z     vdW  Elec       q    Type
REMARK                         _______ _______ _______ _____ _____    ______ ____
ROOT
ATOM      1  C   UNL     1      86.349  49.555  44.952  0.00  0.00    -0.033 C 
ATOM      2  C   UNL     1      86.866  49.477  46.416  0.00  0.00    -0.049 C 
ATOM      3  C   UNL     1      86.901  50.910  46.963  0.00  0.00    -0.049 C 
ATOM      4  C   UNL     1      86.216  51.732  45.885  0.00  0.00    -0.032 C 
ATOM      5  C   UNL     1      86.588  51.045  44.560  0.00  0.00    -0.026 C 
ATOM      6  C   UNL     1      88.078  51.273  44.148  0.00  0.00    -0.059 C 
ATOM      7  C   UNL     1      85.630  51.615  43.483  0.00  0.00    -0.047 C 
ATOM      8  C   UNL     1      85.743  53.154  43.380  0.00  0.00    -0.049 C 
ATOM      9  C   UNL     1      85.564  53.887  44.750  0.00  0.00    -0.029 C 
ATOM     10  C   UNL     1      86.437  53.260  45.878  0.00  0.00    -0.031 C 
ATOM     11  C   UNL     1      86.029  53.865  47.231  0.00  0.00    -0.031 C 
ATOM     12  C   UNL     1      85.939  55.363  47.197  0.00  0.00    -0.084 C 
ATOM     13  C   UNL     1      85.686  56.074  46.077  0.00  0.00    -0.065 C 
ATOM     14  C   UNL     1      85.756  55.451  44.671  0.00  0.00    -0.008 C 
ATOM     15  C   UNL     1      87.129  55.822  44.046  0.00  0.00    -0.056 C 
ATOM     16  C   UNL     1      84.612  56.059  43.800  0.00  0.00    -0.041 C 
ATOM     17  C   UNL     1      84.520  57.592  43.880  0.00  0.00    -0.026 C 
ATOM     18  C   UNL     1      84.334  58.055  45.328  0.00  0.00    +0.059 C 
ATOM     19  C   UNL     1      85.498  57.575  46.203  0.00  0.00    -0.005 C 
ENDROOT
BRANCH   1  20
ATOM     20  C   UNL     1      86.965  48.435  44.044  0.00  0.00    -0.041 C 
ATOM     21  C   UNL     1      87.844  49.006  42.917  0.00  0.00    -0.062 C 
BRANCH  20  22
ATOM     22  C   UNL     1      85.888  47.482  43.448  0.00  0.00    -0.050 C 
BRANCH  22  23
ATOM     23  C   UNL     1      86.123  45.983  43.751  0.00  0.00    -0.050 C 
BRANCH  23  24
ATOM     24  C   UNL     1      86.370  45.150  42.461  0.00  0.00    -0.039 C 
BRANCH  24  25
ATOM     25  C   UNL     1      87.760  44.420  42.479  0.00  0.00    -0.044 C 
ATOM     26  C   UNL     1      87.946  43.512  43.713  0.00  0.00    -0.062 C 
ATOM     27  C   UNL     1      88.927  45.428  42.441  0.00  0.00    -0.062 C 
ENDBRANCH  24  25
BRANCH  24  29
ATOM     28  C   UNL     1      84.058  44.355  43.251  0.00  0.00    -0.065 C 
ATOM     29  C   UNL     1      85.201  44.132  42.259  0.00  0.00    -0.053 C 
ENDBRANCH  24  29
ENDBRANCH  23  24
ENDBRANCH  22  23
ENDBRANCH  20  22
ENDBRANCH   1  20
BRANCH  18  30
ATOM     30  O   UNL     1      84.262  59.457  45.354  0.00  0.00    -0.391 OA
ATOM     31  H   UNL     1      84.677  59.787  46.166  0.00  0.00    +0.000 HD
ENDBRANCH  18  30
TORSDOF 7
ENDMDL
MODEL 5
REMARK VINA RESULT:    -8.322      2.168      3.849
REMARK INTER + INTRA:         -12.248
REMARK INTER:                 -11.875
REMARK INTRA:                  -0.372
REMARK UNBOUND:                -0.764
REMARK  Name = 
REMARK  13 active torsions:
REMARK  status: ('A' for Active; 'I' for Inactive)
REMARK    1  A    between atoms: C_1  and  C_2
REMARK    2  A    between atoms: C_2  and  C_3
REMARK    3  A    between atoms: C_3  and  C_4
REMARK    4  A    between atoms: C_3  and  C_7
REMARK    5  A    between atoms: C_4  and  C_5
REMARK    6  A    between atoms: C_4  and  C_6
REMARK    7  A    between atoms: C_7  and  C_8
REMARK    8  A    between atoms: C_8  and  C_9
REMARK    9  A    between atoms: C_9  and  C_10
REMARK   10  A    between atoms: C_9  and  C_30
REMARK   11  A    between atoms: C_14  and  C_15
REMARK   12  A    between atoms: C_23  and  C_24
REMARK   13  A    between atoms: C_27  and  O_29
REMARK                            x       y       z     vdW  Elec       q    Type
REMARK                         _______ _______ _______ _____ _____    ______ ____
ROOT
ATOM      1  C   UNL     1      86.180  49.655  45.085  0.00  0.00    -0.033 C 
ATOM      2  C   UNL     1      86.673  49.580  46.558  0.00  0.00    -0.049 C 
ATOM      3  C   UNL     1      86.720  51.016  47.096  0.00  0.00    -0.049 C 
ATOM      4  C   UNL     1      86.064  51.841  46.001  0.00  0.00    -0.032 C 
ATOM      5  C   UNL     1      86.447  51.139  44.687  0.00  0.00    -0.026 C 
ATOM      6  C   UNL     1      87.947  51.343  44.297  0.00  0.00    -0.059 C 
ATOM      7  C   UNL     1      85.515  51.715  43.591  0.00  0.00    -0.047 C 
ATOM      8  C   UNL     1      85.652  53.252  43.480  0.00  0.00    -0.049 C 
ATOM      9  C   UNL     1      85.462  53.997  44.841  0.00  0.00    -0.029 C 
ATOM     10  C   UNL     1      86.308  53.365  45.988  0.00  0.00    -0.031 C 
ATOM     11  C   UNL     1      85.887  53.985  47.329  0.00  0.00    -0.031 C 
ATOM     12  C   UNL     1      85.819  55.484  47.284  0.00  0.00    -0.084 C 
ATOM     13  C   UNL     1      85.595  56.191  46.155  0.00  0.00    -0.065 C 
ATOM     14  C   UNL     1      85.678  55.557  44.756  0.00  0.00    -0.008 C 
ATOM     15  C   UNL     1      87.067  55.904  44.149  0.00  0.00    -0.056 C 
ATOM     16  C   UNL     1      84.557  56.176  43.861  0.00  0.00    -0.041 C 
ATOM     17  C   UNL     1      84.486  57.710  43.930  0.00  0.00    -0.026 C 
ATOM     18  C   UNL     1      84.283  58.186  45.371  0.00  0.00    +0.059 C 
ATOM     19  C   UNL     1      85.427  57.696  46.268  0.00  0.00    -0.005 C 
ENDROOT
BRANCH   1  20
ATOM     20  C   UNL     1      86.794  48.520  44.195  0.00  0.00    -0.041 C 
ATOM     21  C   UNL     1      86.853  48.905  42.706  0.00  0.00    -0.062 C 
BRANCH  20  22
ATOM     22  C   UNL     1      86.059  47.157  44.364  0.00  0.00    -0.050 C 
BRANCH  22  23
ATOM     23  C   UNL     1      85.073  46.818  43.221  0.00  0.00    -0.050 C 
BRANCH  23  24
ATOM     24  C   UNL     1      83.880  45.948  43.708  0.00  0.00    -0.039 C 
BRANCH  24  25
ATOM     25  C   UNL     1      82.491  46.618  43.408  0.00  0.00    -0.044 C 
ATOM     26  C   UNL     1      82.534  48.158  43.504  0.00  0.00    -0.062 C 
ATOM     27  C   UNL     1      81.398  46.105  44.368  0.00  0.00    -0.062 C 
ENDBRANCH  24  25
BRANCH  24  29
ATOM     28  C   UNL     1      85.405  44.137  42.714  0.00  0.00    -0.065 C 
ATOM     29  C   UNL     1      83.969  44.525  43.069  0.00  0.00    -0.053 C 
ENDBRANCH  24  29
ENDBRANCH  23  24
ENDBRANCH  22  23
ENDBRANCH  20  22
ENDBRANCH   1  20
BRANCH  18  30
ATOM     30  O   UNL     1      84.232  59.589  45.387  0.00  0.00    -0.391 OA
ATOM     31  H   UNL     1      84.592  59.917  46.226  0.00  0.00    +0.000 HD
ENDBRANCH  18  30
TORSDOF 7
ENDMDL
MODEL 6
REMARK VINA RESULT:    -8.153      3.522      8.487
REMARK INTER + INTRA:         -12.014
REMARK INTER:                 -10.278
REMARK INTRA:                  -1.736
REMARK UNBOUND:                -0.764
REMARK  Name = 
REMARK  13 active torsions:
REMARK  status: ('A' for Active; 'I' for Inactive)
REMARK    1  A    between atoms: C_1  and  C_2
REMARK    2  A    between atoms: C_2  and  C_3
REMARK    3  A    between atoms: C_3  and  C_4
REMARK    4  A    between atoms: C_3  and  C_7
REMARK    5  A    between atoms: C_4  and  C_5
REMARK    6  A    between atoms: C_4  and  C_6
REMARK    7  A    between atoms: C_7  and  C_8
REMARK    8  A    between atoms: C_8  and  C_9
REMARK    9  A    between atoms: C_9  and  C_10
REMARK   10  A    between atoms: C_9  and  C_30
REMARK   11  A    between atoms: C_14  and  C_15
REMARK   12  A    between atoms: C_23  and  C_24
REMARK   13  A    between atoms: C_27  and  O_29
REMARK                            x       y       z     vdW  Elec       q    Type
REMARK                         _______ _______ _______ _____ _____    ______ ____
ROOT
ATOM      1  C   UNL     1      85.726  52.935  44.584  0.00  0.00    -0.033 C 
ATOM      2  C   UNL     1      84.256  52.448  44.719  0.00  0.00    -0.049 C 
ATOM      3  C   UNL     1      84.225  50.972  44.298  0.00  0.00    -0.049 C 
ATOM      4  C   UNL     1      85.690  50.605  44.136  0.00  0.00    -0.032 C 
ATOM      5  C   UNL     1      86.371  51.887  43.626  0.00  0.00    -0.026 C 
ATOM      6  C   UNL     1      86.024  52.215  42.138  0.00  0.00    -0.059 C 
ATOM      7  C   UNL     1      87.896  51.675  43.797  0.00  0.00    -0.047 C 
ATOM      8  C   UNL     1      88.385  50.424  43.030  0.00  0.00    -0.049 C 
ATOM      9  C   UNL     1      87.585  49.126  43.376  0.00  0.00    -0.029 C 
ATOM     10  C   UNL     1      86.043  49.344  43.319  0.00  0.00    -0.031 C 
ATOM     11  C   UNL     1      85.334  48.113  43.904  0.00  0.00    -0.031 C 
ATOM     12  C   UNL     1      85.856  46.820  43.348  0.00  0.00    -0.084 C 
ATOM     13  C   UNL     1      87.105  46.665  42.856  0.00  0.00    -0.065 C 
ATOM     14  C   UNL     1      88.022  47.860  42.542  0.00  0.00    -0.008 C 
ATOM     15  C   UNL     1      87.950  48.137  41.014  0.00  0.00    -0.056 C 
ATOM     16  C   UNL     1      89.487  47.479  42.928  0.00  0.00    -0.041 C 
ATOM     17  C   UNL     1      89.928  46.104  42.401  0.00  0.00    -0.026 C 
ATOM     18  C   UNL     1      88.987  45.000  42.894  0.00  0.00    +0.059 C 
ATOM     19  C   UNL     1      87.548  45.274  42.439  0.00  0.00    -0.005 C 
ENDROOT
BRANCH   1  20
ATOM     20  C   UNL     1      85.815  54.453  44.201  0.00  0.00    -0.041 C 
ATOM     21  C   UNL     1      86.507  55.296  45.287  0.00  0.00    -0.062 C 
BRANCH  20  22
ATOM     22  C   UNL     1      84.429  55.069  43.852  0.00  0.00    -0.050 C 
BRANCH  22  23
ATOM     23  C   UNL     1      84.344  55.692  42.439  0.00  0.00    -0.050 C 
BRANCH  23  24
ATOM     24  C   UNL     1      83.895  54.662  41.364  0.00  0.00    -0.039 C 
BRANCH  24  25
ATOM     25  C   UNL     1      82.531  53.975  41.728  0.00  0.00    -0.044 C 
ATOM     26  C   UNL     1      82.567  52.441  41.556  0.00  0.00    -0.062 C 
ATOM     27  C   UNL     1      81.373  54.530  40.873  0.00  0.00    -0.062 C 
ENDBRANCH  24  25
BRANCH  24  29
ATOM     28  C   UNL     1      84.742  54.698  38.939  0.00  0.00    -0.065 C 
ATOM     29  C   UNL     1      83.821  55.358  39.966  0.00  0.00    -0.053 C 
ENDBRANCH  24  29
ENDBRANCH  23  24
ENDBRANCH  22  23
ENDBRANCH  20  22
ENDBRANCH   1  20
BRANCH  18  30
ATOM     30  O   UNL     1      89.423  43.766  42.384  0.00  0.00    -0.391 OA
ATOM     31  H   UNL     1      89.517  43.830  41.421  0.00  0.00    +0.000 HD
ENDBRANCH  18  30
TORSDOF 7
ENDMDL
MODEL 7
REMARK VINA RESULT:    -8.148      3.095      8.776
REMARK INTER + INTRA:         -12.008
REMARK INTER:                 -11.039
REMARK INTRA:                  -0.969
REMARK UNBOUND:                -0.764
REMARK  Name = 
REMARK  13 active torsions:
REMARK  status: ('A' for Active; 'I' for Inactive)
REMARK    1  A    between atoms: C_1  and  C_2
REMARK    2  A    between atoms: C_2  and  C_3
REMARK    3  A    between atoms: C_3  and  C_4
REMARK    4  A    between atoms: C_3  and  C_7
REMARK    5  A    between atoms: C_4  and  C_5
REMARK    6  A    between atoms: C_4  and  C_6
REMARK    7  A    between atoms: C_7  and  C_8
REMARK    8  A    between atoms: C_8  and  C_9
REMARK    9  A    between atoms: C_9  and  C_10
REMARK   10  A    between atoms: C_9  and  C_30
REMARK   11  A    between atoms: C_14  and  C_15
REMARK   12  A    between atoms: C_23  and  C_24
REMARK   13  A    between atoms: C_27  and  O_29
REMARK                            x       y       z     vdW  Elec       q    Type
REMARK                         _______ _______ _______ _____ _____    ______ ____
ROOT
ATOM      1  C   UNL     1      84.630  53.340  43.743  0.00  0.00    -0.033 C 
ATOM      2  C   UNL     1      83.396  52.482  43.347  0.00  0.00    -0.049 C 
ATOM      3  C   UNL     1      83.919  51.109  42.905  0.00  0.00    -0.049 C 
ATOM      4  C   UNL     1      85.397  51.149  43.253  0.00  0.00    -0.032 C 
ATOM      5  C   UNL     1      85.819  52.613  43.042  0.00  0.00    -0.026 C 
ATOM      6  C   UNL     1      85.900  53.018  41.535  0.00  0.00    -0.059 C 
ATOM      7  C   UNL     1      87.200  52.777  43.727  0.00  0.00    -0.047 C 
ATOM      8  C   UNL     1      88.242  51.793  43.146  0.00  0.00    -0.049 C 
ATOM      9  C   UNL     1      87.770  50.303  43.161  0.00  0.00    -0.029 C 
ATOM     10  C   UNL     1      86.336  50.127  42.577  0.00  0.00    -0.031 C 
ATOM     11  C   UNL     1      85.850  48.694  42.849  0.00  0.00    -0.031 C 
ATOM     12  C   UNL     1      86.865  47.653  42.476  0.00  0.00    -0.084 C 
ATOM     13  C   UNL     1      88.197  47.881  42.445  0.00  0.00    -0.065 C 
ATOM     14  C   UNL     1      88.791  49.299  42.498  0.00  0.00    -0.008 C 
ATOM     15  C   UNL     1      89.148  49.729  41.048  0.00  0.00    -0.056 C 
ATOM     16  C   UNL     1      90.095  49.260  43.358  0.00  0.00    -0.041 C 
ATOM     17  C   UNL     1      91.050  48.116  42.983  0.00  0.00    -0.026 C 
ATOM     18  C   UNL     1      90.350  46.758  43.091  0.00  0.00    +0.059 C 
ATOM     19  C   UNL     1      89.122  46.709  42.173  0.00  0.00    -0.005 C 
ENDROOT
BRANCH   1  20
ATOM     20  C   UNL     1      84.411  54.865  43.453  0.00  0.00    -0.041 C 
ATOM     21  C   UNL     1      83.719  55.115  42.101  0.00  0.00    -0.062 C 
BRANCH  20  22
ATOM     22  C   UNL     1      85.729  55.690  43.536  0.00  0.00    -0.050 C 
BRANCH  22  23
ATOM     23  C   UNL     1      86.046  56.247  44.944  0.00  0.00    -0.050 C 
BRANCH  23  24
ATOM     24  C   UNL     1      84.811  56.206  45.889  0.00  0.00    -0.039 C 
BRANCH  24  25
ATOM     25  C   UNL     1      85.091  55.392  47.202  0.00  0.00    -0.044 C 
ATOM     26  C   UNL     1      86.070  54.218  46.984  0.00  0.00    -0.062 C 
ATOM     27  C   UNL     1      83.788  54.828  47.805  0.00  0.00    -0.062 C 
ENDBRANCH  24  25
BRANCH  24  29
ATOM     28  C   UNL     1      85.112  58.710  45.402  0.00  0.00    -0.065 C 
ATOM     29  C   UNL     1      84.349  57.663  46.216  0.00  0.00    -0.053 C 
ENDBRANCH  24  29
ENDBRANCH  23  24
ENDBRANCH  22  23
ENDBRANCH  20  22
ENDBRANCH   1  20
BRANCH  18  30
ATOM     30  O   UNL     1      91.255  45.746  42.733  0.00  0.00    -0.391 OA
ATOM     31  H   UNL     1      92.025  46.141  42.295  0.00  0.00    +0.000 HD
ENDBRANCH  18  30
TORSDOF 7
ENDMDL
MODEL 8
REMARK VINA RESULT:    -7.569      3.327      8.827
REMARK INTER + INTRA:         -11.209
REMARK INTER:                  -9.405
REMARK INTRA:                  -1.804
REMARK UNBOUND:                -0.764
REMARK  Name = 
REMARK  13 active torsions:
REMARK  status: ('A' for Active; 'I' for Inactive)
REMARK    1  A    between atoms: C_1  and  C_2
REMARK    2  A    between atoms: C_2  and  C_3
REMARK    3  A    between atoms: C_3  and  C_4
REMARK    4  A    between atoms: C_3  and  C_7
REMARK    5  A    between atoms: C_4  and  C_5
REMARK    6  A    between atoms: C_4  and  C_6
REMARK    7  A    between atoms: C_7  and  C_8
REMARK    8  A    between atoms: C_8  and  C_9
REMARK    9  A    between atoms: C_9  and  C_10
REMARK   10  A    between atoms: C_9  and  C_30
REMARK   11  A    between atoms: C_14  and  C_15
REMARK   12  A    between atoms: C_23  and  C_24
REMARK   13  A    between atoms: C_27  and  O_29
REMARK                            x       y       z     vdW  Elec       q    Type
REMARK                         _______ _______ _______ _____ _____    ______ ____
ROOT
ATOM      1  C   UNL     1      84.280  53.249  41.561  0.00  0.00    -0.033 C 
ATOM      2  C   UNL     1      85.679  53.748  41.104  0.00  0.00    -0.049 C 
ATOM      3  C   UNL     1      86.665  52.590  41.306  0.00  0.00    -0.049 C 
ATOM      4  C   UNL     1      85.778  51.411  41.670  0.00  0.00    -0.032 C 
ATOM      5  C   UNL     1      84.609  52.020  42.464  0.00  0.00    -0.026 C 
ATOM      6  C   UNL     1      85.018  52.485  43.898  0.00  0.00    -0.059 C 
ATOM      7  C   UNL     1      83.510  50.930  42.535  0.00  0.00    -0.047 C 
ATOM      8  C   UNL     1      84.037  49.635  43.197  0.00  0.00    -0.049 C 
ATOM      9  C   UNL     1      85.345  49.085  42.539  0.00  0.00    -0.029 C 
ATOM     10  C   UNL     1      86.428  50.190  42.355  0.00  0.00    -0.031 C 
ATOM     11  C   UNL     1      87.572  49.639  41.490  0.00  0.00    -0.031 C 
ATOM     12  C   UNL     1      88.051  48.291  41.945  0.00  0.00    -0.084 C 
ATOM     13  C   UNL     1      87.281  47.411  42.623  0.00  0.00    -0.065 C 
ATOM     14  C   UNL     1      85.936  47.809  43.255  0.00  0.00    -0.008 C 
ATOM     15  C   UNL     1      86.171  48.067  44.769  0.00  0.00    -0.056 C 
ATOM     16  C   UNL     1      84.935  46.622  43.084  0.00  0.00    -0.041 C 
ATOM     17  C   UNL     1      85.519  45.258  43.485  0.00  0.00    -0.026 C 
ATOM     18  C   UNL     1      86.789  44.948  42.687  0.00  0.00    +0.059 C 
ATOM     19  C   UNL     1      87.848  46.034  42.915  0.00  0.00    -0.005 C 
ENDROOT
BRANCH   1  20
ATOM     20  C   UNL     1      83.404  54.403  42.160  0.00  0.00    -0.041 C 
ATOM     21  C   UNL     1      82.017  54.493  41.499  0.00  0.00    -0.062 C 
BRANCH  20  22
ATOM     22  C   UNL     1      84.112  55.788  42.103  0.00  0.00    -0.050 C 
BRANCH  22  23
ATOM     23  C   UNL     1      84.012  56.610  43.410  0.00  0.00    -0.050 C 
BRANCH  23  24
ATOM     24  C   UNL     1      84.795  55.955  44.582  0.00  0.00    -0.039 C 
BRANCH  24  25
ATOM     25  C   UNL     1      86.241  56.548  44.740  0.00  0.00    -0.044 C 
ATOM     26  C   UNL     1      86.351  58.003  44.234  0.00  0.00    -0.062 C 
ATOM     27  C   UNL     1      87.286  55.696  43.991  0.00  0.00    -0.062 C 
ENDBRANCH  24  25
BRANCH  24  29
ATOM     28  C   UNL     1      84.771  55.635  47.131  0.00  0.00    -0.065 C 
ATOM     29  C   UNL     1      83.979  56.099  45.907  0.00  0.00    -0.053 C 
ENDBRANCH  24  29
ENDBRANCH  23  24
ENDBRANCH  22  23
ENDBRANCH  20  22
ENDBRANCH   1  20
BRANCH  18  30
ATOM     30  O   UNL     1      87.290  43.700  43.090  0.00  0.00    -0.391 OA
ATOM     31  H   UNL     1      87.241  43.077  42.349  0.00  0.00    +0.000 HD
ENDBRANCH  18  30
TORSDOF 7
ENDMDL
MODEL 9
REMARK VINA RESULT:    -7.386      1.482      2.839
REMARK INTER + INTRA:         -10.957
REMARK INTER:                 -10.193
REMARK INTRA:                  -0.764
REMARK UNBOUND:                -0.764
REMARK  Name = 
REMARK  13 active torsions:
REMARK  status: ('A' for Active; 'I' for Inactive)
REMARK    1  A    between atoms: C_1  and  C_2
REMARK    2  A    between atoms: C_2  and  C_3
REMARK    3  A    between atoms: C_3  and  C_4
REMARK    4  A    between atoms: C_3  and  C_7
REMARK    5  A    between atoms: C_4  and  C_5
REMARK    6  A    between atoms: C_4  and  C_6
REMARK    7  A    between atoms: C_7  and  C_8
REMARK    8  A    between atoms: C_8  and  C_9
REMARK    9  A    between atoms: C_9  and  C_10
REMARK   10  A    between atoms: C_9  and  C_30
REMARK   11  A    between atoms: C_14  and  C_15
REMARK   12  A    between atoms: C_23  and  C_24
REMARK   13  A    between atoms: C_27  and  O_29
REMARK                            x       y       z     vdW  Elec       q    Type
REMARK                         _______ _______ _______ _____ _____    ______ ____
ROOT
ATOM      1  C   UNL     1      86.823  50.006  43.388  0.00  0.00    -0.033 C 
ATOM      2  C   UNL     1      88.069  50.452  42.573  0.00  0.00    -0.049 C 
ATOM      3  C   UNL     1      88.104  51.987  42.598  0.00  0.00    -0.049 C 
ATOM      4  C   UNL     1      87.012  52.363  43.586  0.00  0.00    -0.032 C 
ATOM      5  C   UNL     1      85.929  51.284  43.416  0.00  0.00    -0.026 C 
ATOM      6  C   UNL     1      85.127  51.424  42.083  0.00  0.00    -0.059 C 
ATOM      7  C   UNL     1      84.984  51.412  44.638  0.00  0.00    -0.047 C 
ATOM      8  C   UNL     1      84.370  52.828  44.734  0.00  0.00    -0.049 C 
ATOM      9  C   UNL     1      85.434  53.974  44.712  0.00  0.00    -0.029 C 
ATOM     10  C   UNL     1      86.464  53.806  43.556  0.00  0.00    -0.031 C 
ATOM     11  C   UNL     1      87.608  54.815  43.745  0.00  0.00    -0.031 C 
ATOM     12  C   UNL     1      87.118  56.207  44.019  0.00  0.00    -0.084 C 
ATOM     13  C   UNL     1      85.922  56.484  44.582  0.00  0.00    -0.065 C 
ATOM     14  C   UNL     1      84.815  55.425  44.730  0.00  0.00    -0.008 C 
ATOM     15  C   UNL     1      83.799  55.622  43.571  0.00  0.00    -0.056 C 
ATOM     16  C   UNL     1      84.090  55.651  46.095  0.00  0.00    -0.041 C 
ATOM     17  C   UNL     1      83.694  57.114  46.352  0.00  0.00    -0.026 C 
ATOM     18  C   UNL     1      84.918  58.033  46.289  0.00  0.00    +0.059 C 
ATOM     19  C   UNL     1      85.601  57.930  44.919  0.00  0.00    -0.005 C 
ENDROOT
BRANCH   1  20
ATOM     20  C   UNL     1      86.204  48.673  42.843  0.00  0.00    -0.041 C 
ATOM     21  C   UNL     1      85.125  48.098  43.779  0.00  0.00    -0.062 C 
BRANCH  20  22
ATOM     22  C   UNL     1      87.279  47.588  42.541  0.00  0.00    -0.050 C 
BRANCH  22  23
ATOM     23  C   UNL     1      87.015  46.222  43.217  0.00  0.00    -0.050 C 
BRANCH  23  24
ATOM     24  C   UNL     1      87.316  45.025  42.271  0.00  0.00    -0.039 C 
BRANCH  24  25
ATOM     25  C   UNL     1      88.696  44.346  42.587  0.00  0.00    -0.044 C 
ATOM     26  C   UNL     1      88.662  43.482  43.866  0.00  0.00    -0.062 C 
ATOM     27  C   UNL     1      89.818  45.393  42.742  0.00  0.00    -0.062 C 
ENDBRANCH  24  25
BRANCH  24  29
ATOM     28  C   UNL     1      84.774  44.656  42.269  0.00  0.00    -0.065 C 
ATOM     29  C   UNL     1      86.148  43.989  42.344  0.00  0.00    -0.053 C 
ENDBRANCH  24  29
ENDBRANCH  23  24
ENDBRANCH  22  23
ENDBRANCH  20  22
ENDBRANCH   1  20
BRANCH  18  30
ATOM     30  O   UNL     1      84.510  59.356  46.521  0.00  0.00    -0.391 OA
ATOM     31  H   UNL     1      83.633  59.497  46.130  0.00  0.00    +0.000 HD
ENDBRANCH  18  30
TORSDOF 7
ENDMDL
