MODEL 1
REMARK VINA RESULT:    -7.729      0.000      0.000
REMARK INTER + INTRA:         -13.267
REMARK INTER:                 -11.987
REMARK INTRA:                  -1.280
REMARK UNBOUND:                -1.473
REMARK  Name = 
REMARK  12 active torsions:
REMARK  status: ('A' for Active; 'I' for Inactive)
REMARK    1  A    between atoms: O_1  and  C_2
REMARK    2  A    between atoms: C_3  and  O_23
REMARK    3  A    between atoms: C_6  and  O_14
REMARK    4  A    between atoms: C_7  and  O_8
REMARK    5  A    between atoms: C_7  and  C_9
REMARK    6  A    between atoms: C_9  and  O_10
REMARK    7  A    between atoms: O_10  and  C_11
REMARK    8  A    between atoms: C_11  and  C_13
REMARK    9  A    between atoms: O_14  and  C_15
REMARK   10  A    between atoms: C_15  and  C_17
REMARK   11  A    between atoms: O_23  and  C_24
REMARK   12  A    between atoms: C_24  and  C_26
REMARK                            x       y       z     vdW  Elec       q    Type
REMARK                         _______ _______ _______ _____ _____    ______ ____
ROOT
ATOM      1  C   UNL     1      85.338  54.271  42.497  0.00  0.00    +0.131 C 
ATOM      2  C   UNL     1      85.215  55.034  43.843  0.00  0.00    +0.150 C 
ATOM      3  C   UNL     1      85.511  54.158  45.036  0.00  0.00    -0.042 C 
ATOM      4  C   UNL     1      86.181  52.997  44.959  0.00  0.00    -0.041 C 
ATOM      5  C   UNL     1      86.546  52.332  43.648  0.00  0.00    +0.156 C 
ATOM      6  C   UNL     1      86.583  53.335  42.456  0.00  0.00    +0.170 C 
ENDROOT
BRANCH   1   7
ATOM      7  O   UNL     1      84.150  53.566  42.220  0.00  0.00    -0.385 OA
ATOM      8  H   UNL     1      83.385  54.118  42.445  0.00  0.00    +0.000 HD
ENDBRANCH   1   7
BRANCH   6   9
ATOM      9  O   UNL     1      87.762  54.114  42.492  0.00  0.00    -0.379 OA
ATOM     10  H   UNL     1      87.570  55.006  42.162  0.00  0.00    +0.000 HD
ENDBRANCH   6   9
BRANCH   6  11
ATOM     11  C   UNL     1      86.610  52.541  41.132  0.00  0.00    +0.127 C 
BRANCH  11  12
ATOM     12  O   UNL     1      87.663  53.012  40.293  0.00  0.00    -0.462 OA
BRANCH  12  13
ATOM     13  C   UNL     1      88.741  52.208  39.912  0.00  0.00    +0.304 C 
ATOM     14  O   UNL     1      88.795  51.710  38.756  0.00  0.00    -0.251 OA
ATOM     15  C   UNL     1      89.857  51.972  40.871  0.00  0.00    +0.033 C 
ENDBRANCH  12  13
ENDBRANCH  11  12
ENDBRANCH   6  11
BRANCH   5  16
ATOM     16  O   UNL     1      87.820  51.695  43.768  0.00  0.00    -0.451 OA
BRANCH  16  17
ATOM     17  C   UNL     1      87.989  50.352  44.130  0.00  0.00    +0.340 C 
ATOM     18  O   UNL     1      87.523  49.926  45.222  0.00  0.00    -0.245 OA
BRANCH  17  19
ATOM     19  C   UNL     1      88.712  49.435  43.222  0.00  0.00    +0.059 A 
ATOM     20  C   UNL     1      90.101  49.241  43.353  0.00  0.00    -0.048 A 
ATOM     21  C   UNL     1      90.778  48.373  42.491  0.00  0.00    -0.061 A 
ATOM     22  C   UNL     1      90.079  47.692  41.492  0.00  0.00    -0.062 A 
ATOM     23  C   UNL     1      88.702  47.877  41.353  0.00  0.00    -0.061 A 
ATOM     24  C   UNL     1      88.020  48.744  42.212  0.00  0.00    -0.048 A 
ENDBRANCH  17  19
ENDBRANCH  16  17
ENDBRANCH   5  16
BRANCH   2  25
ATOM     25  O   UNL     1      86.108  56.149  43.874  0.00  0.00    -0.455 OA
BRANCH  25  26
ATOM     26  C   UNL     1      85.699  57.462  44.129  0.00  0.00    +0.305 C 
ATOM     27  O   UNL     1      85.646  58.316  43.202  0.00  0.00    -0.251 OA
ATOM     28  C   UNL     1      85.340  57.863  45.519  0.00  0.00    +0.033 C 
ENDBRANCH  25  26
ENDBRANCH   2  25
TORSDOF 10
ENDMDL
MODEL 2
REMARK VINA RESULT:    -7.587      3.245      5.137
REMARK INTER + INTRA:         -13.052
REMARK INTER:                 -11.530
REMARK INTRA:                  -1.522
REMARK UNBOUND:                -1.473
REMARK  Name = 
REMARK  12 active torsions:
REMARK  status: ('A' for Active; 'I' for Inactive)
REMARK    1  A    between atoms: O_1  and  C_2
REMARK    2  A    between atoms: C_3  and  O_23
REMARK    3  A    between atoms: C_6  and  O_14
REMARK    4  A    between atoms: C_7  and  O_8
REMARK    5  A    between atoms: C_7  and  C_9
REMARK    6  A    between atoms: C_9  and  O_10
REMARK    7  A    between atoms: O_10  and  C_11
REMARK    8  A    between atoms: C_11  and  C_13
REMARK    9  A    between atoms: O_14  and  C_15
REMARK   10  A    between atoms: C_15  and  C_17
REMARK   11  A    between atoms: O_23  and  C_24
REMARK   12  A    between atoms: C_24  and  C_26
REMARK                            x       y       z     vdW  Elec       q    Type
REMARK                         _______ _______ _______ _____ _____    ______ ____
ROOT
ATOM      1  C   UNL     1      84.089  53.017  41.062  0.00  0.00    +0.131 C 
ATOM      2  C   UNL     1      83.887  54.483  40.593  0.00  0.00    +0.150 C 
ATOM      3  C   UNL     1      84.043  55.479  41.715  0.00  0.00    -0.042 C 
ATOM      4  C   UNL     1      84.665  55.204  42.873  0.00  0.00    -0.041 C 
ATOM      5  C   UNL     1      85.110  53.812  43.269  0.00  0.00    +0.156 C 
ATOM      6  C   UNL     1      85.291  52.869  42.042  0.00  0.00    +0.170 C 
ENDROOT
BRANCH   1   7
ATOM      7  O   UNL     1      82.899  52.510  41.620  0.00  0.00    -0.385 OA
ATOM      8  H   UNL     1      83.103  51.741  42.175  0.00  0.00    +0.000 HD
ENDBRANCH   1   7
BRANCH   6   9
ATOM      9  O   UNL     1      86.496  53.155  41.362  0.00  0.00    -0.379 OA
ATOM     10  H   UNL     1      86.611  52.528  40.631  0.00  0.00    +0.000 HD
ENDBRANCH   6   9
BRANCH   6  11
ATOM     11  C   UNL     1      85.395  51.410  42.541  0.00  0.00    +0.127 C 
BRANCH  11  12
ATOM     12  O   UNL     1      84.433  51.168  43.565  0.00  0.00    -0.462 OA
BRANCH  12  13
ATOM     13  C   UNL     1      84.086  49.880  43.985  0.00  0.00    +0.304 C 
ATOM     14  O   UNL     1      84.928  49.142  44.564  0.00  0.00    -0.251 OA
ATOM     15  C   UNL     1      82.693  49.392  43.781  0.00  0.00    +0.033 C 
ENDBRANCH  12  13
ENDBRANCH  11  12
ENDBRANCH   6  11
BRANCH   5  16
ATOM     16  O   UNL     1      86.339  53.885  43.994  0.00  0.00    -0.451 OA
BRANCH  16  17
ATOM     17  C   UNL     1      86.420  53.934  45.392  0.00  0.00    +0.340 C 
ATOM     18  O   UNL     1      86.276  55.032  45.997  0.00  0.00    -0.245 OA
BRANCH  17  19
ATOM     19  C   UNL     1      86.668  52.692  46.155  0.00  0.00    +0.059 A 
ATOM     20  C   UNL     1      86.101  52.506  47.431  0.00  0.00    -0.048 A 
ATOM     21  C   UNL     1      86.341  51.329  48.146  0.00  0.00    -0.061 A 
ATOM     22  C   UNL     1      87.146  50.328  47.598  0.00  0.00    -0.062 A 
ATOM     23  C   UNL     1      87.714  50.501  46.334  0.00  0.00    -0.061 A 
ATOM     24  C   UNL     1      87.477  51.676  45.614  0.00  0.00    -0.048 A 
ENDBRANCH  17  19
ENDBRANCH  16  17
ENDBRANCH   5  16
BRANCH   2  25
ATOM     25  O   UNL     1      84.822  54.817  39.565  0.00  0.00    -0.455 OA
BRANCH  25  26
ATOM     26  C   UNL     1      84.601  55.816  38.611  0.00  0.00    +0.305 C 
ATOM     27  O   UNL     1      85.487  56.676  38.356  0.00  0.00    -0.251 OA
ATOM     28  C   UNL     1      83.293  55.875  37.899  0.00  0.00    +0.033 C 
ENDBRANCH  25  26
ENDBRANCH   2  25
TORSDOF 10
ENDMDL
MODEL 3
REMARK VINA RESULT:    -7.549      1.789      3.365
REMARK INTER + INTRA:         -12.994
REMARK INTER:                 -11.486
REMARK INTRA:                  -1.508
REMARK UNBOUND:                -1.473
REMARK  Name = 
REMARK  12 active torsions:
REMARK  status: ('A' for Active; 'I' for Inactive)
REMARK    1  A    between atoms: O_1  and  C_2
REMARK    2  A    between atoms: C_3  and  O_23
REMARK    3  A    between atoms: C_6  and  O_14
REMARK    4  A    between atoms: C_7  and  O_8
REMARK    5  A    between atoms: C_7  and  C_9
REMARK    6  A    between atoms: C_9  and  O_10
REMARK    7  A    between atoms: O_10  and  C_11
REMARK    8  A    between atoms: C_11  and  C_13
REMARK    9  A    between atoms: O_14  and  C_15
REMARK   10  A    between atoms: C_15  and  C_17
REMARK   11  A    between atoms: O_23  and  C_24
REMARK   12  A    between atoms: C_24  and  C_26
REMARK                            x       y       z     vdW  Elec       q    Type
REMARK                         _______ _______ _______ _____ _____    ______ ____
ROOT
ATOM      1  C   UNL     1      85.277  52.975  43.755  0.00  0.00    +0.131 C 
ATOM      2  C   UNL     1      85.932  52.998  45.162  0.00  0.00    +0.150 C 
ATOM      3  C   UNL     1      87.101  52.051  45.276  0.00  0.00    -0.042 C 
ATOM      4  C   UNL     1      87.758  51.551  44.217  0.00  0.00    -0.041 C 
ATOM      5  C   UNL     1      87.285  51.718  42.788  0.00  0.00    +0.156 C 
ATOM      6  C   UNL     1      86.334  52.939  42.610  0.00  0.00    +0.170 C 
ENDROOT
BRANCH   1   7
ATOM      7  O   UNL     1      84.366  51.905  43.653  0.00  0.00    -0.385 OA
ATOM      8  H   UNL     1      84.580  51.232  44.318  0.00  0.00    +0.000 HD
ENDBRANCH   1   7
BRANCH   6   9
ATOM      9  O   UNL     1      87.065  54.148  42.603  0.00  0.00    -0.379 OA
ATOM     10  H   UNL     1      86.845  54.664  43.395  0.00  0.00    +0.000 HD
ENDBRANCH   6   9
BRANCH   6  11
ATOM     11  C   UNL     1      85.631  52.833  41.239  0.00  0.00    +0.127 C 
BRANCH  11  12
ATOM     12  O   UNL     1      84.434  53.607  41.235  0.00  0.00    -0.462 OA
BRANCH  12  13
ATOM     13  C   UNL     1      84.378  54.907  40.723  0.00  0.00    +0.304 C 
ATOM     14  O   UNL     1      84.824  55.881  41.387  0.00  0.00    -0.251 OA
ATOM     15  C   UNL     1      83.821  55.136  39.359  0.00  0.00    +0.033 C 
ENDBRANCH  12  13
ENDBRANCH  11  12
ENDBRANCH   6  11
BRANCH   5  16
ATOM     16  O   UNL     1      88.411  51.866  41.921  0.00  0.00    -0.451 OA
BRANCH  16  17
ATOM     17  C   UNL     1      88.807  50.903  40.984  0.00  0.00    +0.340 C 
ATOM     18  O   UNL     1      88.852  51.193  39.757  0.00  0.00    -0.245 OA
BRANCH  17  19
ATOM     19  C   UNL     1      89.177  49.546  41.441  0.00  0.00    +0.059 A 
ATOM     20  C   UNL     1      88.279  48.470  41.302  0.00  0.00    -0.048 A 
ATOM     21  C   UNL     1      88.636  47.190  41.737  0.00  0.00    -0.061 A 
ATOM     22  C   UNL     1      89.888  46.971  42.315  0.00  0.00    -0.062 A 
ATOM     23  C   UNL     1      90.787  48.030  42.458  0.00  0.00    -0.061 A 
ATOM     24  C   UNL     1      90.435  49.312  42.024  0.00  0.00    -0.048 A 
ENDBRANCH  17  19
ENDBRANCH  16  17
ENDBRANCH   5  16
BRANCH   2  25
ATOM     25  O   UNL     1      86.388  54.314  45.485  0.00  0.00    -0.455 OA
BRANCH  25  26
ATOM     26  C   UNL     1      86.014  55.002  46.644  0.00  0.00    +0.305 C 
ATOM     27  O   UNL     1      86.044  54.435  47.771  0.00  0.00    -0.251 OA
ATOM     28  C   UNL     1      85.556  56.416  46.543  0.00  0.00    +0.033 C 
ENDBRANCH  25  26
ENDBRANCH   2  25
TORSDOF 10
ENDMDL
MODEL 4
REMARK VINA RESULT:    -7.535      2.619      5.702
REMARK INTER + INTRA:         -12.972
REMARK INTER:                 -11.695
REMARK INTRA:                  -1.277
REMARK UNBOUND:                -1.473
REMARK  Name = 
REMARK  12 active torsions:
REMARK  status: ('A' for Active; 'I' for Inactive)
REMARK    1  A    between atoms: O_1  and  C_2
REMARK    2  A    between atoms: C_3  and  O_23
REMARK    3  A    between atoms: C_6  and  O_14
REMARK    4  A    between atoms: C_7  and  O_8
REMARK    5  A    between atoms: C_7  and  C_9
REMARK    6  A    between atoms: C_9  and  O_10
REMARK    7  A    between atoms: O_10  and  C_11
REMARK    8  A    between atoms: C_11  and  C_13
REMARK    9  A    between atoms: O_14  and  C_15
REMARK   10  A    between atoms: C_15  and  C_17
REMARK   11  A    between atoms: O_23  and  C_24
REMARK   12  A    between atoms: C_24  and  C_26
REMARK                            x       y       z     vdW  Elec       q    Type
REMARK                         _______ _______ _______ _____ _____    ______ ____
ROOT
ATOM      1  C   UNL     1      84.530  52.954  41.300  0.00  0.00    +0.131 C 
ATOM      2  C   UNL     1      83.944  54.207  40.595  0.00  0.00    +0.150 C 
ATOM      3  C   UNL     1      83.668  55.338  41.554  0.00  0.00    -0.042 C 
ATOM      4  C   UNL     1      84.216  55.427  42.777  0.00  0.00    -0.041 C 
ATOM      5  C   UNL     1      85.018  54.311  43.414  0.00  0.00    +0.156 C 
ATOM      6  C   UNL     1      85.607  53.323  42.364  0.00  0.00    +0.170 C 
ENDROOT
BRANCH   1   7
ATOM      7  O   UNL     1      83.497  52.174  41.857  0.00  0.00    -0.385 OA
ATOM      8  H   UNL     1      83.317  51.415  41.279  0.00  0.00    +0.000 HD
ENDBRANCH   1   7
BRANCH   6   9
ATOM      9  O   UNL     1      86.734  53.885  41.723  0.00  0.00    -0.379 OA
ATOM     10  H   UNL     1      87.228  53.186  41.265  0.00  0.00    +0.000 HD
ENDBRANCH   6   9
BRANCH   6  11
ATOM     11  C   UNL     1      86.095  52.050  43.091  0.00  0.00    +0.127 C 
BRANCH  11  12
ATOM     12  O   UNL     1      86.259  50.981  42.162  0.00  0.00    -0.462 OA
BRANCH  12  13
ATOM     13  C   UNL     1      87.510  50.451  41.834  0.00  0.00    +0.304 C 
ATOM     14  O   UNL     1      87.753  50.048  40.665  0.00  0.00    -0.251 OA
ATOM     15  C   UNL     1      88.580  50.401  42.870  0.00  0.00    +0.033 C 
ENDBRANCH  12  13
ENDBRANCH  11  12
ENDBRANCH   6  11
BRANCH   5  16
ATOM     16  O   UNL     1      86.081  54.863  44.192  0.00  0.00    -0.451 OA
BRANCH  16  17
ATOM     17  C   UNL     1      85.887  55.586  45.377  0.00  0.00    +0.340 C 
ATOM     18  O   UNL     1      86.063  56.835  45.393  0.00  0.00    -0.245 OA
BRANCH  17  19
ATOM     19  C   UNL     1      85.471  54.878  46.606  0.00  0.00    +0.059 A 
ATOM     20  C   UNL     1      86.016  53.621  46.932  0.00  0.00    -0.048 A 
ATOM     21  C   UNL     1      85.617  52.957  48.096  0.00  0.00    -0.061 A 
ATOM     22  C   UNL     1      84.672  53.538  48.945  0.00  0.00    -0.062 A 
ATOM     23  C   UNL     1      84.124  54.783  48.631  0.00  0.00    -0.061 A 
ATOM     24  C   UNL     1      84.520  55.452  47.469  0.00  0.00    -0.048 A 
ENDBRANCH  17  19
ENDBRANCH  16  17
ENDBRANCH   5  16
BRANCH   2  25
ATOM     25  O   UNL     1      84.838  54.683  39.587  0.00  0.00    -0.455 OA
BRANCH  25  26
ATOM     26  C   UNL     1      84.518  55.705  38.687  0.00  0.00    +0.305 C 
ATOM     27  O   UNL     1      85.379  56.562  38.347  0.00  0.00    -0.251 OA
ATOM     28  C   UNL     1      83.136  55.793  38.137  0.00  0.00    +0.033 C 
ENDBRANCH  25  26
ENDBRANCH   2  25
TORSDOF 10
ENDMDL
MODEL 5
REMARK VINA RESULT:    -7.507      1.958      6.657
REMARK INTER + INTRA:         -12.930
REMARK INTER:                 -11.011
REMARK INTRA:                  -1.919
REMARK UNBOUND:                -1.473
REMARK  Name = 
REMARK  12 active torsions:
REMARK  status: ('A' for Active; 'I' for Inactive)
REMARK    1  A    between atoms: O_1  and  C_2
REMARK    2  A    between atoms: C_3  and  O_23
REMARK    3  A    between atoms: C_6  and  O_14
REMARK    4  A    between atoms: C_7  and  O_8
REMARK    5  A    between atoms: C_7  and  C_9
REMARK    6  A    between atoms: C_9  and  O_10
REMARK    7  A    between atoms: O_10  and  C_11
REMARK    8  A    between atoms: C_11  and  C_13
REMARK    9  A    between atoms: O_14  and  C_15
REMARK   10  A    between atoms: C_15  and  C_17
REMARK   11  A    between atoms: O_23  and  C_24
REMARK   12  A    between atoms: C_24  and  C_26
REMARK                            x       y       z     vdW  Elec       q    Type
REMARK                         _______ _______ _______ _____ _____    ______ ____
ROOT
ATOM      1  C   UNL     1      86.682  51.923  41.239  0.00  0.00    +0.131 C 
ATOM      2  C   UNL     1      87.896  50.958  41.299  0.00  0.00    +0.150 C 
ATOM      3  C   UNL     1      88.564  50.949  42.652  0.00  0.00    -0.042 C 
ATOM      4  C   UNL     1      87.975  51.388  43.776  0.00  0.00    -0.041 C 
ATOM      5  C   UNL     1      86.652  52.125  43.789  0.00  0.00    +0.156 C 
ATOM      6  C   UNL     1      85.796  51.843  42.518  0.00  0.00    +0.170 C 
ENDROOT
BRANCH   1   7
ATOM      7  O   UNL     1      87.112  53.242  40.988  0.00  0.00    -0.385 OA
ATOM      8  H   UNL     1      87.334  53.675  41.827  0.00  0.00    +0.000 HD
ENDBRANCH   1   7
BRANCH   6   9
ATOM      9  O   UNL     1      85.189  50.570  42.594  0.00  0.00    -0.379 OA
ATOM     10  H   UNL     1      84.779  50.458  43.467  0.00  0.00    +0.000 HD
ENDBRANCH   6   9
BRANCH   6  11
ATOM     11  C   UNL     1      84.654  52.880  42.442  0.00  0.00    +0.127 C 
BRANCH  11  12
ATOM     12  O   UNL     1      85.089  54.134  42.963  0.00  0.00    -0.462 OA
BRANCH  12  13
ATOM     13  C   UNL     1      84.797  55.352  42.341  0.00  0.00    +0.304 C 
ATOM     14  O   UNL     1      84.942  55.491  41.097  0.00  0.00    -0.251 OA
ATOM     15  C   UNL     1      84.269  56.484  43.154  0.00  0.00    +0.033 C 
ENDBRANCH  12  13
ENDBRANCH  11  12
ENDBRANCH   6  11
BRANCH   5  16
ATOM     16  O   UNL     1      85.906  51.758  44.951  0.00  0.00    -0.451 OA
BRANCH  16  17
ATOM     17  C   UNL     1      86.088  52.341  46.212  0.00  0.00    +0.340 C 
ATOM     18  O   UNL     1      86.678  51.703  47.127  0.00  0.00    -0.245 OA
BRANCH  17  19
ATOM     19  C   UNL     1      85.591  53.711  46.464  0.00  0.00    +0.059 A 
ATOM     20  C   UNL     1      86.410  54.830  46.219  0.00  0.00    -0.048 A 
ATOM     21  C   UNL     1      85.932  56.122  46.460  0.00  0.00    -0.061 A 
ATOM     22  C   UNL     1      84.636  56.310  46.946  0.00  0.00    -0.062 A 
ATOM     23  C   UNL     1      83.816  55.208  47.193  0.00  0.00    -0.061 A 
ATOM     24  C   UNL     1      84.288  53.914  46.954  0.00  0.00    -0.048 A 
ENDBRANCH  17  19
ENDBRANCH  16  17
ENDBRANCH   5  16
BRANCH   2  25
ATOM     25  O   UNL     1      87.494  49.622  40.989  0.00  0.00    -0.455 OA
BRANCH  25  26
ATOM     26  C   UNL     1      87.825  48.511  41.773  0.00  0.00    +0.305 C 
ATOM     27  O   UNL     1      87.060  48.119  42.696  0.00  0.00    -0.251 OA
ATOM     28  C   UNL     1      89.108  47.794  41.527  0.00  0.00    +0.033 C 
ENDBRANCH  25  26
ENDBRANCH   2  25
TORSDOF 10
ENDMDL
MODEL 6
REMARK VINA RESULT:    -7.454      2.895      4.657
REMARK INTER + INTRA:         -12.849
REMARK INTER:                 -11.293
REMARK INTRA:                  -1.556
REMARK UNBOUND:                -1.473
REMARK  Name = 
REMARK  12 active torsions:
REMARK  status: ('A' for Active; 'I' for Inactive)
REMARK    1  A    between atoms: O_1  and  C_2
REMARK    2  A    between atoms: C_3  and  O_23
REMARK    3  A    between atoms: C_6  and  O_14
REMARK    4  A    between atoms: C_7  and  O_8
REMARK    5  A    between atoms: C_7  and  C_9
REMARK    6  A    between atoms: C_9  and  O_10
REMARK    7  A    between atoms: O_10  and  C_11
REMARK    8  A    between atoms: C_11  and  C_13
REMARK    9  A    between atoms: O_14  and  C_15
REMARK   10  A    between atoms: C_15  and  C_17
REMARK   11  A    between atoms: O_23  and  C_24
REMARK   12  A    between atoms: C_24  and  C_26
REMARK                            x       y       z     vdW  Elec       q    Type
REMARK                         _______ _______ _______ _____ _____    ______ ____
ROOT
ATOM      1  C   UNL     1      85.509  50.210  45.650  0.00  0.00    +0.131 C 
ATOM      2  C   UNL     1      86.135  51.522  46.194  0.00  0.00    +0.150 C 
ATOM      3  C   UNL     1      87.464  51.840  45.556  0.00  0.00    -0.042 C 
ATOM      4  C   UNL     1      87.880  51.307  44.396  0.00  0.00    -0.041 C 
ATOM      5  C   UNL     1      87.155  50.179  43.691  0.00  0.00    +0.156 C 
ATOM      6  C   UNL     1      85.656  50.080  44.104  0.00  0.00    +0.170 C 
ENDROOT
BRANCH   1   7
ATOM      7  O   UNL     1      86.049  49.093  46.318  0.00  0.00    -0.385 OA
ATOM      8  H   UNL     1      85.551  48.297  46.074  0.00  0.00    +0.000 HD
ENDBRANCH   1   7
BRANCH   6   9
ATOM      9  O   UNL     1      84.893  51.084  43.470  0.00  0.00    -0.379 OA
ATOM     10  H   UNL     1      85.316  51.332  42.632  0.00  0.00    +0.000 HD
ENDBRANCH   6   9
BRANCH   6  11
ATOM     11  C   UNL     1      85.094  48.722  43.628  0.00  0.00    +0.127 C 
BRANCH  11  12
ATOM     12  O   UNL     1      86.004  47.671  43.943  0.00  0.00    -0.462 OA
BRANCH  12  13
ATOM     13  C   UNL     1      85.636  46.323  43.925  0.00  0.00    +0.304 C 
ATOM     14  O   UNL     1      84.882  45.848  44.816  0.00  0.00    -0.251 OA
ATOM     15  C   UNL     1      86.109  45.447  42.815  0.00  0.00    +0.033 C 
ENDBRANCH  12  13
ENDBRANCH  11  12
ENDBRANCH   6  11
BRANCH   5  16
ATOM     16  O   UNL     1      87.244  50.357  42.276  0.00  0.00    -0.451 OA
BRANCH  16  17
ATOM     17  C   UNL     1      88.333  49.932  41.503  0.00  0.00    +0.340 C 
ATOM     18  O   UNL     1      88.572  50.478  40.391  0.00  0.00    -0.245 OA
BRANCH  17  19
ATOM     19  C   UNL     1      89.203  48.845  42.000  0.00  0.00    +0.059 A 
ATOM     20  C   UNL     1      90.369  49.136  42.735  0.00  0.00    -0.048 A 
ATOM     21  C   UNL     1      91.187  48.103  43.201  0.00  0.00    -0.061 A 
ATOM     22  C   UNL     1      90.853  46.772  42.939  0.00  0.00    -0.062 A 
ATOM     23  C   UNL     1      89.700  46.472  42.211  0.00  0.00    -0.061 A 
ATOM     24  C   UNL     1      88.878  47.501  41.743  0.00  0.00    -0.048 A 
ENDBRANCH  17  19
ENDBRANCH  16  17
ENDBRANCH   5  16
BRANCH   2  25
ATOM     25  O   UNL     1      85.257  52.628  45.974  0.00  0.00    -0.455 OA
BRANCH  25  26
ATOM     26  C   UNL     1      84.840  53.500  46.986  0.00  0.00    +0.305 C 
ATOM     27  O   UNL     1      84.076  54.471  46.730  0.00  0.00    -0.251 OA
ATOM     28  C   UNL     1      85.322  53.291  48.381  0.00  0.00    +0.033 C 
ENDBRANCH  25  26
ENDBRANCH   2  25
TORSDOF 10
ENDMDL
MODEL 7
REMARK VINA RESULT:    -7.301      1.791      4.715
REMARK INTER + INTRA:         -12.615
REMARK INTER:                 -11.143
REMARK INTRA:                  -1.473
REMARK UNBOUND:                -1.473
REMARK  Name = 
REMARK  12 active torsions:
REMARK  status: ('A' for Active; 'I' for Inactive)
REMARK    1  A    between atoms: O_1  and  C_2
REMARK    2  A    between atoms: C_3  and  O_23
REMARK    3  A    between atoms: C_6  and  O_14
REMARK    4  A    between atoms: C_7  and  O_8
REMARK    5  A    between atoms: C_7  and  C_9
REMARK    6  A    between atoms: C_9  and  O_10
REMARK    7  A    between atoms: O_10  and  C_11
REMARK    8  A    between atoms: C_11  and  C_13
REMARK    9  A    between atoms: O_14  and  C_15
REMARK   10  A    between atoms: C_15  and  C_17
REMARK   11  A    between atoms: O_23  and  C_24
REMARK   12  A    between atoms: C_24  and  C_26
REMARK                            x       y       z     vdW  Elec       q    Type
REMARK                         _______ _______ _______ _____ _____    ______ ____
ROOT
ATOM      1  C   UNL     1      84.435  54.889  42.442  0.00  0.00    +0.131 C 
ATOM      2  C   UNL     1      83.752  53.740  41.654  0.00  0.00    +0.150 C 
ATOM      3  C   UNL     1      84.744  52.762  41.075  0.00  0.00    -0.042 C 
ATOM      4  C   UNL     1      86.012  52.647  41.502  0.00  0.00    -0.041 C 
ATOM      5  C   UNL     1      86.653  53.614  42.476  0.00  0.00    +0.156 C 
ATOM      6  C   UNL     1      85.605  54.381  43.337  0.00  0.00    +0.170 C 
ENDROOT
BRANCH   1   7
ATOM      7  O   UNL     1      84.859  55.906  41.562  0.00  0.00    -0.385 OA
ATOM      8  H   UNL     1      85.640  56.348  41.930  0.00  0.00    +0.000 HD
ENDBRANCH   1   7
BRANCH   6   9
ATOM      9  O   UNL     1      85.093  53.553  44.360  0.00  0.00    -0.379 OA
ATOM     10  H   UNL     1      85.423  53.859  45.220  0.00  0.00    +0.000 HD
ENDBRANCH   6   9
BRANCH   6  11
ATOM     11  C   UNL     1      86.301  55.572  44.031  0.00  0.00    +0.127 C 
BRANCH  11  12
ATOM     12  O   UNL     1      85.335  56.414  44.658  0.00  0.00    -0.462 OA
BRANCH  12  13
ATOM     13  C   UNL     1      85.306  57.798  44.471  0.00  0.00    +0.304 C 
ATOM     14  O   UNL     1      85.611  58.305  43.358  0.00  0.00    -0.251 OA
ATOM     15  C   UNL     1      84.870  58.682  45.589  0.00  0.00    +0.033 C 
ENDBRANCH  12  13
ENDBRANCH  11  12
ENDBRANCH   6  11
BRANCH   5  16
ATOM     16  O   UNL     1      87.548  52.909  43.338  0.00  0.00    -0.451 OA
BRANCH  16  17
ATOM     17  C   UNL     1      87.511  51.523  43.537  0.00  0.00    +0.340 C 
ATOM     18  O   UNL     1      86.579  51.005  44.212  0.00  0.00    -0.245 OA
BRANCH  17  19
ATOM     19  C   UNL     1      88.565  50.671  42.948  0.00  0.00    +0.059 A 
ATOM     20  C   UNL     1      89.177  51.023  41.729  0.00  0.00    -0.048 A 
ATOM     21  C   UNL     1      90.173  50.211  41.177  0.00  0.00    -0.061 A 
ATOM     22  C   UNL     1      90.568  49.043  41.833  0.00  0.00    -0.062 A 
ATOM     23  C   UNL     1      89.968  48.684  43.042  0.00  0.00    -0.061 A 
ATOM     24  C   UNL     1      88.972  49.492  43.598  0.00  0.00    -0.048 A 
ENDBRANCH  17  19
ENDBRANCH  16  17
ENDBRANCH   5  16
BRANCH   2  25
ATOM     25  O   UNL     1      82.851  53.017  42.496  0.00  0.00    -0.455 OA
BRANCH  25  26
ATOM     26  C   UNL     1      82.525  51.670  42.307  0.00  0.00    +0.305 C 
ATOM     27  O   UNL     1      81.834  51.304  41.316  0.00  0.00    -0.251 OA
ATOM     28  C   UNL     1      82.983  50.656  43.298  0.00  0.00    +0.033 C 
ENDBRANCH  25  26
ENDBRANCH   2  25
TORSDOF 10
ENDMDL
MODEL 8
REMARK VINA RESULT:    -7.289      3.195      7.389
REMARK INTER + INTRA:         -12.596
REMARK INTER:                 -11.130
REMARK INTRA:                  -1.466
REMARK UNBOUND:                -1.473
REMARK  Name = 
REMARK  12 active torsions:
REMARK  status: ('A' for Active; 'I' for Inactive)
REMARK    1  A    between atoms: O_1  and  C_2
REMARK    2  A    between atoms: C_3  and  O_23
REMARK    3  A    between atoms: C_6  and  O_14
REMARK    4  A    between atoms: C_7  and  O_8
REMARK    5  A    between atoms: C_7  and  C_9
REMARK    6  A    between atoms: C_9  and  O_10
REMARK    7  A    between atoms: O_10  and  C_11
REMARK    8  A    between atoms: C_11  and  C_13
REMARK    9  A    between atoms: O_14  and  C_15
REMARK   10  A    between atoms: C_15  and  C_17
REMARK   11  A    between atoms: O_23  and  C_24
REMARK   12  A    between atoms: C_24  and  C_26
REMARK                            x       y       z     vdW  Elec       q    Type
REMARK                         _______ _______ _______ _____ _____    ______ ____
ROOT
ATOM      1  C   UNL     1      85.870  50.449  42.897  0.00  0.00    +0.131 C 
ATOM      2  C   UNL     1      87.413  50.295  42.826  0.00  0.00    +0.150 C 
ATOM      3  C   UNL     1      88.124  51.053  43.920  0.00  0.00    -0.042 C 
ATOM      4  C   UNL     1      87.524  51.473  45.045  0.00  0.00    -0.041 C 
ATOM      5  C   UNL     1      86.026  51.411  45.263  0.00  0.00    +0.156 C 
ATOM      6  C   UNL     1      85.332  50.351  44.356  0.00  0.00    +0.170 C 
ENDROOT
BRANCH   1   7
ATOM      7  O   UNL     1      85.465  51.646  42.274  0.00  0.00    -0.385 OA
ATOM      8  H   UNL     1      84.852  51.443  41.549  0.00  0.00    +0.000 HD
ENDBRANCH   1   7
BRANCH   6   9
ATOM      9  O   UNL     1      85.546  49.047  44.854  0.00  0.00    -0.379 OA
ATOM     10  H   UNL     1      85.414  48.402  44.140  0.00  0.00    +0.000 HD
ENDBRANCH   6   9
BRANCH   6  11
ATOM     11  C   UNL     1      83.806  50.594  44.379  0.00  0.00    +0.127 C 
BRANCH  11  12
ATOM     12  O   UNL     1      83.170  49.843  43.346  0.00  0.00    -0.462 OA
BRANCH  12  13
ATOM     13  C   UNL     1      82.404  48.704  43.604  0.00  0.00    +0.304 C 
ATOM     14  O   UNL     1      82.946  47.640  44.008  0.00  0.00    -0.251 OA
ATOM     15  C   UNL     1      80.923  48.762  43.439  0.00  0.00    +0.033 C 
ENDBRANCH  12  13
ENDBRANCH  11  12
ENDBRANCH   6  11
BRANCH   5  16
ATOM     16  O   UNL     1      85.749  51.115  46.633  0.00  0.00    -0.451 OA
BRANCH  16  17
ATOM     17  C   UNL     1      85.872  52.046  47.673  0.00  0.00    +0.340 C 
ATOM     18  O   UNL     1      86.422  51.712  48.759  0.00  0.00    -0.245 OA
BRANCH  17  19
ATOM     19  C   UNL     1      85.362  53.421  47.489  0.00  0.00    +0.059 A 
ATOM     20  C   UNL     1      84.021  53.736  47.785  0.00  0.00    -0.048 A 
ATOM     21  C   UNL     1      83.545  55.038  47.608  0.00  0.00    -0.061 A 
ATOM     22  C   UNL     1      84.399  56.038  47.135  0.00  0.00    -0.062 A 
ATOM     23  C   UNL     1      85.729  55.737  46.838  0.00  0.00    -0.061 A 
ATOM     24  C   UNL     1      86.211  54.436  47.014  0.00  0.00    -0.048 A 
ENDBRANCH  17  19
ENDBRANCH  16  17
ENDBRANCH   5  16
BRANCH   2  25
ATOM     25  O   UNL     1      87.788  48.919  42.918  0.00  0.00    -0.455 OA
BRANCH  25  26
ATOM     26  C   UNL     1      88.571  48.264  41.962  0.00  0.00    +0.305 C 
ATOM     27  O   UNL     1      88.041  47.524  41.087  0.00  0.00    -0.251 OA
ATOM     28  C   UNL     1      90.052  48.425  41.989  0.00  0.00    +0.033 C 
ENDBRANCH  25  26
ENDBRANCH   2  25
TORSDOF 10
ENDMDL
MODEL 9
REMARK VINA RESULT:    -7.283      3.626      5.773
REMARK INTER + INTRA:         -12.588
REMARK INTER:                 -11.053
REMARK INTRA:                  -1.535
REMARK UNBOUND:                -1.473
REMARK  Name = 
REMARK  12 active torsions:
REMARK  status: ('A' for Active; 'I' for Inactive)
REMARK    1  A    between atoms: O_1  and  C_2
REMARK    2  A    between atoms: C_3  and  O_23
REMARK    3  A    between atoms: C_6  and  O_14
REMARK    4  A    between atoms: C_7  and  O_8
REMARK    5  A    between atoms: C_7  and  C_9
REMARK    6  A    between atoms: C_9  and  O_10
REMARK    7  A    between atoms: O_10  and  C_11
REMARK    8  A    between atoms: C_11  and  C_13
REMARK    9  A    between atoms: O_14  and  C_15
REMARK   10  A    between atoms: C_15  and  C_17
REMARK   11  A    between atoms: O_23  and  C_24
REMARK   12  A    between atoms: C_24  and  C_26
REMARK                            x       y       z     vdW  Elec       q    Type
REMARK                         _______ _______ _______ _____ _____    ______ ____
ROOT
ATOM      1  C   UNL     1      86.812  52.822  43.633  0.00  0.00    +0.131 C 
ATOM      2  C   UNL     1      86.526  52.288  45.062  0.00  0.00    +0.150 C 
ATOM      3  C   UNL     1      85.051  52.146  45.345  0.00  0.00    -0.042 C 
ATOM      4  C   UNL     1      84.111  52.092  44.387  0.00  0.00    -0.041 C 
ATOM      5  C   UNL     1      84.396  52.364  42.925  0.00  0.00    +0.156 C 
ATOM      6  C   UNL     1      85.897  52.160  42.559  0.00  0.00    +0.170 C 
ENDROOT
BRANCH   1   7
ATOM      7  O   UNL     1      86.714  54.227  43.602  0.00  0.00    -0.385 OA
ATOM      8  H   UNL     1      87.560  54.605  43.313  0.00  0.00    +0.000 HD
ENDBRANCH   1   7
BRANCH   6   9
ATOM      9  O   UNL     1      86.206  50.786  42.455  0.00  0.00    -0.379 OA
ATOM     10  H   UNL     1      87.152  50.653  42.630  0.00  0.00    +0.000 HD
ENDBRANCH   6   9
BRANCH   6  11
ATOM     11  C   UNL     1      86.165  52.786  41.172  0.00  0.00    +0.127 C 
BRANCH  11  12
ATOM     12  O   UNL     1      87.555  53.061  41.013  0.00  0.00    -0.462 OA
BRANCH  12  13
ATOM     13  C   UNL     1      88.406  52.241  40.268  0.00  0.00    +0.304 C 
ATOM     14  O   UNL     1      88.192  51.002  40.179  0.00  0.00    -0.251 OA
ATOM     15  C   UNL     1      89.557  52.845  39.539  0.00  0.00    +0.033 C 
ENDBRANCH  12  13
ENDBRANCH  11  12
ENDBRANCH   6  11
BRANCH   5  16
ATOM     16  O   UNL     1      83.591  51.511  42.109  0.00  0.00    -0.451 OA
BRANCH  16  17
ATOM     17  C   UNL     1      82.198  51.414  42.217  0.00  0.00    +0.340 C 
ATOM     18  O   UNL     1      81.464  52.356  41.810  0.00  0.00    -0.245 OA
BRANCH  17  19
ATOM     19  C   UNL     1      81.592  50.200  42.806  0.00  0.00    +0.059 A 
ATOM     20  C   UNL     1      82.384  49.074  43.105  0.00  0.00    -0.048 A 
ATOM     21  C   UNL     1      81.803  47.930  43.661  0.00  0.00    -0.061 A 
ATOM     22  C   UNL     1      80.432  47.896  43.923  0.00  0.00    -0.062 A 
ATOM     23  C   UNL     1      79.638  49.007  43.631  0.00  0.00    -0.061 A 
ATOM     24  C   UNL     1      80.212  50.154  43.075  0.00  0.00    -0.048 A 
ENDBRANCH  17  19
ENDBRANCH  16  17
ENDBRANCH   5  16
BRANCH   2  25
ATOM     25  O   UNL     1      87.144  51.015  45.258  0.00  0.00    -0.455 OA
BRANCH  25  26
ATOM     26  C   UNL     1      86.700  50.074  46.193  0.00  0.00    +0.305 C 
ATOM     27  O   UNL     1      86.004  49.084  45.836  0.00  0.00    -0.251 OA
ATOM     28  C   UNL     1      87.038  50.254  47.634  0.00  0.00    +0.033 C 
ENDBRANCH  25  26
ENDBRANCH   2  25
TORSDOF 10
ENDMDL
