MODEL 1
REMARK VINA RESULT:    -7.939      0.000      0.000
REMARK INTER + INTRA:         -13.220
REMARK INTER:                 -11.885
REMARK INTRA:                  -1.335
REMARK UNBOUND:                -1.105
REMARK  Name = 
REMARK  12 active torsions:
REMARK  status: ('A' for Active; 'I' for Inactive)
REMARK    1  A    between atoms: O_1  and  C_2
REMARK    2  A    between atoms: C_3  and  O_23
REMARK    3  A    between atoms: C_6  and  O_14
REMARK    4  A    between atoms: C_7  and  O_8
REMARK    5  A    between atoms: C_7  and  C_9
REMARK    6  A    between atoms: C_9  and  O_10
REMARK    7  A    between atoms: O_10  and  C_11
REMARK    8  A    between atoms: C_11  and  C_13
REMARK    9  A    between atoms: O_14  and  C_15
REMARK   10  A    between atoms: C_15  and  C_17
REMARK   11  A    between atoms: O_23  and  C_24
REMARK   12  A    between atoms: C_24  and  C_26
REMARK                            x       y       z     vdW  Elec       q    Type
REMARK                         _______ _______ _______ _____ _____    ______ ____
ROOT
ATOM      1  C   UNL     1      84.702  52.897  41.356  0.00  0.00    +0.131 C 
ATOM      2  C   UNL     1      84.074  54.211  40.820  0.00  0.00    +0.150 C 
ATOM      3  C   UNL     1      83.767  55.199  41.918  0.00  0.00    -0.042 C 
ATOM      4  C   UNL     1      84.318  55.146  43.142  0.00  0.00    -0.041 C 
ATOM      5  C   UNL     1      85.157  53.983  43.628  0.00  0.00    +0.156 C 
ATOM      6  C   UNL     1      85.772  53.158  42.458  0.00  0.00    +0.170 C 
ENDROOT
BRANCH   1   7
ATOM      7  O   UNL     1      83.697  52.018  41.807  0.00  0.00    -0.385 OA
ATOM      8  H   UNL     1      83.078  51.835  41.083  0.00  0.00    +0.000 HD
ENDBRANCH   1   7
BRANCH   6   9
ATOM      9  O   UNL     1      86.878  53.834  41.894  0.00  0.00    -0.379 OA
ATOM     10  H   UNL     1      86.922  53.645  40.943  0.00  0.00    +0.000 HD
ENDBRANCH   6   9
BRANCH   6  11
ATOM     11  C   UNL     1      86.303  51.817  43.013  0.00  0.00    +0.127 C 
BRANCH  11  12
ATOM     12  O   UNL     1      86.389  50.849  41.971  0.00  0.00    -0.462 OA
BRANCH  12  13
ATOM     13  C   UNL     1      87.579  50.190  41.649  0.00  0.00    +0.304 C 
ATOM     14  O   UNL     1      87.565  49.125  40.976  0.00  0.00    -0.251 OA
ATOM     15  C   UNL     1      88.882  50.778  42.073  0.00  0.00    +0.033 C 
ENDBRANCH  12  13
ENDBRANCH  11  12
ENDBRANCH   6  11
BRANCH   5  16
ATOM     16  O   UNL     1      86.206  54.462  44.471  0.00  0.00    -0.451 OA
BRANCH  16  17
ATOM     17  C   UNL     1      86.014  55.380  45.512  0.00  0.00    +0.340 C 
ATOM     18  O   UNL     1      86.398  56.574  45.383  0.00  0.00    -0.245 OA
BRANCH  17  19
ATOM     19  C   UNL     1      85.353  54.942  46.760  0.00  0.00    +0.059 A 
ATOM     20  C   UNL     1      84.301  55.694  47.319  0.00  0.00    -0.048 A 
ATOM     21  C   UNL     1      83.682  55.273  48.500  0.00  0.00    -0.061 A 
ATOM     22  C   UNL     1      84.104  54.103  49.134  0.00  0.00    -0.062 A 
ATOM     23  C   UNL     1      85.146  53.350  48.589  0.00  0.00    -0.061 A 
ATOM     24  C   UNL     1      85.768  53.765  47.409  0.00  0.00    -0.048 A 
ENDBRANCH  17  19
ENDBRANCH  16  17
ENDBRANCH   5  16
BRANCH   2  25
ATOM     25  O   UNL     1      84.948  54.843  39.882  0.00  0.00    -0.455 OA
BRANCH  25  26
ATOM     26  C   UNL     1      84.535  55.829  38.980  0.00  0.00    +0.305 C 
ATOM     27  O   UNL     1      85.300  56.782  38.667  0.00  0.00    -0.251 OA
ATOM     28  C   UNL     1      83.166  55.763  38.395  0.00  0.00    +0.033 C 
ENDBRANCH  25  26
ENDBRANCH   2  25
TORSDOF 10
ENDMDL
MODEL 2
REMARK VINA RESULT:    -7.893      1.922      6.715
REMARK INTER + INTRA:         -13.150
REMARK INTER:                 -11.353
REMARK INTRA:                  -1.797
REMARK UNBOUND:                -1.105
REMARK  Name = 
REMARK  12 active torsions:
REMARK  status: ('A' for Active; 'I' for Inactive)
REMARK    1  A    between atoms: O_1  and  C_2
REMARK    2  A    between atoms: C_3  and  O_23
REMARK    3  A    between atoms: C_6  and  O_14
REMARK    4  A    between atoms: C_7  and  O_8
REMARK    5  A    between atoms: C_7  and  C_9
REMARK    6  A    between atoms: C_9  and  O_10
REMARK    7  A    between atoms: O_10  and  C_11
REMARK    8  A    between atoms: C_11  and  C_13
REMARK    9  A    between atoms: O_14  and  C_15
REMARK   10  A    between atoms: C_15  and  C_17
REMARK   11  A    between atoms: O_23  and  C_24
REMARK   12  A    between atoms: C_24  and  C_26
REMARK                            x       y       z     vdW  Elec       q    Type
REMARK                         _______ _______ _______ _____ _____    ______ ____
ROOT
ATOM      1  C   UNL     1      85.269  53.239  43.977  0.00  0.00    +0.131 C 
ATOM      2  C   UNL     1      85.933  53.242  45.380  0.00  0.00    +0.150 C 
ATOM      3  C   UNL     1      87.013  52.197  45.514  0.00  0.00    -0.042 C 
ATOM      4  C   UNL     1      87.616  51.610  44.468  0.00  0.00    -0.041 C 
ATOM      5  C   UNL     1      87.149  51.780  43.036  0.00  0.00    +0.156 C 
ATOM      6  C   UNL     1      86.311  53.076  42.829  0.00  0.00    +0.170 C 
ENDROOT
BRANCH   1   7
ATOM      7  O   UNL     1      84.265  52.253  43.909  0.00  0.00    -0.385 OA
ATOM      8  H   UNL     1      84.652  51.416  43.609  0.00  0.00    +0.000 HD
ENDBRANCH   1   7
BRANCH   6   9
ATOM      9  O   UNL     1      87.147  54.214  42.784  0.00  0.00    -0.379 OA
ATOM     10  H   UNL     1      87.901  54.085  43.382  0.00  0.00    +0.000 HD
ENDBRANCH   6   9
BRANCH   6  11
ATOM     11  C   UNL     1      85.591  52.995  41.464  0.00  0.00    +0.127 C 
BRANCH  11  12
ATOM     12  O   UNL     1      84.363  53.719  41.508  0.00  0.00    -0.462 OA
BRANCH  12  13
ATOM     13  C   UNL     1      84.229  55.010  40.990  0.00  0.00    +0.304 C 
ATOM     14  O   UNL     1      84.858  55.977  41.498  0.00  0.00    -0.251 OA
ATOM     15  C   UNL     1      83.363  55.236  39.798  0.00  0.00    +0.033 C 
ENDBRANCH  12  13
ENDBRANCH  11  12
ENDBRANCH   6  11
BRANCH   5  16
ATOM     16  O   UNL     1      88.278  51.802  42.160  0.00  0.00    -0.451 OA
BRANCH  16  17
ATOM     17  C   UNL     1      88.584  50.776  41.255  0.00  0.00    +0.340 C 
ATOM     18  O   UNL     1      88.410  50.951  40.018  0.00  0.00    -0.245 OA
BRANCH  17  19
ATOM     19  C   UNL     1      89.116  49.492  41.758  0.00  0.00    +0.059 A 
ATOM     20  C   UNL     1      88.402  48.293  41.567  0.00  0.00    -0.048 A 
ATOM     21  C   UNL     1      88.912  47.083  42.046  0.00  0.00    -0.061 A 
ATOM     22  C   UNL     1      90.135  47.055  42.719  0.00  0.00    -0.062 A 
ATOM     23  C   UNL     1      90.851  48.237  42.914  0.00  0.00    -0.061 A 
ATOM     24  C   UNL     1      90.347  49.450  42.437  0.00  0.00    -0.048 A 
ENDBRANCH  17  19
ENDBRANCH  16  17
ENDBRANCH   5  16
BRANCH   2  25
ATOM     25  O   UNL     1      86.509  54.519  45.663  0.00  0.00    -0.455 OA
BRANCH  25  26
ATOM     26  C   UNL     1      85.813  55.727  45.542  0.00  0.00    +0.305 C 
ATOM     27  O   UNL     1      86.047  56.517  44.586  0.00  0.00    -0.251 OA
ATOM     28  C   UNL     1      84.795  56.094  46.567  0.00  0.00    +0.033 C 
ENDBRANCH  25  26
ENDBRANCH   2  25
TORSDOF 10
ENDMDL
MODEL 3
REMARK VINA RESULT:    -7.825      1.494      4.873
REMARK INTER + INTRA:         -13.047
REMARK INTER:                 -11.726
REMARK INTRA:                  -1.321
REMARK UNBOUND:                -1.105
REMARK  Name = 
REMARK  12 active torsions:
REMARK  status: ('A' for Active; 'I' for Inactive)
REMARK    1  A    between atoms: O_1  and  C_2
REMARK    2  A    between atoms: C_3  and  O_23
REMARK    3  A    between atoms: C_6  and  O_14
REMARK    4  A    between atoms: C_7  and  O_8
REMARK    5  A    between atoms: C_7  and  C_9
REMARK    6  A    between atoms: C_9  and  O_10
REMARK    7  A    between atoms: O_10  and  C_11
REMARK    8  A    between atoms: C_11  and  C_13
REMARK    9  A    between atoms: O_14  and  C_15
REMARK   10  A    between atoms: C_15  and  C_17
REMARK   11  A    between atoms: O_23  and  C_24
REMARK   12  A    between atoms: C_24  and  C_26
REMARK                            x       y       z     vdW  Elec       q    Type
REMARK                         _______ _______ _______ _____ _____    ______ ____
ROOT
ATOM      1  C   UNL     1      86.958  52.276  40.213  0.00  0.00    +0.131 C 
ATOM      2  C   UNL     1      88.266  51.578  40.675  0.00  0.00    +0.150 C 
ATOM      3  C   UNL     1      88.880  52.236  41.886  0.00  0.00    -0.042 C 
ATOM      4  C   UNL     1      88.205  53.052  42.711  0.00  0.00    -0.041 C 
ATOM      5  C   UNL     1      86.811  53.566  42.419  0.00  0.00    +0.156 C 
ATOM      6  C   UNL     1      86.039  52.662  41.411  0.00  0.00    +0.170 C 
ENDROOT
BRANCH   1   7
ATOM      7  O   UNL     1      87.254  53.392  39.406  0.00  0.00    -0.385 OA
ATOM      8  H   UNL     1      88.151  53.305  39.048  0.00  0.00    +0.000 HD
ENDBRANCH   1   7
BRANCH   6   9
ATOM      9  O   UNL     1      85.569  51.491  42.045  0.00  0.00    -0.379 OA
ATOM     10  H   UNL     1      85.954  51.427  42.933  0.00  0.00    +0.000 HD
ENDBRANCH   6   9
BRANCH   6  11
ATOM     11  C   UNL     1      84.795  53.426  40.903  0.00  0.00    +0.127 C 
BRANCH  11  12
ATOM     12  O   UNL     1      85.140  54.770  40.574  0.00  0.00    -0.462 OA
BRANCH  12  13
ATOM     13  C   UNL     1      84.420  55.528  39.646  0.00  0.00    +0.304 C 
ATOM     14  O   UNL     1      85.001  56.380  38.921  0.00  0.00    -0.251 OA
ATOM     15  C   UNL     1      82.957  55.295  39.484  0.00  0.00    +0.033 C 
ENDBRANCH  12  13
ENDBRANCH  11  12
ENDBRANCH   6  11
BRANCH   5  16
ATOM     16  O   UNL     1      86.065  53.661  43.634  0.00  0.00    -0.451 OA
BRANCH  16  17
ATOM     17  C   UNL     1      85.774  54.871  44.278  0.00  0.00    +0.340 C 
ATOM     18  O   UNL     1      86.094  55.967  43.742  0.00  0.00    -0.245 OA
BRANCH  17  19
ATOM     19  C   UNL     1      85.085  54.856  45.586  0.00  0.00    +0.059 A 
ATOM     20  C   UNL     1      84.675  56.057  46.197  0.00  0.00    -0.048 A 
ATOM     21  C   UNL     1      84.024  56.034  47.435  0.00  0.00    -0.061 A 
ATOM     22  C   UNL     1      83.777  54.817  48.074  0.00  0.00    -0.062 A 
ATOM     23  C   UNL     1      84.179  53.621  47.477  0.00  0.00    -0.061 A 
ATOM     24  C   UNL     1      84.829  53.637  46.240  0.00  0.00    -0.048 A 
ENDBRANCH  17  19
ENDBRANCH  16  17
ENDBRANCH   5  16
BRANCH   2  25
ATOM     25  O   UNL     1      88.022  50.205  40.986  0.00  0.00    -0.455 OA
BRANCH  25  26
ATOM     26  C   UNL     1      88.869  49.429  41.785  0.00  0.00    +0.305 C 
ATOM     27  O   UNL     1      90.015  49.094  41.379  0.00  0.00    -0.251 OA
ATOM     28  C   UNL     1      88.402  48.976  43.126  0.00  0.00    +0.033 C 
ENDBRANCH  25  26
ENDBRANCH   2  25
TORSDOF 10
ENDMDL
MODEL 4
REMARK VINA RESULT:    -7.756      2.693      5.768
REMARK INTER + INTRA:         -12.941
REMARK INTER:                 -11.697
REMARK INTRA:                  -1.244
REMARK UNBOUND:                -1.105
REMARK  Name = 
REMARK  12 active torsions:
REMARK  status: ('A' for Active; 'I' for Inactive)
REMARK    1  A    between atoms: O_1  and  C_2
REMARK    2  A    between atoms: C_3  and  O_23
REMARK    3  A    between atoms: C_6  and  O_14
REMARK    4  A    between atoms: C_7  and  O_8
REMARK    5  A    between atoms: C_7  and  C_9
REMARK    6  A    between atoms: C_9  and  O_10
REMARK    7  A    between atoms: O_10  and  C_11
REMARK    8  A    between atoms: C_11  and  C_13
REMARK    9  A    between atoms: O_14  and  C_15
REMARK   10  A    between atoms: C_15  and  C_17
REMARK   11  A    between atoms: O_23  and  C_24
REMARK   12  A    between atoms: C_24  and  C_26
REMARK                            x       y       z     vdW  Elec       q    Type
REMARK                         _______ _______ _______ _____ _____    ______ ____
ROOT
ATOM      1  C   UNL     1      85.232  54.106  42.580  0.00  0.00    +0.131 C 
ATOM      2  C   UNL     1      85.114  54.937  43.885  0.00  0.00    +0.150 C 
ATOM      3  C   UNL     1      85.426  54.129  45.120  0.00  0.00    -0.042 C 
ATOM      4  C   UNL     1      86.105  52.971  45.099  0.00  0.00    -0.041 C 
ATOM      5  C   UNL     1      86.466  52.240  43.822  0.00  0.00    +0.156 C 
ATOM      6  C   UNL     1      86.485  53.178  42.579  0.00  0.00    +0.170 C 
ENDROOT
BRANCH   1   7
ATOM      7  O   UNL     1      84.048  53.377  42.351  0.00  0.00    -0.385 OA
ATOM      8  H   UNL     1      83.923  53.254  41.397  0.00  0.00    +0.000 HD
ENDBRANCH   1   7
BRANCH   6   9
ATOM      9  O   UNL     1      87.657  53.966  42.563  0.00  0.00    -0.379 OA
ATOM     10  H   UNL     1      88.425  53.400  42.388  0.00  0.00    +0.000 HD
ENDBRANCH   6   9
BRANCH   6  11
ATOM     11  C   UNL     1      86.508  52.315  41.299  0.00  0.00    +0.127 C 
BRANCH  11  12
ATOM     12  O   UNL     1      87.186  53.003  40.250  0.00  0.00    -0.462 OA
BRANCH  12  13
ATOM     13  C   UNL     1      88.430  52.596  39.761  0.00  0.00    +0.304 C 
ATOM     14  O   UNL     1      89.080  53.325  38.964  0.00  0.00    -0.251 OA
ATOM     15  C   UNL     1      89.013  51.304  40.222  0.00  0.00    +0.033 C 
ENDBRANCH  12  13
ENDBRANCH  11  12
ENDBRANCH   6  11
BRANCH   5  16
ATOM     16  O   UNL     1      87.745  51.619  43.965  0.00  0.00    -0.451 OA
BRANCH  16  17
ATOM     17  C   UNL     1      87.928  50.298  44.393  0.00  0.00    +0.340 C 
ATOM     18  O   UNL     1      87.580  49.954  45.556  0.00  0.00    -0.245 OA
BRANCH  17  19
ATOM     19  C   UNL     1      88.527  49.307  43.473  0.00  0.00    +0.059 A 
ATOM     20  C   UNL     1      89.916  49.076  43.470  0.00  0.00    -0.048 A 
ATOM     21  C   UNL     1      90.475  48.138  42.596  0.00  0.00    -0.061 A 
ATOM     22  C   UNL     1      89.657  47.424  41.719  0.00  0.00    -0.062 A 
ATOM     23  C   UNL     1      88.278  47.645  41.713  0.00  0.00    -0.061 A 
ATOM     24  C   UNL     1      87.714  48.581  42.584  0.00  0.00    -0.048 A 
ENDBRANCH  17  19
ENDBRANCH  16  17
ENDBRANCH   5  16
BRANCH   2  25
ATOM     25  O   UNL     1      85.998  56.060  43.850  0.00  0.00    -0.455 OA
BRANCH  25  26
ATOM     26  C   UNL     1      85.599  57.370  44.135  0.00  0.00    +0.305 C 
ATOM     27  O   UNL     1      85.409  58.205  43.209  0.00  0.00    -0.251 OA
ATOM     28  C   UNL     1      85.416  57.790  45.553  0.00  0.00    +0.033 C 
ENDBRANCH  25  26
ENDBRANCH   2  25
TORSDOF 10
ENDMDL
MODEL 5
REMARK VINA RESULT:    -7.655      1.473      2.038
REMARK INTER + INTRA:         -12.788
REMARK INTER:                 -11.235
REMARK INTRA:                  -1.553
REMARK UNBOUND:                -1.105
REMARK  Name = 
REMARK  12 active torsions:
REMARK  status: ('A' for Active; 'I' for Inactive)
REMARK    1  A    between atoms: O_1  and  C_2
REMARK    2  A    between atoms: C_3  and  O_23
REMARK    3  A    between atoms: C_6  and  O_14
REMARK    4  A    between atoms: C_7  and  O_8
REMARK    5  A    between atoms: C_7  and  C_9
REMARK    6  A    between atoms: C_9  and  O_10
REMARK    7  A    between atoms: O_10  and  C_11
REMARK    8  A    between atoms: C_11  and  C_13
REMARK    9  A    between atoms: O_14  and  C_15
REMARK   10  A    between atoms: C_15  and  C_17
REMARK   11  A    between atoms: O_23  and  C_24
REMARK   12  A    between atoms: C_24  and  C_26
REMARK                            x       y       z     vdW  Elec       q    Type
REMARK                         _______ _______ _______ _____ _____    ______ ____
ROOT
ATOM      1  C   UNL     1      84.365  52.978  41.329  0.00  0.00    +0.131 C 
ATOM      2  C   UNL     1      83.968  54.437  40.980  0.00  0.00    +0.150 C 
ATOM      3  C   UNL     1      83.883  55.324  42.197  0.00  0.00    -0.042 C 
ATOM      4  C   UNL     1      84.457  55.028  43.375  0.00  0.00    -0.041 C 
ATOM      5  C   UNL     1      85.087  53.685  43.680  0.00  0.00    +0.156 C 
ATOM      6  C   UNL     1      85.502  52.912  42.393  0.00  0.00    +0.170 C 
ENDROOT
BRANCH   1   7
ATOM      7  O   UNL     1      83.233  52.242  41.734  0.00  0.00    -0.385 OA
ATOM      8  H   UNL     1      82.894  51.730  40.983  0.00  0.00    +0.000 HD
ENDBRANCH   1   7
BRANCH   6   9
ATOM      9  O   UNL     1      86.692  53.445  41.849  0.00  0.00    -0.379 OA
ATOM     10  H   UNL     1      87.289  53.704  42.568  0.00  0.00    +0.000 HD
ENDBRANCH   6   9
BRANCH   6  11
ATOM     11  C   UNL     1      85.799  51.442  42.765  0.00  0.00    +0.127 C 
BRANCH  11  12
ATOM     12  O   UNL     1      84.814  50.952  43.671  0.00  0.00    -0.462 OA
BRANCH  12  13
ATOM     13  C   UNL     1      85.018  49.823  44.470  0.00  0.00    +0.304 C 
ATOM     14  O   UNL     1      84.072  49.028  44.716  0.00  0.00    -0.251 OA
ATOM     15  C   UNL     1      86.381  49.536  45.002  0.00  0.00    +0.033 C 
ENDBRANCH  12  13
ENDBRANCH  11  12
ENDBRANCH   6  11
BRANCH   5  16
ATOM     16  O   UNL     1      86.234  53.868  44.512  0.00  0.00    -0.451 OA
BRANCH  16  17
ATOM     17  C   UNL     1      86.296  53.471  45.855  0.00  0.00    +0.340 C 
ATOM     18  O   UNL     1      87.187  52.663  46.236  0.00  0.00    -0.245 OA
BRANCH  17  19
ATOM     19  C   UNL     1      85.315  54.007  46.822  0.00  0.00    +0.059 A 
ATOM     20  C   UNL     1      84.544  53.140  47.622  0.00  0.00    -0.048 A 
ATOM     21  C   UNL     1      83.619  53.655  48.534  0.00  0.00    -0.061 A 
ATOM     22  C   UNL     1      83.451  55.036  48.658  0.00  0.00    -0.062 A 
ATOM     23  C   UNL     1      84.209  55.905  47.870  0.00  0.00    -0.061 A 
ATOM     24  C   UNL     1      85.137  55.396  46.957  0.00  0.00    -0.048 A 
ENDBRANCH  17  19
ENDBRANCH  16  17
ENDBRANCH   5  16
BRANCH   2  25
ATOM     25  O   UNL     1      84.910  55.012  40.072  0.00  0.00    -0.455 OA
BRANCH  25  26
ATOM     26  C   UNL     1      84.552  55.863  39.020  0.00  0.00    +0.305 C 
ATOM     27  O   UNL     1      85.324  56.788  38.645  0.00  0.00    -0.251 OA
ATOM     28  C   UNL     1      83.235  55.687  38.348  0.00  0.00    +0.033 C 
ENDBRANCH  25  26
ENDBRANCH   2  25
TORSDOF 10
ENDMDL
MODEL 6
REMARK VINA RESULT:    -7.588      2.172      3.188
REMARK INTER + INTRA:         -12.685
REMARK INTER:                 -11.033
REMARK INTRA:                  -1.653
REMARK UNBOUND:                -1.105
REMARK  Name = 
REMARK  12 active torsions:
REMARK  status: ('A' for Active; 'I' for Inactive)
REMARK    1  A    between atoms: O_1  and  C_2
REMARK    2  A    between atoms: C_3  and  O_23
REMARK    3  A    between atoms: C_6  and  O_14
REMARK    4  A    between atoms: C_7  and  O_8
REMARK    5  A    between atoms: C_7  and  C_9
REMARK    6  A    between atoms: C_9  and  O_10
REMARK    7  A    between atoms: O_10  and  C_11
REMARK    8  A    between atoms: C_11  and  C_13
REMARK    9  A    between atoms: O_14  and  C_15
REMARK   10  A    between atoms: C_15  and  C_17
REMARK   11  A    between atoms: O_23  and  C_24
REMARK   12  A    between atoms: C_24  and  C_26
REMARK                            x       y       z     vdW  Elec       q    Type
REMARK                         _______ _______ _______ _____ _____    ______ ____
ROOT
ATOM      1  C   UNL     1      86.417  52.461  41.353  0.00  0.00    +0.131 C 
ATOM      2  C   UNL     1      84.919  52.338  41.742  0.00  0.00    +0.150 C 
ATOM      3  C   UNL     1      84.708  51.512  42.987  0.00  0.00    -0.042 C 
ATOM      4  C   UNL     1      85.676  51.251  43.880  0.00  0.00    -0.041 C 
ATOM      5  C   UNL     1      87.136  51.585  43.647  0.00  0.00    +0.156 C 
ATOM      6  C   UNL     1      87.331  52.712  42.590  0.00  0.00    +0.170 C 
ENDROOT
BRANCH   1   7
ATOM      7  O   UNL     1      86.832  51.330  40.623  0.00  0.00    -0.385 OA
ATOM      8  H   UNL     1      86.341  50.550  40.926  0.00  0.00    +0.000 HD
ENDBRANCH   1   7
BRANCH   6   9
ATOM      9  O   UNL     1      87.040  53.978  43.146  0.00  0.00    -0.379 OA
ATOM     10  H   UNL     1      86.168  53.951  43.571  0.00  0.00    +0.000 HD
ENDBRANCH   6   9
BRANCH   6  11
ATOM     11  C   UNL     1      88.814  52.743  42.158  0.00  0.00    +0.127 C 
BRANCH  11  12
ATOM     12  O   UNL     1      88.953  53.418  40.910  0.00  0.00    -0.462 OA
BRANCH  12  13
ATOM     13  C   UNL     1      89.777  52.946  39.884  0.00  0.00    +0.304 C 
ATOM     14  O   UNL     1      89.538  51.844  39.321  0.00  0.00    -0.251 OA
ATOM     15  C   UNL     1      90.927  53.776  39.425  0.00  0.00    +0.033 C 
ENDBRANCH  12  13
ENDBRANCH  11  12
ENDBRANCH   6  11
BRANCH   5  16
ATOM     16  O   UNL     1      87.743  51.981  44.878  0.00  0.00    -0.451 OA
BRANCH  16  17
ATOM     17  C   UNL     1      87.249  51.630  46.142  0.00  0.00    +0.340 C 
ATOM     18  O   UNL     1      87.427  50.465  46.591  0.00  0.00    -0.245 OA
BRANCH  17  19
ATOM     19  C   UNL     1      86.522  52.635  46.947  0.00  0.00    +0.059 A 
ATOM     20  C   UNL     1      85.836  52.258  48.118  0.00  0.00    -0.048 A 
ATOM     21  C   UNL     1      85.151  53.214  48.875  0.00  0.00    -0.061 A 
ATOM     22  C   UNL     1      85.143  54.551  48.472  0.00  0.00    -0.062 A 
ATOM     23  C   UNL     1      85.819  54.936  47.313  0.00  0.00    -0.061 A 
ATOM     24  C   UNL     1      86.506  53.985  46.553  0.00  0.00    -0.048 A 
ENDBRANCH  17  19
ENDBRANCH  16  17
ENDBRANCH   5  16
BRANCH   2  25
ATOM     25  O   UNL     1      84.346  53.629  41.958  0.00  0.00    -0.455 OA
BRANCH  25  26
ATOM     26  C   UNL     1      84.545  54.718  41.104  0.00  0.00    +0.305 C 
ATOM     27  O   UNL     1      85.019  55.804  41.538  0.00  0.00    -0.251 OA
ATOM     28  C   UNL     1      84.173  54.602  39.666  0.00  0.00    +0.033 C 
ENDBRANCH  25  26
ENDBRANCH   2  25
TORSDOF 10
ENDMDL
MODEL 7
REMARK VINA RESULT:    -7.417      3.452      5.594
REMARK INTER + INTRA:         -12.424
REMARK INTER:                 -11.319
REMARK INTRA:                  -1.105
REMARK UNBOUND:                -1.105
REMARK  Name = 
REMARK  12 active torsions:
REMARK  status: ('A' for Active; 'I' for Inactive)
REMARK    1  A    between atoms: O_1  and  C_2
REMARK    2  A    between atoms: C_3  and  O_23
REMARK    3  A    between atoms: C_6  and  O_14
REMARK    4  A    between atoms: C_7  and  O_8
REMARK    5  A    between atoms: C_7  and  C_9
REMARK    6  A    between atoms: C_9  and  O_10
REMARK    7  A    between atoms: O_10  and  C_11
REMARK    8  A    between atoms: C_11  and  C_13
REMARK    9  A    between atoms: O_14  and  C_15
REMARK   10  A    between atoms: C_15  and  C_17
REMARK   11  A    between atoms: O_23  and  C_24
REMARK   12  A    between atoms: C_24  and  C_26
REMARK                            x       y       z     vdW  Elec       q    Type
REMARK                         _______ _______ _______ _____ _____    ______ ____
ROOT
ATOM      1  C   UNL     1      85.943  54.513  43.432  0.00  0.00    +0.131 C 
ATOM      2  C   UNL     1      85.185  55.817  43.066  0.00  0.00    +0.150 C 
ATOM      3  C   UNL     1      83.932  55.556  42.267  0.00  0.00    -0.042 C 
ATOM      4  C   UNL     1      83.319  54.363  42.213  0.00  0.00    -0.041 C 
ATOM      5  C   UNL     1      83.915  53.094  42.785  0.00  0.00    +0.156 C 
ATOM      6  C   UNL     1      84.981  53.375  43.886  0.00  0.00    +0.170 C 
ENDROOT
BRANCH   1   7
ATOM      7  O   UNL     1      86.762  54.103  42.361  0.00  0.00    -0.385 OA
ATOM      8  H   UNL     1      87.643  53.873  42.696  0.00  0.00    +0.000 HD
ENDBRANCH   1   7
BRANCH   6   9
ATOM      9  O   UNL     1      84.361  53.736  45.103  0.00  0.00    -0.379 OA
ATOM     10  H   UNL     1      83.720  54.447  44.942  0.00  0.00    +0.000 HD
ENDBRANCH   6   9
BRANCH   6  11
ATOM     11  C   UNL     1      85.777  52.079  44.156  0.00  0.00    +0.127 C 
BRANCH  11  12
ATOM     12  O   UNL     1      86.928  52.362  44.950  0.00  0.00    -0.462 OA
BRANCH  12  13
ATOM     13  C   UNL     1      86.971  52.124  46.327  0.00  0.00    +0.304 C 
ATOM     14  O   UNL     1      86.474  52.949  47.140  0.00  0.00    -0.251 OA
ATOM     15  C   UNL     1      87.577  50.860  46.835  0.00  0.00    +0.033 C 
ENDBRANCH  12  13
ENDBRANCH  11  12
ENDBRANCH   6  11
BRANCH   5  16
ATOM     16  O   UNL     1      82.879  52.275  43.329  0.00  0.00    -0.451 OA
BRANCH  16  17
ATOM     17  C   UNL     1      82.089  51.404  42.565  0.00  0.00    +0.340 C 
ATOM     18  O   UNL     1      81.945  51.601  41.327  0.00  0.00    -0.245 OA
BRANCH  17  19
ATOM     19  C   UNL     1      81.430  50.252  43.217  0.00  0.00    +0.059 A 
ATOM     20  C   UNL     1      80.028  50.200  43.339  0.00  0.00    -0.048 A 
ATOM     21  C   UNL     1      79.413  49.107  43.957  0.00  0.00    -0.061 A 
ATOM     22  C   UNL     1      80.187  48.058  44.459  0.00  0.00    -0.062 A 
ATOM     23  C   UNL     1      81.577  48.100  44.344  0.00  0.00    -0.061 A 
ATOM     24  C   UNL     1      82.198  49.190  43.726  0.00  0.00    -0.048 A 
ENDBRANCH  17  19
ENDBRANCH  16  17
ENDBRANCH   5  16
BRANCH   2  25
ATOM     25  O   UNL     1      84.821  56.537  44.246  0.00  0.00    -0.455 OA
BRANCH  25  26
ATOM     26  C   UNL     1      85.230  57.849  44.511  0.00  0.00    +0.305 C 
ATOM     27  O   UNL     1      85.792  58.543  43.620  0.00  0.00    -0.251 OA
ATOM     28  C   UNL     1      85.016  58.425  45.868  0.00  0.00    +0.033 C 
ENDBRANCH  25  26
ENDBRANCH   2  25
TORSDOF 10
ENDMDL
MODEL 8
REMARK VINA RESULT:    -7.343      1.912      5.218
REMARK INTER + INTRA:         -12.311
REMARK INTER:                 -10.710
REMARK INTRA:                  -1.601
REMARK UNBOUND:                -1.105
REMARK  Name = 
REMARK  12 active torsions:
REMARK  status: ('A' for Active; 'I' for Inactive)
REMARK    1  A    between atoms: O_1  and  C_2
REMARK    2  A    between atoms: C_3  and  O_23
REMARK    3  A    between atoms: C_6  and  O_14
REMARK    4  A    between atoms: C_7  and  O_8
REMARK    5  A    between atoms: C_7  and  C_9
REMARK    6  A    between atoms: C_9  and  O_10
REMARK    7  A    between atoms: O_10  and  C_11
REMARK    8  A    between atoms: C_11  and  C_13
REMARK    9  A    between atoms: O_14  and  C_15
REMARK   10  A    between atoms: C_15  and  C_17
REMARK   11  A    between atoms: O_23  and  C_24
REMARK   12  A    between atoms: C_24  and  C_26
REMARK                            x       y       z     vdW  Elec       q    Type
REMARK                         _______ _______ _______ _____ _____    ______ ____
ROOT
ATOM      1  C   UNL     1      86.790  51.785  41.538  0.00  0.00    +0.131 C 
ATOM      2  C   UNL     1      87.924  50.730  41.638  0.00  0.00    +0.150 C 
ATOM      3  C   UNL     1      88.534  50.661  43.016  0.00  0.00    -0.042 C 
ATOM      4  C   UNL     1      87.935  51.137  44.119  0.00  0.00    -0.041 C 
ATOM      5  C   UNL     1      86.671  51.971  44.087  0.00  0.00    +0.156 C 
ATOM      6  C   UNL     1      85.849  51.763  42.780  0.00  0.00    +0.170 C 
ENDROOT
BRANCH   1   7
ATOM      7  O   UNL     1      87.329  53.069  41.318  0.00  0.00    -0.385 OA
ATOM      8  H   UNL     1      88.003  53.023  40.622  0.00  0.00    +0.000 HD
ENDBRANCH   1   7
BRANCH   6   9
ATOM      9  O   UNL     1      85.145  50.540  42.819  0.00  0.00    -0.379 OA
ATOM     10  H   UNL     1      85.740  49.833  43.117  0.00  0.00    +0.000 HD
ENDBRANCH   6   9
BRANCH   6  11
ATOM     11  C   UNL     1      84.793  52.885  42.668  0.00  0.00    +0.127 C 
BRANCH  11  12
ATOM     12  O   UNL     1      85.348  54.131  43.082  0.00  0.00    -0.462 OA
BRANCH  12  13
ATOM     13  C   UNL     1      84.876  55.360  42.613  0.00  0.00    +0.304 C 
ATOM     14  O   UNL     1      84.918  55.640  41.385  0.00  0.00    -0.251 OA
ATOM     15  C   UNL     1      84.281  56.334  43.572  0.00  0.00    +0.033 C 
ENDBRANCH  12  13
ENDBRANCH  11  12
ENDBRANCH   6  11
BRANCH   5  16
ATOM     16  O   UNL     1      85.853  51.654  45.215  0.00  0.00    -0.451 OA
BRANCH  16  17
ATOM     17  C   UNL     1      86.064  52.167  46.501  0.00  0.00    +0.340 C 
ATOM     18  O   UNL     1      86.633  51.462  47.379  0.00  0.00    -0.245 OA
BRANCH  17  19
ATOM     19  C   UNL     1      85.622  53.541  46.823  0.00  0.00    +0.059 A 
ATOM     20  C   UNL     1      84.344  53.776  47.367  0.00  0.00    -0.048 A 
ATOM     21  C   UNL     1      83.933  55.078  47.668  0.00  0.00    -0.061 A 
ATOM     22  C   UNL     1      84.789  56.156  47.430  0.00  0.00    -0.062 A 
ATOM     23  C   UNL     1      86.057  55.934  46.890  0.00  0.00    -0.061 A 
ATOM     24  C   UNL     1      86.474  54.635  46.588  0.00  0.00    -0.048 A 
ENDBRANCH  17  19
ENDBRANCH  16  17
ENDBRANCH   5  16
BRANCH   2  25
ATOM     25  O   UNL     1      87.436  49.431  41.299  0.00  0.00    -0.455 OA
BRANCH  25  26
ATOM     26  C   UNL     1      87.921  48.248  41.867  0.00  0.00    +0.305 C 
ATOM     27  O   UNL     1      87.220  47.586  42.681  0.00  0.00    -0.251 OA
ATOM     28  C   UNL     1      89.291  47.774  41.522  0.00  0.00    +0.033 C 
ENDBRANCH  25  26
ENDBRANCH   2  25
TORSDOF 10
ENDMDL
MODEL 9
REMARK VINA RESULT:    -7.340      2.015      2.906
REMARK INTER + INTRA:         -12.307
REMARK INTER:                 -10.695
REMARK INTRA:                  -1.612
REMARK UNBOUND:                -1.105
REMARK  Name = 
REMARK  12 active torsions:
REMARK  status: ('A' for Active; 'I' for Inactive)
REMARK    1  A    between atoms: O_1  and  C_2
REMARK    2  A    between atoms: C_3  and  O_23
REMARK    3  A    between atoms: C_6  and  O_14
REMARK    4  A    between atoms: C_7  and  O_8
REMARK    5  A    between atoms: C_7  and  C_9
REMARK    6  A    between atoms: C_9  and  O_10
REMARK    7  A    between atoms: O_10  and  C_11
REMARK    8  A    between atoms: C_11  and  C_13
REMARK    9  A    between atoms: O_14  and  C_15
REMARK   10  A    between atoms: C_15  and  C_17
REMARK   11  A    between atoms: O_23  and  C_24
REMARK   12  A    between atoms: C_24  and  C_26
REMARK                            x       y       z     vdW  Elec       q    Type
REMARK                         _______ _______ _______ _____ _____    ______ ____
ROOT
ATOM      1  C   UNL     1      85.679  51.534  42.354  0.00  0.00    +0.131 C 
ATOM      2  C   UNL     1      84.282  52.203  42.247  0.00  0.00    +0.150 C 
ATOM      3  C   UNL     1      83.806  52.769  43.562  0.00  0.00    -0.042 C 
ATOM      4  C   UNL     1      84.621  53.034  44.596  0.00  0.00    -0.041 C 
ATOM      5  C   UNL     1      86.076  52.615  44.639  0.00  0.00    +0.156 C 
ATOM      6  C   UNL     1      86.670  52.368  43.221  0.00  0.00    +0.170 C 
ENDROOT
BRANCH   1   7
ATOM      7  O   UNL     1      85.558  50.214  42.831  0.00  0.00    -0.385 OA
ATOM      8  H   UNL     1      86.313  49.688  42.524  0.00  0.00    +0.000 HD
ENDBRANCH   1   7
BRANCH   6   9
ATOM      9  O   UNL     1      86.951  53.592  42.574  0.00  0.00    -0.379 OA
ATOM     10  H   UNL     1      87.343  53.416  41.704  0.00  0.00    +0.000 HD
ENDBRANCH   6   9
BRANCH   6  11
ATOM     11  C   UNL     1      88.014  51.618  43.363  0.00  0.00    +0.127 C 
BRANCH  11  12
ATOM     12  O   UNL     1      88.525  51.271  42.078  0.00  0.00    -0.462 OA
BRANCH  12  13
ATOM     13  C   UNL     1      88.804  49.953  41.708  0.00  0.00    +0.304 C 
ATOM     14  O   UNL     1      87.935  49.248  41.129  0.00  0.00    -0.251 OA
ATOM     15  C   UNL     1      90.160  49.389  41.965  0.00  0.00    +0.033 C 
ENDBRANCH  12  13
ENDBRANCH  11  12
ENDBRANCH   6  11
BRANCH   5  16
ATOM     16  O   UNL     1      86.847  53.615  45.307  0.00  0.00    -0.451 OA
BRANCH  16  17
ATOM     17  C   UNL     1      86.327  54.488  46.272  0.00  0.00    +0.340 C 
ATOM     18  O   UNL     1      86.184  54.101  47.465  0.00  0.00    -0.245 OA
BRANCH  17  19
ATOM     19  C   UNL     1      85.952  55.865  45.886  0.00  0.00    +0.059 A 
ATOM     20  C   UNL     1      85.060  56.615  46.677  0.00  0.00    -0.048 A 
ATOM     21  C   UNL     1      84.709  57.917  46.305  0.00  0.00    -0.061 A 
ATOM     22  C   UNL     1      85.243  58.482  45.145  0.00  0.00    -0.062 A 
ATOM     23  C   UNL     1      86.128  57.747  44.354  0.00  0.00    -0.061 A 
ATOM     24  C   UNL     1      86.483  56.446  44.720  0.00  0.00    -0.048 A 
ENDBRANCH  17  19
ENDBRANCH  16  17
ENDBRANCH   5  16
BRANCH   2  25
ATOM     25  O   UNL     1      84.301  53.260  41.286  0.00  0.00    -0.455 OA
BRANCH  25  26
ATOM     26  C   UNL     1      83.504  54.406  41.377  0.00  0.00    +0.305 C 
ATOM     27  O   UNL     1      82.290  54.379  41.035  0.00  0.00    -0.251 OA
ATOM     28  C   UNL     1      84.102  55.680  41.867  0.00  0.00    +0.033 C 
ENDBRANCH  25  26
ENDBRANCH   2  25
TORSDOF 10
ENDMDL
