MODEL 1
REMARK VINA RESULT:    -5.728      0.000      0.000
REMARK INTER + INTRA:         -12.800
REMARK INTER:                 -10.520
REMARK INTRA:                  -2.280
REMARK UNBOUND:                -1.715
REMARK  Name = 
REMARK  17 active torsions:
REMARK  status: ('A' for Active; 'I' for Inactive)
REMARK    1  A    between atoms: C_1  and  C_2
REMARK    2  A    between atoms: C_2  and  C_3
REMARK    3  A    between atoms: C_3  and  C_4
REMARK    4  A    between atoms: C_4  and  C_5
REMARK    5  A    between atoms: C_5  and  C_6
REMARK    6  A    between atoms: C_6  and  C_7
REMARK    7  A    between atoms: C_7  and  C_8
REMARK    8  A    between atoms: C_8  and  C_9
REMARK    9  A    between atoms: C_9  and  C_10
REMARK   10  A    between atoms: C_10  and  C_11
REMARK   11  A    between atoms: C_11  and  C_12
REMARK   12  A    between atoms: C_12  and  C_13
REMARK   13  A    between atoms: C_13  and  C_14
REMARK   14  A    between atoms: C_14  and  C_15
REMARK   15  A    between atoms: C_15  and  C_16
REMARK   16  A    between atoms: C_16  and  C_17
REMARK   17  A    between atoms: C_17  and  C_18
REMARK                            x       y       z     vdW  Elec       q    Type
REMARK                         _______ _______ _______ _____ _____    ______ ____
ROOT
ATOM      1  C   UNL     1      85.404  56.501  46.889  0.00  0.00    -0.053 C 
ENDROOT
BRANCH   1   2
ATOM      2  C   UNL     1      85.378  57.855  46.164  0.00  0.00    -0.053 C 
BRANCH   2   3
ATOM      3  C   UNL     1      85.692  57.731  44.665  0.00  0.00    -0.053 C 
BRANCH   3   4
ATOM      4  C   UNL     1      86.509  56.474  44.332  0.00  0.00    -0.053 C 
BRANCH   4   5
ATOM      5  C   UNL     1      85.718  55.534  43.410  0.00  0.00    -0.053 C 
BRANCH   5   6
ATOM      6  C   UNL     1      84.417  56.165  42.884  0.00  0.00    -0.053 C 
BRANCH   6   7
ATOM      7  C   UNL     1      83.542  55.233  42.019  0.00  0.00    -0.043 C 
BRANCH   7   8
ATOM      8  C   UNL     1      84.285  54.018  41.441  0.00  0.00    +0.045 C 
BRANCH   8   9
ATOM      9  C   UNL     1      84.773  54.270  40.047  0.00  0.00    +0.305 C 
ATOM     10  O   UNL     1      85.858  53.762  39.657  0.00  0.00    -0.251 OA
ATOM     11  O   UNL     1      84.010  55.038  39.174  0.00  0.00    -0.481 OA
ENDBRANCH   8   9
ENDBRANCH   7   8
ENDBRANCH   6   7
ENDBRANCH   5   6
ENDBRANCH   4   5
ENDBRANCH   3   4
ENDBRANCH   2   3
ENDBRANCH   1   2
BRANCH   1  12
ATOM     12  C   UNL     1      84.005  55.867  46.916  0.00  0.00    -0.053 C 
BRANCH  12  13
ATOM     13  C   UNL     1      83.599  55.377  48.317  0.00  0.00    -0.053 C 
BRANCH  13  14
ATOM     14  C   UNL     1      83.294  53.869  48.415  0.00  0.00    -0.053 C 
BRANCH  14  15
ATOM     15  C   UNL     1      84.323  53.042  49.213  0.00  0.00    -0.053 C 
BRANCH  15  16
ATOM     16  C   UNL     1      85.786  53.237  48.778  0.00  0.00    -0.053 C 
BRANCH  16  17
ATOM     17  C   UNL     1      86.225  52.230  47.702  0.00  0.00    -0.053 C 
BRANCH  17  18
ATOM     18  C   UNL     1      85.922  52.714  46.273  0.00  0.00    -0.053 C 
BRANCH  18  20
ATOM     19  C   UNL     1      83.999  52.384  44.616  0.00  0.00    -0.065 C 
ATOM     20  C   UNL     1      85.122  51.719  45.411  0.00  0.00    -0.056 C 
ENDBRANCH  18  20
ENDBRANCH  17  18
ENDBRANCH  16  17
ENDBRANCH  15  16
ENDBRANCH  14  15
ENDBRANCH  13  14
ENDBRANCH  12  13
ENDBRANCH   1  12
TORSDOF 16
ENDMDL
MODEL 2
REMARK VINA RESULT:    -5.583      2.915      4.968
REMARK INTER + INTRA:         -12.519
REMARK INTER:                 -10.151
REMARK INTRA:                  -2.369
REMARK UNBOUND:                -1.715
REMARK  Name = 
REMARK  17 active torsions:
REMARK  status: ('A' for Active; 'I' for Inactive)
REMARK    1  A    between atoms: C_1  and  C_2
REMARK    2  A    between atoms: C_2  and  C_3
REMARK    3  A    between atoms: C_3  and  C_4
REMARK    4  A    between atoms: C_4  and  C_5
REMARK    5  A    between atoms: C_5  and  C_6
REMARK    6  A    between atoms: C_6  and  C_7
REMARK    7  A    between atoms: C_7  and  C_8
REMARK    8  A    between atoms: C_8  and  C_9
REMARK    9  A    between atoms: C_9  and  C_10
REMARK   10  A    between atoms: C_10  and  C_11
REMARK   11  A    between atoms: C_11  and  C_12
REMARK   12  A    between atoms: C_12  and  C_13
REMARK   13  A    between atoms: C_13  and  C_14
REMARK   14  A    between atoms: C_14  and  C_15
REMARK   15  A    between atoms: C_15  and  C_16
REMARK   16  A    between atoms: C_16  and  C_17
REMARK   17  A    between atoms: C_17  and  C_18
REMARK                            x       y       z     vdW  Elec       q    Type
REMARK                         _______ _______ _______ _____ _____    ______ ____
ROOT
ATOM      1  C   UNL     1      84.856  52.699  46.590  0.00  0.00    -0.053 C 
ENDROOT
BRANCH   1   2
ATOM      2  C   UNL     1      86.236  52.416  47.204  0.00  0.00    -0.053 C 
BRANCH   2   3
ATOM      3  C   UNL     1      87.253  51.910  46.169  0.00  0.00    -0.053 C 
BRANCH   3   4
ATOM      4  C   UNL     1      86.619  51.644  44.795  0.00  0.00    -0.053 C 
BRANCH   4   5
ATOM      5  C   UNL     1      87.690  51.603  43.696  0.00  0.00    -0.053 C 
BRANCH   5   6
ATOM      6  C   UNL     1      88.243  50.188  43.448  0.00  0.00    -0.053 C 
BRANCH   6   7
ATOM      7  C   UNL     1      88.241  49.735  41.973  0.00  0.00    -0.043 C 
BRANCH   7   8
ATOM      8  C   UNL     1      89.492  50.144  41.179  0.00  0.00    +0.045 C 
BRANCH   8   9
ATOM      9  C   UNL     1      89.278  51.410  40.408  0.00  0.00    +0.305 C 
ATOM     10  O   UNL     1      88.727  51.374  39.275  0.00  0.00    -0.251 OA
ATOM     11  O   UNL     1      89.659  52.630  40.958  0.00  0.00    -0.481 OA
ENDBRANCH   8   9
ENDBRANCH   7   8
ENDBRANCH   6   7
ENDBRANCH   5   6
ENDBRANCH   4   5
ENDBRANCH   3   4
ENDBRANCH   2   3
ENDBRANCH   1   2
BRANCH   1  12
ATOM     12  C   UNL     1      84.433  54.153  46.842  0.00  0.00    -0.053 C 
BRANCH  12  13
ATOM     13  C   UNL     1      85.356  54.880  47.836  0.00  0.00    -0.053 C 
BRANCH  13  14
ATOM     14  C   UNL     1      86.134  56.075  47.247  0.00  0.00    -0.053 C 
BRANCH  14  15
ATOM     15  C   UNL     1      85.285  57.071  46.431  0.00  0.00    -0.053 C 
BRANCH  15  16
ATOM     16  C   UNL     1      85.706  57.223  44.958  0.00  0.00    -0.053 C 
BRANCH  16  17
ATOM     17  C   UNL     1      86.815  56.239  44.553  0.00  0.00    -0.053 C 
BRANCH  17  18
ATOM     18  C   UNL     1      86.304  55.101  43.651  0.00  0.00    -0.053 C 
BRANCH  18  20
ATOM     19  C   UNL     1      84.137  53.864  43.082  0.00  0.00    -0.065 C 
ATOM     20  C   UNL     1      84.825  55.220  43.239  0.00  0.00    -0.056 C 
ENDBRANCH  18  20
ENDBRANCH  17  18
ENDBRANCH  16  17
ENDBRANCH  15  16
ENDBRANCH  14  15
ENDBRANCH  13  14
ENDBRANCH  12  13
ENDBRANCH   1  12
TORSDOF 16
ENDMDL
MODEL 3
REMARK VINA RESULT:    -5.568      2.973      5.423
REMARK INTER + INTRA:         -12.490
REMARK INTER:                  -9.824
REMARK INTRA:                  -2.666
REMARK UNBOUND:                -1.715
REMARK  Name = 
REMARK  17 active torsions:
REMARK  status: ('A' for Active; 'I' for Inactive)
REMARK    1  A    between atoms: C_1  and  C_2
REMARK    2  A    between atoms: C_2  and  C_3
REMARK    3  A    between atoms: C_3  and  C_4
REMARK    4  A    between atoms: C_4  and  C_5
REMARK    5  A    between atoms: C_5  and  C_6
REMARK    6  A    between atoms: C_6  and  C_7
REMARK    7  A    between atoms: C_7  and  C_8
REMARK    8  A    between atoms: C_8  and  C_9
REMARK    9  A    between atoms: C_9  and  C_10
REMARK   10  A    between atoms: C_10  and  C_11
REMARK   11  A    between atoms: C_11  and  C_12
REMARK   12  A    between atoms: C_12  and  C_13
REMARK   13  A    between atoms: C_13  and  C_14
REMARK   14  A    between atoms: C_14  and  C_15
REMARK   15  A    between atoms: C_15  and  C_16
REMARK   16  A    between atoms: C_16  and  C_17
REMARK   17  A    between atoms: C_17  and  C_18
REMARK                            x       y       z     vdW  Elec       q    Type
REMARK                         _______ _______ _______ _____ _____    ______ ____
ROOT
ATOM      1  C   UNL     1      87.149  52.401  44.800  0.00  0.00    -0.053 C 
ENDROOT
BRANCH   1   2
ATOM      2  C   UNL     1      87.424  51.492  46.008  0.00  0.00    -0.053 C 
BRANCH   2   3
ATOM      3  C   UNL     1      87.404  50.000  45.644  0.00  0.00    -0.053 C 
BRANCH   3   4
ATOM      4  C   UNL     1      88.365  49.657  44.496  0.00  0.00    -0.053 C 
BRANCH   4   5
ATOM      5  C   UNL     1      87.617  48.976  43.340  0.00  0.00    -0.053 C 
BRANCH   5   6
ATOM      6  C   UNL     1      87.816  49.692  41.992  0.00  0.00    -0.053 C 
BRANCH   6   7
ATOM      7  C   UNL     1      89.086  50.565  41.898  0.00  0.00    -0.043 C 
BRANCH   7   8
ATOM      8  C   UNL     1      88.823  52.035  41.535  0.00  0.00    +0.045 C 
BRANCH   8   9
ATOM      9  C   UNL     1      88.345  52.189  40.124  0.00  0.00    +0.305 C 
ATOM     10  O   UNL     1      87.404  52.984  39.860  0.00  0.00    -0.251 OA
ATOM     11  O   UNL     1      88.963  51.477  39.101  0.00  0.00    -0.481 OA
ENDBRANCH   8   9
ENDBRANCH   7   8
ENDBRANCH   6   7
ENDBRANCH   5   6
ENDBRANCH   4   5
ENDBRANCH   3   4
ENDBRANCH   2   3
ENDBRANCH   1   2
BRANCH   1  12
ATOM     12  C   UNL     1      85.743  52.151  44.235  0.00  0.00    -0.053 C 
BRANCH  12  13
ATOM     13  C   UNL     1      85.126  53.405  43.592  0.00  0.00    -0.053 C 
BRANCH  13  14
ATOM     14  C   UNL     1      85.971  54.688  43.727  0.00  0.00    -0.053 C 
BRANCH  14  15
ATOM     15  C   UNL     1      85.489  55.681  44.803  0.00  0.00    -0.053 C 
BRANCH  15  16
ATOM     16  C   UNL     1      86.450  55.864  45.991  0.00  0.00    -0.053 C 
BRANCH  16  17
ATOM     17  C   UNL     1      85.810  55.486  47.337  0.00  0.00    -0.053 C 
BRANCH  17  18
ATOM     18  C   UNL     1      84.477  54.735  47.175  0.00  0.00    -0.053 C 
BRANCH  18  20
ATOM     19  C   UNL     1      85.541  52.988  48.714  0.00  0.00    -0.065 C 
ATOM     20  C   UNL     1      84.511  53.260  47.617  0.00  0.00    -0.056 C 
ENDBRANCH  18  20
ENDBRANCH  17  18
ENDBRANCH  16  17
ENDBRANCH  15  16
ENDBRANCH  14  15
ENDBRANCH  13  14
ENDBRANCH  12  13
ENDBRANCH   1  12
TORSDOF 16
ENDMDL
MODEL 4
REMARK VINA RESULT:    -5.540      1.795      3.816
REMARK INTER + INTRA:         -12.437
REMARK INTER:                  -9.994
REMARK INTRA:                  -2.443
REMARK UNBOUND:                -1.715
REMARK  Name = 
REMARK  17 active torsions:
REMARK  status: ('A' for Active; 'I' for Inactive)
REMARK    1  A    between atoms: C_1  and  C_2
REMARK    2  A    between atoms: C_2  and  C_3
REMARK    3  A    between atoms: C_3  and  C_4
REMARK    4  A    between atoms: C_4  and  C_5
REMARK    5  A    between atoms: C_5  and  C_6
REMARK    6  A    between atoms: C_6  and  C_7
REMARK    7  A    between atoms: C_7  and  C_8
REMARK    8  A    between atoms: C_8  and  C_9
REMARK    9  A    between atoms: C_9  and  C_10
REMARK   10  A    between atoms: C_10  and  C_11
REMARK   11  A    between atoms: C_11  and  C_12
REMARK   12  A    between atoms: C_12  and  C_13
REMARK   13  A    between atoms: C_13  and  C_14
REMARK   14  A    between atoms: C_14  and  C_15
REMARK   15  A    between atoms: C_15  and  C_16
REMARK   16  A    between atoms: C_16  and  C_17
REMARK   17  A    between atoms: C_17  and  C_18
REMARK                            x       y       z     vdW  Elec       q    Type
REMARK                         _______ _______ _______ _____ _____    ______ ____
ROOT
ATOM      1  C   UNL     1      84.855  53.613  47.038  0.00  0.00    -0.053 C 
ENDROOT
BRANCH   1   2
ATOM      2  C   UNL     1      86.250  53.984  46.514  0.00  0.00    -0.053 C 
BRANCH   2   3
ATOM      3  C   UNL     1      86.519  55.497  46.561  0.00  0.00    -0.053 C 
BRANCH   3   4
ATOM      4  C   UNL     1      85.382  56.280  47.234  0.00  0.00    -0.053 C 
BRANCH   4   5
ATOM      5  C   UNL     1      84.657  57.175  46.218  0.00  0.00    -0.053 C 
BRANCH   5   6
ATOM      6  C   UNL     1      85.552  57.589  45.036  0.00  0.00    -0.053 C 
BRANCH   6   7
ATOM      7  C   UNL     1      84.946  57.337  43.639  0.00  0.00    -0.043 C 
BRANCH   7   8
ATOM      8  C   UNL     1      83.940  56.177  43.580  0.00  0.00    +0.045 C 
BRANCH   8   9
ATOM      9  C   UNL     1      83.942  55.500  42.244  0.00  0.00    +0.305 C 
ATOM     10  O   UNL     1      84.864  55.735  41.418  0.00  0.00    -0.251 OA
ATOM     11  O   UNL     1      82.941  54.586  41.928  0.00  0.00    -0.481 OA
ENDBRANCH   8   9
ENDBRANCH   7   8
ENDBRANCH   6   7
ENDBRANCH   5   6
ENDBRANCH   4   5
ENDBRANCH   3   4
ENDBRANCH   2   3
ENDBRANCH   1   2
BRANCH   1  12
ATOM     12  C   UNL     1      84.245  52.472  46.211  0.00  0.00    -0.053 C 
BRANCH  12  13
ATOM     13  C   UNL     1      84.516  52.617  44.703  0.00  0.00    -0.053 C 
BRANCH  13  14
ATOM     14  C   UNL     1      83.947  51.482  43.828  0.00  0.00    -0.053 C 
BRANCH  14  15
ATOM     15  C   UNL     1      84.167  50.058  44.376  0.00  0.00    -0.053 C 
BRANCH  15  16
ATOM     16  C   UNL     1      85.613  49.541  44.270  0.00  0.00    -0.053 C 
BRANCH  16  17
ATOM     17  C   UNL     1      86.287  49.378  45.643  0.00  0.00    -0.053 C 
BRANCH  17  18
ATOM     18  C   UNL     1      87.437  50.376  45.866  0.00  0.00    -0.053 C 
BRANCH  18  20
ATOM     19  C   UNL     1      86.930  50.815  48.336  0.00  0.00    -0.065 C 
ATOM     20  C   UNL     1      87.986  50.416  47.304  0.00  0.00    -0.056 C 
ENDBRANCH  18  20
ENDBRANCH  17  18
ENDBRANCH  16  17
ENDBRANCH  15  16
ENDBRANCH  14  15
ENDBRANCH  13  14
ENDBRANCH  12  13
ENDBRANCH   1  12
TORSDOF 16
ENDMDL
MODEL 5
REMARK VINA RESULT:    -5.527      2.386      5.325
REMARK INTER + INTRA:         -12.411
REMARK INTER:                 -10.343
REMARK INTRA:                  -2.068
REMARK UNBOUND:                -1.715
REMARK  Name = 
REMARK  17 active torsions:
REMARK  status: ('A' for Active; 'I' for Inactive)
REMARK    1  A    between atoms: C_1  and  C_2
REMARK    2  A    between atoms: C_2  and  C_3
REMARK    3  A    between atoms: C_3  and  C_4
REMARK    4  A    between atoms: C_4  and  C_5
REMARK    5  A    between atoms: C_5  and  C_6
REMARK    6  A    between atoms: C_6  and  C_7
REMARK    7  A    between atoms: C_7  and  C_8
REMARK    8  A    between atoms: C_8  and  C_9
REMARK    9  A    between atoms: C_9  and  C_10
REMARK   10  A    between atoms: C_10  and  C_11
REMARK   11  A    between atoms: C_11  and  C_12
REMARK   12  A    between atoms: C_12  and  C_13
REMARK   13  A    between atoms: C_13  and  C_14
REMARK   14  A    between atoms: C_14  and  C_15
REMARK   15  A    between atoms: C_15  and  C_16
REMARK   16  A    between atoms: C_16  and  C_17
REMARK   17  A    between atoms: C_17  and  C_18
REMARK                            x       y       z     vdW  Elec       q    Type
REMARK                         _______ _______ _______ _____ _____    ______ ____
ROOT
ATOM      1  C   UNL     1      84.558  53.314  45.816  0.00  0.00    -0.053 C 
ENDROOT
BRANCH   1   2
ATOM      2  C   UNL     1      85.604  52.555  46.646  0.00  0.00    -0.053 C 
BRANCH   2   3
ATOM      3  C   UNL     1      86.984  52.517  45.971  0.00  0.00    -0.053 C 
BRANCH   3   4
ATOM      4  C   UNL     1      87.465  51.086  45.687  0.00  0.00    -0.053 C 
BRANCH   4   5
ATOM      5  C   UNL     1      87.073  50.648  44.267  0.00  0.00    -0.053 C 
BRANCH   5   6
ATOM      6  C   UNL     1      88.203  50.853  43.242  0.00  0.00    -0.053 C 
BRANCH   6   7
ATOM      7  C   UNL     1      88.246  52.250  42.589  0.00  0.00    -0.043 C 
BRANCH   7   8
ATOM      8  C   UNL     1      89.170  52.354  41.365  0.00  0.00    +0.045 C 
BRANCH   8   9
ATOM      9  C   UNL     1      88.411  52.247  40.078  0.00  0.00    +0.305 C 
ATOM     10  O   UNL     1      87.329  52.874  39.930  0.00  0.00    -0.251 OA
ATOM     11  O   UNL     1      88.920  51.480  39.035  0.00  0.00    -0.481 OA
ENDBRANCH   8   9
ENDBRANCH   7   8
ENDBRANCH   6   7
ENDBRANCH   5   6
ENDBRANCH   4   5
ENDBRANCH   3   4
ENDBRANCH   2   3
ENDBRANCH   1   2
BRANCH   1  12
ATOM     12  C   UNL     1      84.087  52.468  44.624  0.00  0.00    -0.053 C 
BRANCH  12  13
ATOM     13  C   UNL     1      84.563  53.025  43.271  0.00  0.00    -0.053 C 
BRANCH  13  14
ATOM     14  C   UNL     1      83.907  54.355  42.848  0.00  0.00    -0.053 C 
BRANCH  14  15
ATOM     15  C   UNL     1      84.764  55.615  43.089  0.00  0.00    -0.053 C 
BRANCH  15  16
ATOM     16  C   UNL     1      86.204  55.338  43.555  0.00  0.00    -0.053 C 
BRANCH  16  17
ATOM     17  C   UNL     1      86.776  56.470  44.424  0.00  0.00    -0.053 C 
BRANCH  17  18
ATOM     18  C   UNL     1      85.878  57.720  44.441  0.00  0.00    -0.053 C 
BRANCH  18  20
ATOM     19  C   UNL     1      85.181  56.844  46.743  0.00  0.00    -0.065 C 
ATOM     20  C   UNL     1      85.265  58.055  45.814  0.00  0.00    -0.056 C 
ENDBRANCH  18  20
ENDBRANCH  17  18
ENDBRANCH  16  17
ENDBRANCH  15  16
ENDBRANCH  14  15
ENDBRANCH  13  14
ENDBRANCH  12  13
ENDBRANCH   1  12
TORSDOF 16
ENDMDL
MODEL 6
REMARK VINA RESULT:    -5.502      4.093      6.212
REMARK INTER + INTRA:         -12.363
REMARK INTER:                 -10.898
REMARK INTRA:                  -1.465
REMARK UNBOUND:                -1.715
REMARK  Name = 
REMARK  17 active torsions:
REMARK  status: ('A' for Active; 'I' for Inactive)
REMARK    1  A    between atoms: C_1  and  C_2
REMARK    2  A    between atoms: C_2  and  C_3
REMARK    3  A    between atoms: C_3  and  C_4
REMARK    4  A    between atoms: C_4  and  C_5
REMARK    5  A    between atoms: C_5  and  C_6
REMARK    6  A    between atoms: C_6  and  C_7
REMARK    7  A    between atoms: C_7  and  C_8
REMARK    8  A    between atoms: C_8  and  C_9
REMARK    9  A    between atoms: C_9  and  C_10
REMARK   10  A    between atoms: C_10  and  C_11
REMARK   11  A    between atoms: C_11  and  C_12
REMARK   12  A    between atoms: C_12  and  C_13
REMARK   13  A    between atoms: C_13  and  C_14
REMARK   14  A    between atoms: C_14  and  C_15
REMARK   15  A    between atoms: C_15  and  C_16
REMARK   16  A    between atoms: C_16  and  C_17
REMARK   17  A    between atoms: C_17  and  C_18
REMARK                            x       y       z     vdW  Elec       q    Type
REMARK                         _______ _______ _______ _____ _____    ______ ____
ROOT
ATOM      1  C   UNL     1      87.230  51.804  46.751  0.00  0.00    -0.053 C 
ENDROOT
BRANCH   1   2
ATOM      2  C   UNL     1      86.110  51.913  47.797  0.00  0.00    -0.053 C 
BRANCH   2   3
ATOM      3  C   UNL     1      85.160  53.090  47.528  0.00  0.00    -0.053 C 
BRANCH   3   4
ATOM      4  C   UNL     1      85.692  54.420  48.082  0.00  0.00    -0.053 C 
BRANCH   4   5
ATOM      5  C   UNL     1      85.582  55.535  47.032  0.00  0.00    -0.053 C 
BRANCH   5   6
ATOM      6  C   UNL     1      86.662  55.440  45.940  0.00  0.00    -0.053 C 
BRANCH   6   7
ATOM      7  C   UNL     1      86.193  55.830  44.522  0.00  0.00    -0.043 C 
BRANCH   7   8
ATOM      8  C   UNL     1      84.883  56.633  44.482  0.00  0.00    +0.045 C 
BRANCH   8   9
ATOM      9  C   UNL     1      85.131  58.111  44.474  0.00  0.00    +0.305 C 
ATOM     10  O   UNL     1      85.963  58.607  43.669  0.00  0.00    -0.251 OA
ATOM     11  O   UNL     1      84.416  58.938  45.335  0.00  0.00    -0.481 OA
ENDBRANCH   8   9
ENDBRANCH   7   8
ENDBRANCH   6   7
ENDBRANCH   5   6
ENDBRANCH   4   5
ENDBRANCH   3   4
ENDBRANCH   2   3
ENDBRANCH   1   2
BRANCH   1  12
ATOM     12  C   UNL     1      87.589  50.335  46.484  0.00  0.00    -0.053 C 
BRANCH  12  13
ATOM     13  C   UNL     1      87.510  49.963  44.993  0.00  0.00    -0.053 C 
BRANCH  13  14
ATOM     14  C   UNL     1      87.701  51.141  44.017  0.00  0.00    -0.053 C 
BRANCH  14  15
ATOM     15  C   UNL     1      87.061  50.951  42.627  0.00  0.00    -0.053 C 
BRANCH  15  16
ATOM     16  C   UNL     1      88.062  50.859  41.462  0.00  0.00    -0.053 C 
BRANCH  16  17
ATOM     17  C   UNL     1      89.506  50.627  41.936  0.00  0.00    -0.053 C 
BRANCH  17  18
ATOM     18  C   UNL     1      89.999  49.194  41.668  0.00  0.00    -0.053 C 
BRANCH  18  20
ATOM     19  C   UNL     1      91.307  48.522  43.764  0.00  0.00    -0.065 C 
ATOM     20  C   UNL     1      90.058  48.289  42.913  0.00  0.00    -0.056 C 
ENDBRANCH  18  20
ENDBRANCH  17  18
ENDBRANCH  16  17
ENDBRANCH  15  16
ENDBRANCH  14  15
ENDBRANCH  13  14
ENDBRANCH  12  13
ENDBRANCH   1  12
TORSDOF 16
ENDMDL
MODEL 7
REMARK VINA RESULT:    -5.466      3.337      5.562
REMARK INTER + INTRA:         -12.293
REMARK INTER:                 -10.610
REMARK INTRA:                  -1.683
REMARK UNBOUND:                -1.715
REMARK  Name = 
REMARK  17 active torsions:
REMARK  status: ('A' for Active; 'I' for Inactive)
REMARK    1  A    between atoms: C_1  and  C_2
REMARK    2  A    between atoms: C_2  and  C_3
REMARK    3  A    between atoms: C_3  and  C_4
REMARK    4  A    between atoms: C_4  and  C_5
REMARK    5  A    between atoms: C_5  and  C_6
REMARK    6  A    between atoms: C_6  and  C_7
REMARK    7  A    between atoms: C_7  and  C_8
REMARK    8  A    between atoms: C_8  and  C_9
REMARK    9  A    between atoms: C_9  and  C_10
REMARK   10  A    between atoms: C_10  and  C_11
REMARK   11  A    between atoms: C_11  and  C_12
REMARK   12  A    between atoms: C_12  and  C_13
REMARK   13  A    between atoms: C_13  and  C_14
REMARK   14  A    between atoms: C_14  and  C_15
REMARK   15  A    between atoms: C_15  and  C_16
REMARK   16  A    between atoms: C_16  and  C_17
REMARK   17  A    between atoms: C_17  and  C_18
REMARK                            x       y       z     vdW  Elec       q    Type
REMARK                         _______ _______ _______ _____ _____    ______ ____
ROOT
ATOM      1  C   UNL     1      87.563  51.961  45.222  0.00  0.00    -0.053 C 
ENDROOT
BRANCH   1   2
ATOM      2  C   UNL     1      86.624  51.003  44.473  0.00  0.00    -0.053 C 
BRANCH   2   3
ATOM      3  C   UNL     1      87.202  49.586  44.343  0.00  0.00    -0.053 C 
BRANCH   3   4
ATOM      4  C   UNL     1      88.736  49.562  44.420  0.00  0.00    -0.053 C 
BRANCH   4   5
ATOM      5  C   UNL     1      89.331  48.763  43.251  0.00  0.00    -0.053 C 
BRANCH   5   6
ATOM      6  C   UNL     1      90.082  49.648  42.240  0.00  0.00    -0.053 C 
BRANCH   6   7
ATOM      7  C   UNL     1      89.181  50.412  41.246  0.00  0.00    -0.043 C 
BRANCH   7   8
ATOM      8  C   UNL     1      89.262  51.942  41.358  0.00  0.00    +0.045 C 
BRANCH   8   9
ATOM      9  C   UNL     1      89.096  52.612  40.028  0.00  0.00    +0.305 C 
ATOM     10  O   UNL     1      87.950  52.949  39.630  0.00  0.00    -0.251 OA
ATOM     11  O   UNL     1      90.214  52.891  39.249  0.00  0.00    -0.481 OA
ENDBRANCH   8   9
ENDBRANCH   7   8
ENDBRANCH   6   7
ENDBRANCH   5   6
ENDBRANCH   4   5
ENDBRANCH   3   4
ENDBRANCH   2   3
ENDBRANCH   1   2
BRANCH   1  12
ATOM     12  C   UNL     1      86.821  52.676  46.361  0.00  0.00    -0.053 C 
BRANCH  12  13
ATOM     13  C   UNL     1      86.232  51.701  47.395  0.00  0.00    -0.053 C 
BRANCH  13  14
ATOM     14  C   UNL     1      85.832  52.343  48.739  0.00  0.00    -0.053 C 
BRANCH  14  15
ATOM     15  C   UNL     1      85.767  53.884  48.737  0.00  0.00    -0.053 C 
BRANCH  15  16
ATOM     16  C   UNL     1      84.351  54.471  48.597  0.00  0.00    -0.053 C 
BRANCH  16  17
ATOM     17  C   UNL     1      84.285  55.627  47.586  0.00  0.00    -0.053 C 
BRANCH  17  18
ATOM     18  C   UNL     1      85.674  56.079  47.104  0.00  0.00    -0.053 C 
BRANCH  18  20
ATOM     19  C   UNL     1      86.769  56.126  44.790  0.00  0.00    -0.065 C 
ATOM     20  C   UNL     1      85.694  56.719  45.703  0.00  0.00    -0.056 C 
ENDBRANCH  18  20
ENDBRANCH  17  18
ENDBRANCH  16  17
ENDBRANCH  15  16
ENDBRANCH  14  15
ENDBRANCH  13  14
ENDBRANCH  12  13
ENDBRANCH   1  12
TORSDOF 16
ENDMDL
MODEL 8
REMARK VINA RESULT:    -5.427      2.586      5.169
REMARK INTER + INTRA:         -12.218
REMARK INTER:                 -10.377
REMARK INTRA:                  -1.841
REMARK UNBOUND:                -1.715
REMARK  Name = 
REMARK  17 active torsions:
REMARK  status: ('A' for Active; 'I' for Inactive)
REMARK    1  A    between atoms: C_1  and  C_2
REMARK    2  A    between atoms: C_2  and  C_3
REMARK    3  A    between atoms: C_3  and  C_4
REMARK    4  A    between atoms: C_4  and  C_5
REMARK    5  A    between atoms: C_5  and  C_6
REMARK    6  A    between atoms: C_6  and  C_7
REMARK    7  A    between atoms: C_7  and  C_8
REMARK    8  A    between atoms: C_8  and  C_9
REMARK    9  A    between atoms: C_9  and  C_10
REMARK   10  A    between atoms: C_10  and  C_11
REMARK   11  A    between atoms: C_11  and  C_12
REMARK   12  A    between atoms: C_12  and  C_13
REMARK   13  A    between atoms: C_13  and  C_14
REMARK   14  A    between atoms: C_14  and  C_15
REMARK   15  A    between atoms: C_15  and  C_16
REMARK   16  A    between atoms: C_16  and  C_17
REMARK   17  A    between atoms: C_17  and  C_18
REMARK                            x       y       z     vdW  Elec       q    Type
REMARK                         _______ _______ _______ _____ _____    ______ ____
ROOT
ATOM      1  C   UNL     1      87.228  51.230  47.164  0.00  0.00    -0.053 C 
ENDROOT
BRANCH   1   2
ATOM      2  C   UNL     1      86.807  49.863  46.601  0.00  0.00    -0.053 C 
BRANCH   2   3
ATOM      3  C   UNL     1      86.281  49.952  45.161  0.00  0.00    -0.053 C 
BRANCH   3   4
ATOM      4  C   UNL     1      87.255  49.353  44.136  0.00  0.00    -0.053 C 
BRANCH   4   5
ATOM      5  C   UNL     1      88.168  50.439  43.547  0.00  0.00    -0.053 C 
BRANCH   5   6
ATOM      6  C   UNL     1      87.595  51.858  43.711  0.00  0.00    -0.053 C 
BRANCH   6   7
ATOM      7  C   UNL     1      87.709  52.755  42.460  0.00  0.00    -0.043 C 
BRANCH   7   8
ATOM      8  C   UNL     1      88.857  52.382  41.509  0.00  0.00    +0.045 C 
BRANCH   8   9
ATOM      9  C   UNL     1      88.409  52.334  40.081  0.00  0.00    +0.305 C 
ATOM     10  O   UNL     1      87.454  53.059  39.694  0.00  0.00    -0.251 OA
ATOM     11  O   UNL     1      89.071  51.512  39.174  0.00  0.00    -0.481 OA
ENDBRANCH   8   9
ENDBRANCH   7   8
ENDBRANCH   6   7
ENDBRANCH   5   6
ENDBRANCH   4   5
ENDBRANCH   3   4
ENDBRANCH   2   3
ENDBRANCH   1   2
BRANCH   1  12
ATOM     12  C   UNL     1      86.447  51.559  48.445  0.00  0.00    -0.053 C 
BRANCH  12  13
ATOM     13  C   UNL     1      85.515  52.772  48.280  0.00  0.00    -0.053 C 
BRANCH  13  14
ATOM     14  C   UNL     1      84.550  52.693  47.080  0.00  0.00    -0.053 C 
BRANCH  14  15
ATOM     15  C   UNL     1      84.914  53.597  45.885  0.00  0.00    -0.053 C 
BRANCH  15  16
ATOM     16  C   UNL     1      85.382  55.013  46.265  0.00  0.00    -0.053 C 
BRANCH  16  17
ATOM     17  C   UNL     1      86.815  55.312  45.795  0.00  0.00    -0.053 C 
BRANCH  17  18
ATOM     18  C   UNL     1      86.861  55.986  44.412  0.00  0.00    -0.053 C 
BRANCH  18  20
ATOM     19  C   UNL     1      85.747  58.290  44.427  0.00  0.00    -0.065 C 
ATOM     20  C   UNL     1      85.612  56.813  44.056  0.00  0.00    -0.056 C 
ENDBRANCH  18  20
ENDBRANCH  17  18
ENDBRANCH  16  17
ENDBRANCH  15  16
ENDBRANCH  14  15
ENDBRANCH  13  14
ENDBRANCH  12  13
ENDBRANCH   1  12
TORSDOF 16
ENDMDL
MODEL 9
REMARK VINA RESULT:    -5.373      4.012      5.857
REMARK INTER + INTRA:         -12.114
REMARK INTER:                 -10.399
REMARK INTRA:                  -1.715
REMARK UNBOUND:                -1.715
REMARK  Name = 
REMARK  17 active torsions:
REMARK  status: ('A' for Active; 'I' for Inactive)
REMARK    1  A    between atoms: C_1  and  C_2
REMARK    2  A    between atoms: C_2  and  C_3
REMARK    3  A    between atoms: C_3  and  C_4
REMARK    4  A    between atoms: C_4  and  C_5
REMARK    5  A    between atoms: C_5  and  C_6
REMARK    6  A    between atoms: C_6  and  C_7
REMARK    7  A    between atoms: C_7  and  C_8
REMARK    8  A    between atoms: C_8  and  C_9
REMARK    9  A    between atoms: C_9  and  C_10
REMARK   10  A    between atoms: C_10  and  C_11
REMARK   11  A    between atoms: C_11  and  C_12
REMARK   12  A    between atoms: C_12  and  C_13
REMARK   13  A    between atoms: C_13  and  C_14
REMARK   14  A    between atoms: C_14  and  C_15
REMARK   15  A    between atoms: C_15  and  C_16
REMARK   16  A    between atoms: C_16  and  C_17
REMARK   17  A    between atoms: C_17  and  C_18
REMARK                            x       y       z     vdW  Elec       q    Type
REMARK                         _______ _______ _______ _____ _____    ______ ____
ROOT
ATOM      1  C   UNL     1      85.551  52.394  46.219  0.00  0.00    -0.053 C 
ENDROOT
BRANCH   1   2
ATOM      2  C   UNL     1      86.705  52.006  45.282  0.00  0.00    -0.053 C 
BRANCH   2   3
ATOM      3  C   UNL     1      87.434  50.732  45.734  0.00  0.00    -0.053 C 
BRANCH   3   4
ATOM      4  C   UNL     1      88.140  50.009  44.577  0.00  0.00    -0.053 C 
BRANCH   4   5
ATOM      5  C   UNL     1      87.692  50.578  43.222  0.00  0.00    -0.053 C 
BRANCH   5   6
ATOM      6  C   UNL     1      88.871  51.031  42.342  0.00  0.00    -0.053 C 
BRANCH   6   7
ATOM      7  C   UNL     1      89.303  50.021  41.259  0.00  0.00    -0.043 C 
BRANCH   7   8
ATOM      8  C   UNL     1      90.245  48.914  41.758  0.00  0.00    +0.045 C 
BRANCH   8   9
ATOM      9  C   UNL     1      89.542  47.599  41.897  0.00  0.00    +0.305 C 
ATOM     10  O   UNL     1      90.105  46.642  42.492  0.00  0.00    -0.251 OA
ATOM     11  O   UNL     1      88.254  47.445  41.395  0.00  0.00    -0.481 OA
ENDBRANCH   8   9
ENDBRANCH   7   8
ENDBRANCH   6   7
ENDBRANCH   5   6
ENDBRANCH   4   5
ENDBRANCH   3   4
ENDBRANCH   2   3
ENDBRANCH   1   2
BRANCH   1  12
ATOM     12  C   UNL     1      86.085  52.881  47.573  0.00  0.00    -0.053 C 
BRANCH  12  13
ATOM     13  C   UNL     1      85.003  52.910  48.667  0.00  0.00    -0.053 C 
BRANCH  13  14
ATOM     14  C   UNL     1      83.717  53.672  48.289  0.00  0.00    -0.053 C 
BRANCH  14  15
ATOM     15  C   UNL     1      83.735  55.183  48.595  0.00  0.00    -0.053 C 
BRANCH  15  16
ATOM     16  C   UNL     1      83.965  56.088  47.371  0.00  0.00    -0.053 C 
BRANCH  16  17
ATOM     17  C   UNL     1      85.436  56.504  47.207  0.00  0.00    -0.053 C 
BRANCH  17  18
ATOM     18  C   UNL     1      85.797  56.857  45.754  0.00  0.00    -0.053 C 
BRANCH  18  20
ATOM     19  C   UNL     1      85.882  55.258  43.757  0.00  0.00    -0.065 C 
ATOM     20  C   UNL     1      86.597  55.774  45.007  0.00  0.00    -0.056 C 
ENDBRANCH  18  20
ENDBRANCH  17  18
ENDBRANCH  16  17
ENDBRANCH  15  16
ENDBRANCH  14  15
ENDBRANCH  13  14
ENDBRANCH  12  13
ENDBRANCH   1  12
TORSDOF 16
ENDMDL
