MODEL 1
REMARK VINA RESULT:    -5.719      0.000      0.000
REMARK INTER + INTRA:         -12.974
REMARK INTER:                 -11.257
REMARK INTRA:                  -1.717
REMARK UNBOUND:                -1.907
REMARK  Name = 
REMARK  17 active torsions:
REMARK  status: ('A' for Active; 'I' for Inactive)
REMARK    1  A    between atoms: C_1  and  C_2
REMARK    2  A    between atoms: C_2  and  C_3
REMARK    3  A    between atoms: C_3  and  C_4
REMARK    4  A    between atoms: C_4  and  C_5
REMARK    5  A    between atoms: C_5  and  C_6
REMARK    6  A    between atoms: C_6  and  C_7
REMARK    7  A    between atoms: C_7  and  C_8
REMARK    8  A    between atoms: C_8  and  C_9
REMARK    9  A    between atoms: C_9  and  C_10
REMARK   10  A    between atoms: C_10  and  C_11
REMARK   11  A    between atoms: C_11  and  C_12
REMARK   12  A    between atoms: C_12  and  C_13
REMARK   13  A    between atoms: C_13  and  C_14
REMARK   14  A    between atoms: C_14  and  C_15
REMARK   15  A    between atoms: C_15  and  C_16
REMARK   16  A    between atoms: C_16  and  C_17
REMARK   17  A    between atoms: C_17  and  C_18
REMARK                            x       y       z     vdW  Elec       q    Type
REMARK                         _______ _______ _______ _____ _____    ______ ____
ROOT
ATOM      1  C   UNL     1      85.679  52.114  46.887  0.00  0.00    -0.053 C 
ENDROOT
BRANCH   1   2
ATOM      2  C   UNL     1      85.463  52.428  48.375  0.00  0.00    -0.053 C 
BRANCH   2   3
ATOM      3  C   UNL     1      85.623  53.922  48.696  0.00  0.00    -0.053 C 
BRANCH   3   4
ATOM      4  C   UNL     1      84.382  54.745  48.320  0.00  0.00    -0.053 C 
BRANCH   4   5
ATOM      5  C   UNL     1      84.665  55.642  47.106  0.00  0.00    -0.053 C 
BRANCH   5   6
ATOM      6  C   UNL     1      86.169  55.870  46.867  0.00  0.00    -0.053 C 
BRANCH   6   7
ATOM      7  C   UNL     1      86.654  55.571  45.432  0.00  0.00    -0.043 C 
BRANCH   7   8
ATOM      8  C   UNL     1      85.571  55.009  44.497  0.00  0.00    +0.045 C 
BRANCH   8   9
ATOM      9  C   UNL     1      85.473  55.787  43.221  0.00  0.00    +0.305 C 
ATOM     10  O   UNL     1      85.393  55.184  42.118  0.00  0.00    -0.251 OA
ATOM     11  O   UNL     1      85.437  57.178  43.258  0.00  0.00    -0.481 OA
ENDBRANCH   8   9
ENDBRANCH   7   8
ENDBRANCH   6   7
ENDBRANCH   5   6
ENDBRANCH   4   5
ENDBRANCH   3   4
ENDBRANCH   2   3
ENDBRANCH   1   2
BRANCH   1  12
ATOM     12  C   UNL     1      87.098  51.581  46.640  0.00  0.00    -0.053 C 
BRANCH  12  13
ATOM     13  C   UNL     1      87.467  51.536  45.147  0.00  0.00    -0.053 C 
BRANCH  13  14
ATOM     14  C   UNL     1      88.166  50.241  44.688  0.00  0.00    -0.053 C 
BRANCH  14  15
ATOM     15  C   UNL     1      88.033  49.921  43.185  0.00  0.00    -0.053 C 
BRANCH  15  16
ATOM     16  C   UNL     1      89.110  50.561  42.290  0.00  0.00    -0.053 C 
BRANCH  16  17
ATOM     17  C   UNL     1      90.071  49.525  41.684  0.00  0.00    -0.053 C 
BRANCH  17  18
ATOM     18  C   UNL     1      91.147  49.056  42.679  0.00  0.00    -0.053 C 
BRANCH  18  20
ATOM     19  C   UNL     1      90.178  46.740  42.180  0.00  0.00    -0.065 C 
ATOM     20  C   UNL     1      91.002  47.594  43.143  0.00  0.00    -0.056 C 
ENDBRANCH  18  20
ENDBRANCH  17  18
ENDBRANCH  16  17
ENDBRANCH  15  16
ENDBRANCH  14  15
ENDBRANCH  13  14
ENDBRANCH  12  13
ENDBRANCH   1  12
TORSDOF 16
ENDMDL
MODEL 2
REMARK VINA RESULT:    -5.666      3.662      4.890
REMARK INTER + INTRA:         -12.873
REMARK INTER:                 -10.802
REMARK INTRA:                  -2.072
REMARK UNBOUND:                -1.907
REMARK  Name = 
REMARK  17 active torsions:
REMARK  status: ('A' for Active; 'I' for Inactive)
REMARK    1  A    between atoms: C_1  and  C_2
REMARK    2  A    between atoms: C_2  and  C_3
REMARK    3  A    between atoms: C_3  and  C_4
REMARK    4  A    between atoms: C_4  and  C_5
REMARK    5  A    between atoms: C_5  and  C_6
REMARK    6  A    between atoms: C_6  and  C_7
REMARK    7  A    between atoms: C_7  and  C_8
REMARK    8  A    between atoms: C_8  and  C_9
REMARK    9  A    between atoms: C_9  and  C_10
REMARK   10  A    between atoms: C_10  and  C_11
REMARK   11  A    between atoms: C_11  and  C_12
REMARK   12  A    between atoms: C_12  and  C_13
REMARK   13  A    between atoms: C_13  and  C_14
REMARK   14  A    between atoms: C_14  and  C_15
REMARK   15  A    between atoms: C_15  and  C_16
REMARK   16  A    between atoms: C_16  and  C_17
REMARK   17  A    between atoms: C_17  and  C_18
REMARK                            x       y       z     vdW  Elec       q    Type
REMARK                         _______ _______ _______ _____ _____    ______ ____
ROOT
ATOM      1  C   UNL     1      86.496  51.076  47.581  0.00  0.00    -0.053 C 
ENDROOT
BRANCH   1   2
ATOM      2  C   UNL     1      86.016  51.815  48.839  0.00  0.00    -0.053 C 
BRANCH   2   3
ATOM      3  C   UNL     1      85.691  53.293  48.570  0.00  0.00    -0.053 C 
BRANCH   3   4
ATOM      4  C   UNL     1      84.240  53.654  48.923  0.00  0.00    -0.053 C 
BRANCH   4   5
ATOM      5  C   UNL     1      83.804  54.938  48.202  0.00  0.00    -0.053 C 
BRANCH   5   6
ATOM      6  C   UNL     1      84.968  55.653  47.492  0.00  0.00    -0.053 C 
BRANCH   6   7
ATOM      7  C   UNL     1      84.594  56.351  46.167  0.00  0.00    -0.043 C 
BRANCH   7   8
ATOM      8  C   UNL     1      85.785  56.962  45.411  0.00  0.00    +0.045 C 
BRANCH   8   9
ATOM      9  C   UNL     1      85.427  58.261  44.758  0.00  0.00    +0.305 C 
ATOM     10  O   UNL     1      84.540  58.999  45.264  0.00  0.00    -0.251 OA
ATOM     11  O   UNL     1      86.099  58.668  43.609  0.00  0.00    -0.481 OA
ENDBRANCH   8   9
ENDBRANCH   7   8
ENDBRANCH   6   7
ENDBRANCH   5   6
ENDBRANCH   4   5
ENDBRANCH   3   4
ENDBRANCH   2   3
ENDBRANCH   1   2
BRANCH   1  12
ATOM     12  C   UNL     1      86.434  51.991  46.350  0.00  0.00    -0.053 C 
BRANCH  12  13
ATOM     13  C   UNL     1      85.392  51.531  45.315  0.00  0.00    -0.053 C 
BRANCH  13  14
ATOM     14  C   UNL     1      84.746  52.664  44.494  0.00  0.00    -0.053 C 
BRANCH  14  15
ATOM     15  C   UNL     1      85.702  53.802  44.082  0.00  0.00    -0.053 C 
BRANCH  15  16
ATOM     16  C   UNL     1      85.679  54.154  42.583  0.00  0.00    -0.053 C 
BRANCH  16  17
ATOM     17  C   UNL     1      84.700  55.293  42.255  0.00  0.00    -0.053 C 
BRANCH  17  18
ATOM     18  C   UNL     1      83.675  54.906  41.175  0.00  0.00    -0.053 C 
BRANCH  18  20
ATOM     19  C   UNL     1      82.103  52.919  41.533  0.00  0.00    -0.065 C 
ATOM     20  C   UNL     1      83.458  53.391  41.005  0.00  0.00    -0.056 C 
ENDBRANCH  18  20
ENDBRANCH  17  18
ENDBRANCH  16  17
ENDBRANCH  15  16
ENDBRANCH  14  15
ENDBRANCH  13  14
ENDBRANCH  12  13
ENDBRANCH   1  12
TORSDOF 16
ENDMDL
MODEL 3
REMARK VINA RESULT:    -5.634      2.420      3.832
REMARK INTER + INTRA:         -12.811
REMARK INTER:                 -10.205
REMARK INTRA:                  -2.605
REMARK UNBOUND:                -1.907
REMARK  Name = 
REMARK  17 active torsions:
REMARK  status: ('A' for Active; 'I' for Inactive)
REMARK    1  A    between atoms: C_1  and  C_2
REMARK    2  A    between atoms: C_2  and  C_3
REMARK    3  A    between atoms: C_3  and  C_4
REMARK    4  A    between atoms: C_4  and  C_5
REMARK    5  A    between atoms: C_5  and  C_6
REMARK    6  A    between atoms: C_6  and  C_7
REMARK    7  A    between atoms: C_7  and  C_8
REMARK    8  A    between atoms: C_8  and  C_9
REMARK    9  A    between atoms: C_9  and  C_10
REMARK   10  A    between atoms: C_10  and  C_11
REMARK   11  A    between atoms: C_11  and  C_12
REMARK   12  A    between atoms: C_12  and  C_13
REMARK   13  A    between atoms: C_13  and  C_14
REMARK   14  A    between atoms: C_14  and  C_15
REMARK   15  A    between atoms: C_15  and  C_16
REMARK   16  A    between atoms: C_16  and  C_17
REMARK   17  A    between atoms: C_17  and  C_18
REMARK                            x       y       z     vdW  Elec       q    Type
REMARK                         _______ _______ _______ _____ _____    ______ ____
ROOT
ATOM      1  C   UNL     1      84.766  53.829  46.038  0.00  0.00    -0.053 C 
ENDROOT
BRANCH   1   2
ATOM      2  C   UNL     1      86.292  53.958  45.918  0.00  0.00    -0.053 C 
BRANCH   2   3
ATOM      3  C   UNL     1      86.761  55.420  45.846  0.00  0.00    -0.053 C 
BRANCH   3   4
ATOM      4  C   UNL     1      85.962  56.344  46.777  0.00  0.00    -0.053 C 
BRANCH   4   5
ATOM      5  C   UNL     1      85.260  57.453  45.979  0.00  0.00    -0.053 C 
BRANCH   5   6
ATOM      6  C   UNL     1      85.863  57.657  44.577  0.00  0.00    -0.053 C 
BRANCH   6   7
ATOM      7  C   UNL     1      84.855  57.556  43.413  0.00  0.00    -0.043 C 
BRANCH   7   8
ATOM      8  C   UNL     1      84.194  56.176  43.260  0.00  0.00    +0.045 C 
BRANCH   8   9
ATOM      9  C   UNL     1      84.843  55.359  42.185  0.00  0.00    +0.305 C 
ATOM     10  O   UNL     1      85.947  54.792  42.402  0.00  0.00    -0.251 OA
ATOM     11  O   UNL     1      84.210  55.201  40.956  0.00  0.00    -0.481 OA
ENDBRANCH   8   9
ENDBRANCH   7   8
ENDBRANCH   6   7
ENDBRANCH   5   6
ENDBRANCH   4   5
ENDBRANCH   3   4
ENDBRANCH   2   3
ENDBRANCH   1   2
BRANCH   1  12
ATOM     12  C   UNL     1      84.384  52.925  47.219  0.00  0.00    -0.053 C 
BRANCH  12  13
ATOM     13  C   UNL     1      85.369  53.034  48.397  0.00  0.00    -0.053 C 
BRANCH  13  14
ATOM     14  C   UNL     1      85.969  51.694  48.868  0.00  0.00    -0.053 C 
BRANCH  14  15
ATOM     15  C   UNL     1      87.026  51.081  47.926  0.00  0.00    -0.053 C 
BRANCH  15  16
ATOM     16  C   UNL     1      86.571  49.812  47.184  0.00  0.00    -0.053 C 
BRANCH  16  17
ATOM     17  C   UNL     1      86.506  50.005  45.660  0.00  0.00    -0.053 C 
BRANCH  17  18
ATOM     18  C   UNL     1      87.806  50.585  45.076  0.00  0.00    -0.053 C 
BRANCH  18  20
ATOM     19  C   UNL     1      86.192  51.335  43.236  0.00  0.00    -0.065 C 
ATOM     20  C   UNL     1      87.635  51.334  43.741  0.00  0.00    -0.056 C 
ENDBRANCH  18  20
ENDBRANCH  17  18
ENDBRANCH  16  17
ENDBRANCH  15  16
ENDBRANCH  14  15
ENDBRANCH  13  14
ENDBRANCH  12  13
ENDBRANCH   1  12
TORSDOF 16
ENDMDL
MODEL 4
REMARK VINA RESULT:    -5.627      3.408      6.842
REMARK INTER + INTRA:         -12.798
REMARK INTER:                 -10.148
REMARK INTRA:                  -2.650
REMARK UNBOUND:                -1.907
REMARK  Name = 
REMARK  17 active torsions:
REMARK  status: ('A' for Active; 'I' for Inactive)
REMARK    1  A    between atoms: C_1  and  C_2
REMARK    2  A    between atoms: C_2  and  C_3
REMARK    3  A    between atoms: C_3  and  C_4
REMARK    4  A    between atoms: C_4  and  C_5
REMARK    5  A    between atoms: C_5  and  C_6
REMARK    6  A    between atoms: C_6  and  C_7
REMARK    7  A    between atoms: C_7  and  C_8
REMARK    8  A    between atoms: C_8  and  C_9
REMARK    9  A    between atoms: C_9  and  C_10
REMARK   10  A    between atoms: C_10  and  C_11
REMARK   11  A    between atoms: C_11  and  C_12
REMARK   12  A    between atoms: C_12  and  C_13
REMARK   13  A    between atoms: C_13  and  C_14
REMARK   14  A    between atoms: C_14  and  C_15
REMARK   15  A    between atoms: C_15  and  C_16
REMARK   16  A    between atoms: C_16  and  C_17
REMARK   17  A    between atoms: C_17  and  C_18
REMARK                            x       y       z     vdW  Elec       q    Type
REMARK                         _______ _______ _______ _____ _____    ______ ____
ROOT
ATOM      1  C   UNL     1      84.544  54.491  47.245  0.00  0.00    -0.053 C 
ENDROOT
BRANCH   1   2
ATOM      2  C   UNL     1      84.454  53.217  48.098  0.00  0.00    -0.053 C 
BRANCH   2   3
ATOM      3  C   UNL     1      85.758  52.914  48.852  0.00  0.00    -0.053 C 
BRANCH   3   4
ATOM      4  C   UNL     1      86.258  51.480  48.621  0.00  0.00    -0.053 C 
BRANCH   4   5
ATOM      5  C   UNL     1      86.275  51.141  47.123  0.00  0.00    -0.053 C 
BRANCH   5   6
ATOM      6  C   UNL     1      87.696  51.098  46.533  0.00  0.00    -0.053 C 
BRANCH   6   7
ATOM      7  C   UNL     1      87.766  51.183  44.994  0.00  0.00    -0.043 C 
BRANCH   7   8
ATOM      8  C   UNL     1      86.517  50.656  44.268  0.00  0.00    +0.045 C 
BRANCH   8   9
ATOM      9  C   UNL     1      86.550  49.168  44.106  0.00  0.00    +0.305 C 
ATOM     10  O   UNL     1      87.236  48.648  43.186  0.00  0.00    -0.251 OA
ATOM     11  O   UNL     1      85.846  48.358  44.991  0.00  0.00    -0.481 OA
ENDBRANCH   8   9
ENDBRANCH   7   8
ENDBRANCH   6   7
ENDBRANCH   5   6
ENDBRANCH   4   5
ENDBRANCH   3   4
ENDBRANCH   2   3
ENDBRANCH   1   2
BRANCH   1  12
ATOM     12  C   UNL     1      85.958  55.088  47.300  0.00  0.00    -0.053 C 
BRANCH  12  13
ATOM     13  C   UNL     1      86.725  54.929  45.975  0.00  0.00    -0.053 C 
BRANCH  13  14
ATOM     14  C   UNL     1      85.904  54.328  44.817  0.00  0.00    -0.053 C 
BRANCH  14  15
ATOM     15  C   UNL     1      86.166  54.956  43.433  0.00  0.00    -0.053 C 
BRANCH  15  16
ATOM     16  C   UNL     1      84.947  55.643  42.793  0.00  0.00    -0.053 C 
BRANCH  16  17
ATOM     17  C   UNL     1      84.517  56.912  43.548  0.00  0.00    -0.053 C 
BRANCH  17  18
ATOM     18  C   UNL     1      85.706  57.815  43.924  0.00  0.00    -0.053 C 
BRANCH  18  20
ATOM     19  C   UNL     1      84.349  58.076  46.078  0.00  0.00    -0.065 C 
ATOM     20  C   UNL     1      85.558  58.547  45.270  0.00  0.00    -0.056 C 
ENDBRANCH  18  20
ENDBRANCH  17  18
ENDBRANCH  16  17
ENDBRANCH  15  16
ENDBRANCH  14  15
ENDBRANCH  13  14
ENDBRANCH  12  13
ENDBRANCH   1  12
TORSDOF 16
ENDMDL
MODEL 5
REMARK VINA RESULT:    -5.612      2.938      6.702
REMARK INTER + INTRA:         -12.769
REMARK INTER:                 -10.903
REMARK INTRA:                  -1.866
REMARK UNBOUND:                -1.907
REMARK  Name = 
REMARK  17 active torsions:
REMARK  status: ('A' for Active; 'I' for Inactive)
REMARK    1  A    between atoms: C_1  and  C_2
REMARK    2  A    between atoms: C_2  and  C_3
REMARK    3  A    between atoms: C_3  and  C_4
REMARK    4  A    between atoms: C_4  and  C_5
REMARK    5  A    between atoms: C_5  and  C_6
REMARK    6  A    between atoms: C_6  and  C_7
REMARK    7  A    between atoms: C_7  and  C_8
REMARK    8  A    between atoms: C_8  and  C_9
REMARK    9  A    between atoms: C_9  and  C_10
REMARK   10  A    between atoms: C_10  and  C_11
REMARK   11  A    between atoms: C_11  and  C_12
REMARK   12  A    between atoms: C_12  and  C_13
REMARK   13  A    between atoms: C_13  and  C_14
REMARK   14  A    between atoms: C_14  and  C_15
REMARK   15  A    between atoms: C_15  and  C_16
REMARK   16  A    between atoms: C_16  and  C_17
REMARK   17  A    between atoms: C_17  and  C_18
REMARK                            x       y       z     vdW  Elec       q    Type
REMARK                         _______ _______ _______ _____ _____    ______ ____
ROOT
ATOM      1  C   UNL     1      85.663  52.953  47.350  0.00  0.00    -0.053 C 
ENDROOT
BRANCH   1   2
ATOM      2  C   UNL     1      86.697  52.923  46.214  0.00  0.00    -0.053 C 
BRANCH   2   3
ATOM      3  C   UNL     1      87.579  51.666  46.247  0.00  0.00    -0.053 C 
BRANCH   3   4
ATOM      4  C   UNL     1      87.459  50.823  44.968  0.00  0.00    -0.053 C 
BRANCH   4   5
ATOM      5  C   UNL     1      87.088  51.703  43.765  0.00  0.00    -0.053 C 
BRANCH   5   6
ATOM      6  C   UNL     1      88.038  51.514  42.568  0.00  0.00    -0.053 C 
BRANCH   6   7
ATOM      7  C   UNL     1      88.408  52.810  41.817  0.00  0.00    -0.043 C 
BRANCH   7   8
ATOM      8  C   UNL     1      89.626  52.684  40.889  0.00  0.00    +0.045 C 
BRANCH   8   9
ATOM      9  C   UNL     1      89.236  52.717  39.443  0.00  0.00    +0.305 C 
ATOM     10  O   UNL     1      88.696  51.710  38.912  0.00  0.00    -0.251 OA
ATOM     11  O   UNL     1      89.440  53.873  38.696  0.00  0.00    -0.481 OA
ENDBRANCH   8   9
ENDBRANCH   7   8
ENDBRANCH   6   7
ENDBRANCH   5   6
ENDBRANCH   4   5
ENDBRANCH   3   4
ENDBRANCH   2   3
ENDBRANCH   1   2
BRANCH   1  12
ATOM     12  C   UNL     1      84.340  53.566  46.870  0.00  0.00    -0.053 C 
BRANCH  12  13
ATOM     13  C   UNL     1      83.942  54.823  47.663  0.00  0.00    -0.053 C 
BRANCH  13  14
ATOM     14  C   UNL     1      84.045  56.146  46.878  0.00  0.00    -0.053 C 
BRANCH  14  15
ATOM     15  C   UNL     1      85.482  56.624  46.583  0.00  0.00    -0.053 C 
BRANCH  15  16
ATOM     16  C   UNL     1      85.578  57.846  45.652  0.00  0.00    -0.053 C 
BRANCH  16  17
ATOM     17  C   UNL     1      85.835  57.457  44.187  0.00  0.00    -0.053 C 
BRANCH  17  18
ATOM     18  C   UNL     1      86.434  56.047  44.039  0.00  0.00    -0.053 C 
BRANCH  18  20
ATOM     19  C   UNL     1      84.787  55.499  42.159  0.00  0.00    -0.065 C 
ATOM     20  C   UNL     1      85.484  55.003  43.426  0.00  0.00    -0.056 C 
ENDBRANCH  18  20
ENDBRANCH  17  18
ENDBRANCH  16  17
ENDBRANCH  15  16
ENDBRANCH  14  15
ENDBRANCH  13  14
ENDBRANCH  12  13
ENDBRANCH   1  12
TORSDOF 16
ENDMDL
MODEL 6
REMARK VINA RESULT:    -5.565      2.573      3.991
REMARK INTER + INTRA:         -12.677
REMARK INTER:                 -10.601
REMARK INTRA:                  -2.077
REMARK UNBOUND:                -1.907
REMARK  Name = 
REMARK  17 active torsions:
REMARK  status: ('A' for Active; 'I' for Inactive)
REMARK    1  A    between atoms: C_1  and  C_2
REMARK    2  A    between atoms: C_2  and  C_3
REMARK    3  A    between atoms: C_3  and  C_4
REMARK    4  A    between atoms: C_4  and  C_5
REMARK    5  A    between atoms: C_5  and  C_6
REMARK    6  A    between atoms: C_6  and  C_7
REMARK    7  A    between atoms: C_7  and  C_8
REMARK    8  A    between atoms: C_8  and  C_9
REMARK    9  A    between atoms: C_9  and  C_10
REMARK   10  A    between atoms: C_10  and  C_11
REMARK   11  A    between atoms: C_11  and  C_12
REMARK   12  A    between atoms: C_12  and  C_13
REMARK   13  A    between atoms: C_13  and  C_14
REMARK   14  A    between atoms: C_14  and  C_15
REMARK   15  A    between atoms: C_15  and  C_16
REMARK   16  A    between atoms: C_16  and  C_17
REMARK   17  A    between atoms: C_17  and  C_18
REMARK                            x       y       z     vdW  Elec       q    Type
REMARK                         _______ _______ _______ _____ _____    ______ ____
ROOT
ATOM      1  C   UNL     1      86.305  51.454  48.698  0.00  0.00    -0.053 C 
ENDROOT
BRANCH   1   2
ATOM      2  C   UNL     1      85.501  52.503  47.915  0.00  0.00    -0.053 C 
BRANCH   2   3
ATOM      3  C   UNL     1      85.657  53.920  48.489  0.00  0.00    -0.053 C 
BRANCH   3   4
ATOM      4  C   UNL     1      84.314  54.546  48.894  0.00  0.00    -0.053 C 
BRANCH   4   5
ATOM      5  C   UNL     1      83.428  54.787  47.662  0.00  0.00    -0.053 C 
BRANCH   5   6
ATOM      6  C   UNL     1      83.741  56.114  46.948  0.00  0.00    -0.053 C 
BRANCH   6   7
ATOM      7  C   UNL     1      84.591  55.981  45.667  0.00  0.00    -0.043 C 
BRANCH   7   8
ATOM      8  C   UNL     1      85.752  56.983  45.565  0.00  0.00    +0.045 C 
BRANCH   8   9
ATOM      9  C   UNL     1      85.395  58.174  44.731  0.00  0.00    +0.305 C 
ATOM     10  O   UNL     1      85.851  58.286  43.562  0.00  0.00    -0.251 OA
ATOM     11  O   UNL     1      84.533  59.142  45.237  0.00  0.00    -0.481 OA
ENDBRANCH   8   9
ENDBRANCH   7   8
ENDBRANCH   6   7
ENDBRANCH   5   6
ENDBRANCH   4   5
ENDBRANCH   3   4
ENDBRANCH   2   3
ENDBRANCH   1   2
BRANCH   1  12
ATOM     12  C   UNL     1      86.913  50.410  47.750  0.00  0.00    -0.053 C 
BRANCH  12  13
ATOM     13  C   UNL     1      87.745  51.042  46.621  0.00  0.00    -0.053 C 
BRANCH  13  14
ATOM     14  C   UNL     1      87.823  50.210  45.326  0.00  0.00    -0.053 C 
BRANCH  14  15
ATOM     15  C   UNL     1      86.945  50.719  44.165  0.00  0.00    -0.053 C 
BRANCH  15  16
ATOM     16  C   UNL     1      85.507  50.172  44.153  0.00  0.00    -0.053 C 
BRANCH  16  17
ATOM     17  C   UNL     1      84.468  51.221  44.583  0.00  0.00    -0.053 C 
BRANCH  17  18
ATOM     18  C   UNL     1      84.892  52.659  44.233  0.00  0.00    -0.053 C 
BRANCH  18  20
ATOM     19  C   UNL     1      84.790  52.826  41.681  0.00  0.00    -0.065 C 
ATOM     20  C   UNL     1      84.176  53.263  43.011  0.00  0.00    -0.056 C 
ENDBRANCH  18  20
ENDBRANCH  17  18
ENDBRANCH  16  17
ENDBRANCH  15  16
ENDBRANCH  14  15
ENDBRANCH  13  14
ENDBRANCH  12  13
ENDBRANCH   1  12
TORSDOF 16
ENDMDL
MODEL 7
REMARK VINA RESULT:    -5.537      2.562      6.869
REMARK INTER + INTRA:         -12.624
REMARK INTER:                 -10.439
REMARK INTRA:                  -2.184
REMARK UNBOUND:                -1.907
REMARK  Name = 
REMARK  17 active torsions:
REMARK  status: ('A' for Active; 'I' for Inactive)
REMARK    1  A    between atoms: C_1  and  C_2
REMARK    2  A    between atoms: C_2  and  C_3
REMARK    3  A    between atoms: C_3  and  C_4
REMARK    4  A    between atoms: C_4  and  C_5
REMARK    5  A    between atoms: C_5  and  C_6
REMARK    6  A    between atoms: C_6  and  C_7
REMARK    7  A    between atoms: C_7  and  C_8
REMARK    8  A    between atoms: C_8  and  C_9
REMARK    9  A    between atoms: C_9  and  C_10
REMARK   10  A    between atoms: C_10  and  C_11
REMARK   11  A    between atoms: C_11  and  C_12
REMARK   12  A    between atoms: C_12  and  C_13
REMARK   13  A    between atoms: C_13  and  C_14
REMARK   14  A    between atoms: C_14  and  C_15
REMARK   15  A    between atoms: C_15  and  C_16
REMARK   16  A    between atoms: C_16  and  C_17
REMARK   17  A    between atoms: C_17  and  C_18
REMARK                            x       y       z     vdW  Elec       q    Type
REMARK                         _______ _______ _______ _____ _____    ______ ____
ROOT
ATOM      1  C   UNL     1      84.645  53.592  44.086  0.00  0.00    -0.053 C 
ENDROOT
BRANCH   1   2
ATOM      2  C   UNL     1      85.291  52.428  44.852  0.00  0.00    -0.053 C 
BRANCH   2   3
ATOM      3  C   UNL     1      86.827  52.475  44.820  0.00  0.00    -0.053 C 
BRANCH   3   4
ATOM      4  C   UNL     1      87.469  51.123  45.162  0.00  0.00    -0.053 C 
BRANCH   4   5
ATOM      5  C   UNL     1      88.280  50.584  43.974  0.00  0.00    -0.053 C 
BRANCH   5   6
ATOM      6  C   UNL     1      88.057  51.389  42.681  0.00  0.00    -0.053 C 
BRANCH   6   7
ATOM      7  C   UNL     1      89.297  51.520  41.772  0.00  0.00    -0.043 C 
BRANCH   7   8
ATOM      8  C   UNL     1      88.980  51.613  40.271  0.00  0.00    +0.045 C 
BRANCH   8   9
ATOM      9  C   UNL     1      89.278  52.973  39.718  0.00  0.00    +0.305 C 
ATOM     10  O   UNL     1      88.862  53.294  38.572  0.00  0.00    -0.251 OA
ATOM     11  O   UNL     1      89.988  53.893  40.483  0.00  0.00    -0.481 OA
ENDBRANCH   8   9
ENDBRANCH   7   8
ENDBRANCH   6   7
ENDBRANCH   5   6
ENDBRANCH   4   5
ENDBRANCH   3   4
ENDBRANCH   2   3
ENDBRANCH   1   2
BRANCH   1  12
ATOM     12  C   UNL     1      85.657  54.251  43.137  0.00  0.00    -0.053 C 
BRANCH  12  13
ATOM     13  C   UNL     1      85.670  55.786  43.251  0.00  0.00    -0.053 C 
BRANCH  13  14
ATOM     14  C   UNL     1      86.503  56.343  44.423  0.00  0.00    -0.053 C 
BRANCH  14  15
ATOM     15  C   UNL     1      85.686  56.814  45.643  0.00  0.00    -0.053 C 
BRANCH  15  16
ATOM     16  C   UNL     1      85.771  55.893  46.873  0.00  0.00    -0.053 C 
BRANCH  16  17
ATOM     17  C   UNL     1      84.390  55.433  47.368  0.00  0.00    -0.053 C 
BRANCH  17  18
ATOM     18  C   UNL     1      84.475  54.450  48.548  0.00  0.00    -0.053 C 
BRANCH  18  20
ATOM     19  C   UNL     1      85.685  52.195  48.579  0.00  0.00    -0.065 C 
ATOM     20  C   UNL     1      85.822  53.714  48.678  0.00  0.00    -0.056 C 
ENDBRANCH  18  20
ENDBRANCH  17  18
ENDBRANCH  16  17
ENDBRANCH  15  16
ENDBRANCH  14  15
ENDBRANCH  13  14
ENDBRANCH  12  13
ENDBRANCH   1  12
TORSDOF 16
ENDMDL
MODEL 8
REMARK VINA RESULT:    -5.532      2.324      6.488
REMARK INTER + INTRA:         -12.613
REMARK INTER:                 -10.706
REMARK INTRA:                  -1.907
REMARK UNBOUND:                -1.907
REMARK  Name = 
REMARK  17 active torsions:
REMARK  status: ('A' for Active; 'I' for Inactive)
REMARK    1  A    between atoms: C_1  and  C_2
REMARK    2  A    between atoms: C_2  and  C_3
REMARK    3  A    between atoms: C_3  and  C_4
REMARK    4  A    between atoms: C_4  and  C_5
REMARK    5  A    between atoms: C_5  and  C_6
REMARK    6  A    between atoms: C_6  and  C_7
REMARK    7  A    between atoms: C_7  and  C_8
REMARK    8  A    between atoms: C_8  and  C_9
REMARK    9  A    between atoms: C_9  and  C_10
REMARK   10  A    between atoms: C_10  and  C_11
REMARK   11  A    between atoms: C_11  and  C_12
REMARK   12  A    between atoms: C_12  and  C_13
REMARK   13  A    between atoms: C_13  and  C_14
REMARK   14  A    between atoms: C_14  and  C_15
REMARK   15  A    between atoms: C_15  and  C_16
REMARK   16  A    between atoms: C_16  and  C_17
REMARK   17  A    between atoms: C_17  and  C_18
REMARK                            x       y       z     vdW  Elec       q    Type
REMARK                         _______ _______ _______ _____ _____    ______ ____
ROOT
ATOM      1  C   UNL     1      86.373  51.070  47.850  0.00  0.00    -0.053 C 
ENDROOT
BRANCH   1   2
ATOM      2  C   UNL     1      86.182  51.789  46.506  0.00  0.00    -0.053 C 
BRANCH   2   3
ATOM      3  C   UNL     1      87.470  51.835  45.669  0.00  0.00    -0.053 C 
BRANCH   3   4
ATOM      4  C   UNL     1      88.066  50.441  45.421  0.00  0.00    -0.053 C 
BRANCH   4   5
ATOM      5  C   UNL     1      87.630  49.894  44.054  0.00  0.00    -0.053 C 
BRANCH   5   6
ATOM      6  C   UNL     1      88.712  50.053  42.971  0.00  0.00    -0.053 C 
BRANCH   6   7
ATOM      7  C   UNL     1      88.654  51.376  42.180  0.00  0.00    -0.043 C 
BRANCH   7   8
ATOM      8  C   UNL     1      89.884  51.647  41.299  0.00  0.00    +0.045 C 
BRANCH   8   9
ATOM      9  C   UNL     1      89.529  52.403  40.056  0.00  0.00    +0.305 C 
ATOM     10  O   UNL     1      89.558  53.663  40.053  0.00  0.00    -0.251 OA
ATOM     11  O   UNL     1      89.199  51.712  38.894  0.00  0.00    -0.481 OA
ENDBRANCH   8   9
ENDBRANCH   7   8
ENDBRANCH   6   7
ENDBRANCH   5   6
ENDBRANCH   4   5
ENDBRANCH   3   4
ENDBRANCH   2   3
ENDBRANCH   1   2
BRANCH   1  12
ATOM     12  C   UNL     1      85.699  51.850  48.989  0.00  0.00    -0.053 C 
BRANCH  12  13
ATOM     13  C   UNL     1      85.913  53.370  48.879  0.00  0.00    -0.053 C 
BRANCH  13  14
ATOM     14  C   UNL     1      84.623  54.198  48.707  0.00  0.00    -0.053 C 
BRANCH  14  15
ATOM     15  C   UNL     1      84.724  55.370  47.710  0.00  0.00    -0.053 C 
BRANCH  15  16
ATOM     16  C   UNL     1      86.109  55.552  47.064  0.00  0.00    -0.053 C 
BRANCH  16  17
ATOM     17  C   UNL     1      86.026  56.023  45.603  0.00  0.00    -0.053 C 
BRANCH  17  18
ATOM     18  C   UNL     1      85.392  54.975  44.672  0.00  0.00    -0.053 C 
BRANCH  18  20
ATOM     19  C   UNL     1      85.668  53.448  42.636  0.00  0.00    -0.065 C 
ATOM     20  C   UNL     1      86.222  54.639  43.419  0.00  0.00    -0.056 C 
ENDBRANCH  18  20
ENDBRANCH  17  18
ENDBRANCH  16  17
ENDBRANCH  15  16
ENDBRANCH  14  15
ENDBRANCH  13  14
ENDBRANCH  12  13
ENDBRANCH   1  12
TORSDOF 16
ENDMDL
MODEL 9
REMARK VINA RESULT:    -5.473      4.105      6.862
REMARK INTER + INTRA:         -12.499
REMARK INTER:                 -10.130
REMARK INTRA:                  -2.369
REMARK UNBOUND:                -1.907
REMARK  Name = 
REMARK  17 active torsions:
REMARK  status: ('A' for Active; 'I' for Inactive)
REMARK    1  A    between atoms: C_1  and  C_2
REMARK    2  A    between atoms: C_2  and  C_3
REMARK    3  A    between atoms: C_3  and  C_4
REMARK    4  A    between atoms: C_4  and  C_5
REMARK    5  A    between atoms: C_5  and  C_6
REMARK    6  A    between atoms: C_6  and  C_7
REMARK    7  A    between atoms: C_7  and  C_8
REMARK    8  A    between atoms: C_8  and  C_9
REMARK    9  A    between atoms: C_9  and  C_10
REMARK   10  A    between atoms: C_10  and  C_11
REMARK   11  A    between atoms: C_11  and  C_12
REMARK   12  A    between atoms: C_12  and  C_13
REMARK   13  A    between atoms: C_13  and  C_14
REMARK   14  A    between atoms: C_14  and  C_15
REMARK   15  A    between atoms: C_15  and  C_16
REMARK   16  A    between atoms: C_16  and  C_17
REMARK   17  A    between atoms: C_17  and  C_18
REMARK                            x       y       z     vdW  Elec       q    Type
REMARK                         _______ _______ _______ _____ _____    ______ ____
ROOT
ATOM      1  C   UNL     1      86.313  55.619  45.599  0.00  0.00    -0.053 C 
ENDROOT
BRANCH   1   2
ATOM      2  C   UNL     1      86.321  54.092  45.430  0.00  0.00    -0.053 C 
BRANCH   2   3
ATOM      3  C   UNL     1      85.285  53.602  44.408  0.00  0.00    -0.053 C 
BRANCH   3   4
ATOM      4  C   UNL     1      84.423  52.448  44.943  0.00  0.00    -0.053 C 
BRANCH   4   5
ATOM      5  C   UNL     1      84.164  51.403  43.847  0.00  0.00    -0.053 C 
BRANCH   5   6
ATOM      6  C   UNL     1      84.401  49.960  44.326  0.00  0.00    -0.053 C 
BRANCH   6   7
ATOM      7  C   UNL     1      83.464  48.904  43.702  0.00  0.00    -0.043 C 
BRANCH   7   8
ATOM      8  C   UNL     1      81.966  49.222  43.833  0.00  0.00    +0.045 C 
BRANCH   8   9
ATOM      9  C   UNL     1      81.157  47.999  44.137  0.00  0.00    +0.305 C 
ATOM     10  O   UNL     1      81.731  46.928  44.467  0.00  0.00    -0.251 OA
ATOM     11  O   UNL     1      79.768  48.057  44.085  0.00  0.00    -0.481 OA
ENDBRANCH   8   9
ENDBRANCH   7   8
ENDBRANCH   6   7
ENDBRANCH   5   6
ENDBRANCH   4   5
ENDBRANCH   3   4
ENDBRANCH   2   3
ENDBRANCH   1   2
BRANCH   1  12
ATOM     12  C   UNL     1      85.796  56.013  46.990  0.00  0.00    -0.053 C 
BRANCH  12  13
ATOM     13  C   UNL     1      84.263  55.939  47.101  0.00  0.00    -0.053 C 
BRANCH  13  14
ATOM     14  C   UNL     1      83.731  54.812  48.009  0.00  0.00    -0.053 C 
BRANCH  14  15
ATOM     15  C   UNL     1      84.801  54.088  48.852  0.00  0.00    -0.053 C 
BRANCH  15  16
ATOM     16  C   UNL     1      84.761  52.552  48.765  0.00  0.00    -0.053 C 
BRANCH  16  17
ATOM     17  C   UNL     1      86.162  51.927  48.659  0.00  0.00    -0.053 C 
BRANCH  17  18
ATOM     18  C   UNL     1      86.266  50.882  47.534  0.00  0.00    -0.053 C 
BRANCH  18  20
ATOM     19  C   UNL     1      87.841  50.664  45.528  0.00  0.00    -0.065 C 
ATOM     20  C   UNL     1      87.700  50.597  47.049  0.00  0.00    -0.056 C 
ENDBRANCH  18  20
ENDBRANCH  17  18
ENDBRANCH  16  17
ENDBRANCH  15  16
ENDBRANCH  14  15
ENDBRANCH  13  14
ENDBRANCH  12  13
ENDBRANCH   1  12
TORSDOF 16
ENDMDL
