=
 OpenBabel09092515023D

 31 34  0  0  1  0  0  0  0  0999 V2000
   89.4650   49.7800   42.5650 C   0  0  1  0  0  3  0  0  0  0  0  0
   89.5770   50.5700   41.2380 C   0  0  0  0  0  2  0  0  0  0  0  0
   88.6900   51.8200   41.4020 C   0  0  0  0  0  2  0  0  0  0  0  0
   88.2430   51.7780   42.8600 C   0  0  2  0  0  3  0  0  0  0  0  0
   88.1400   50.2830   43.1960 C   0  0  1  0  0  0  0  0  0  0  0  0
   86.9050   49.5870   42.5410 C   0  0  0  0  0  1  0  0  0  0  0  0
   88.0650   50.1620   44.7340 C   0  0  0  0  0  2  0  0  0  0  0  0
   86.8490   50.9370   45.2930 C   0  0  0  0  0  2  0  0  0  0  0  0
   86.7840   52.4260   44.8170 C   0  0  1  0  0  3  0  0  0  0  0  0
   86.9980   52.5890   43.2800 C   0  0  1  0  0  3  0  0  0  0  0  0
   87.1910   54.0780   42.9510 C   0  0  0  0  0  2  0  0  0  0  0  0
   86.1600   54.9600   43.5990 C   0  0  0  0  0  3  0  0  0  0  0  0
   85.4960   54.6310   44.7310 C   0  0  0  0  0  0  0  0  0  0  0  0
   85.4980   53.2010   45.2990 C   0  0  1  0  0  0  0  0  0  0  0  0
   84.1960   52.4950   44.8290 C   0  0  0  0  0  1  0  0  0  0  0  0
   85.5060   53.2770   46.8590 C   0  0  0  0  0  2  0  0  0  0  0  0
   84.4810   54.2620   47.4370 C   0  0  0  0  0  2  0  0  0  0  0  0
   84.6980   55.6690   46.8750 C   0  0  1  0  0  3  0  0  0  0  0  0
   84.5700   55.6640   45.3480 C   0  0  0  0  0  2  0  0  0  0  0  0
   89.7120   48.2360   42.4980 C   0  0  2  0  0  3  0  0  0  0  0  0
   90.6090   47.8670   41.3050 C   0  0  0  0  0  1  0  0  0  0  0  0
   88.4390   46.0830   42.0990 C   0  0  0  0  0  3  0  0  0  0  0  0
   88.4790   47.3500   42.5450 C   0  0  0  0  0  3  0  0  0  0  0  0
   87.1830   45.2410   42.2300 C   0  0  1  0  0  3  0  0  0  0  0  0
   87.5270   43.8330   42.8100 C   0  0  0  0  0  3  0  0  0  0  0  0
   86.5750   43.4240   43.9430 C   0  0  0  0  0  1  0  0  0  0  0  0
   88.9890   43.7060   43.2670 C   0  0  0  0  0  1  0  0  0  0  0  0
   84.7580   46.0420   42.3280 C   0  0  0  0  0  1  0  0  0  0  0  0
   86.1060   45.9940   43.0510 C   0  0  0  0  0  2  0  0  0  0  0  0
   83.7430   56.5370   47.4290 O   0  0  0  0  0  0  0  0  0  0  0  0
   82.9030   56.4360   46.9530 H   0  0  0  0  0  0  0  0  0  0  0  0
  1 20  1  6  0  0  0
  1  5  1  0  0  0  0
  2  3  1  0  0  0  0
  2  1  1  0  0  0  0
  4  3  1  6  0  0  0
  4  5  1  0  0  0  0
  4 10  1  0  0  0  0
  5  6  1  6  0  0  0
  5  7  1  0  0  0  0
  7  8  1  0  0  0  0
  9  8  1  6  0  0  0
  9 14  1  0  0  0  0
 10 11  1  1  0  0  0
 10  9  1  0  0  0  0
 11 12  1  0  0  0  0
 12 13  2  0  0  0  0
 13 14  1  0  0  0  0
 13 19  1  0  0  0  0
 14 15  1  6  0  0  0
 14 16  1  0  0  0  0
 16 17  1  0  0  0  0
 18 30  1  1  0  0  0
 18 17  1  0  0  0  0
 19 18  1  0  0  0  0
 20 21  1  6  0  0  0
 20 23  1  0  0  0  0
 22 23  2  0  0  0  0
 24 22  1  1  0  0  0
 24 25  1  0  0  0  0
 24 29  1  0  0  0  0
 25 27  1  0  0  0  0
 25 26  1  0  0  0  0
 28 29  1  0  0  0  0
 31 30  1  0  0  0  0
M  END
>  <MODEL>
1

>  <REMARK>
 VINA RESULT:   -10.014      0.000      0.000
 INTER + INTRA:         -13.765
 INTER:                 -13.397
 INTRA:                  -0.368
 UNBOUND:                -0.530
  Name = 
  12 active torsions:
  status: ('A' for Active; 'I' for Inactive)
    1  A    between atoms: C_1  and  C_2
    2  A    between atoms: C_2  and  C_3
    3  A    between atoms: C_3  and  C_4
    4  A    between atoms: C_3  and  C_7
    5  A    between atoms: C_4  and  C_5
    6  A    between atoms: C_4  and  C_6
    7  A    between atoms: C_8  and  C_9
    8  A    between atoms: C_9  and  C_10
    9  A    between atoms: C_9  and  C_30
   10  A    between atoms: C_14  and  C_15
   11  A    between atoms: C_23  and  C_24
   12  A    between atoms: C_27  and  O_29
                            x       y       z     vdW  Elec       q    Type
                         _______ _______ _______ _____ _____    ______ ____

>  <TORSDO>
F 6

$$$$
=
 OpenBabel09092515023D

 31 34  0  0  1  0  0  0  0  0999 V2000
   85.9090   49.3480   44.1460 C   0  0  1  0  0  3  0  0  0  0  0  0
   86.5290   49.0790   45.5390 C   0  0  0  0  0  2  0  0  0  0  0  0
   86.6500   50.4520   46.2300 C   0  0  0  0  0  2  0  0  0  0  0  0
   85.9510   51.4180   45.2800 C   0  0  2  0  0  3  0  0  0  0  0  0
   86.2100   50.8470   43.8780 C   0  0  1  0  0  0  0  0  0  0  0  0
   87.6810   51.0470   43.3930 C   0  0  0  0  0  1  0  0  0  0  0  0
   85.2300   51.5440   42.9090 C   0  0  0  0  0  2  0  0  0  0  0  0
   85.4320   53.0780   42.9240 C   0  0  0  0  0  2  0  0  0  0  0  0
   85.3820   53.7000   44.3590 C   0  0  1  0  0  3  0  0  0  0  0  0
   86.2570   52.9260   45.3940 C   0  0  1  0  0  3  0  0  0  0  0  0
   85.9340   53.4340   46.8090 C   0  0  0  0  0  2  0  0  0  0  0  0
   85.9200   54.9340   46.9040 C   0  0  0  0  0  3  0  0  0  0  0  0
   85.6720   55.7510   45.8550 C   0  0  0  0  0  0  0  0  0  0  0  0
   85.6830   55.2470   44.4010 C   0  0  1  0  0  0  0  0  0  0  0  0
   87.0730   55.5750   43.7890 C   0  0  0  0  0  1  0  0  0  0  0  0
   84.5770   56.0010   43.5960 C   0  0  0  0  0  2  0  0  0  0  0  0
   84.5790   57.5210   43.8140 C   0  0  0  0  0  2  0  0  0  0  0  0
   84.4240   57.8600   45.2990 C   0  0  1  0  0  3  0  0  0  0  0  0
   85.5670   57.2430   46.1130 C   0  0  0  0  0  2  0  0  0  0  0  0
   86.2290   48.3170   43.0120 C   0  0  2  0  0  3  0  0  0  0  0  0
   85.2650   47.1200   43.0620 C   0  0  0  0  0  1  0  0  0  0  0  0
   88.3350   47.6980   41.7490 C   0  0  0  0  0  3  0  0  0  0  0  0
   87.6710   47.8510   42.9080 C   0  0  0  0  0  3  0  0  0  0  0  0
   89.7940   47.2790   41.7280 C   0  0  1  0  0  3  0  0  0  0  0  0
   90.7210   48.5210   41.9110 C   0  0  0  0  0  3  0  0  0  0  0  0
   91.1530   48.7130   43.3720 C   0  0  0  0  0  1  0  0  0  0  0  0
   90.1120   49.8190   41.3570 C   0  0  0  0  0  1  0  0  0  0  0  0
   89.1530   44.9460   42.5530 C   0  0  0  0  0  1  0  0  0  0  0  0
   90.0550   46.1620   42.7710 C   0  0  0  0  0  2  0  0  0  0  0  0
   84.4300   59.2560   45.4540 O   0  0  0  0  0  0  0  0  0  0  0  0
   83.7470   59.6450   44.8870 H   0  0  0  0  0  0  0  0  0  0  0  0
  1 20  1  6  0  0  0
  1  2  1  0  0  0  0
  2  3  1  0  0  0  0
  4 10  1  0  0  0  0
  4  3  1  1  0  0  0
  5  6  1  6  0  0  0
  5  1  1  0  0  0  0
  5  4  1  0  0  0  0
  7  8  1  0  0  0  0
  7  5  1  0  0  0  0
  9  8  1  6  0  0  0
  9 14  1  0  0  0  0
  9 10  1  0  0  0  0
 10 11  1  1  0  0  0
 11 12  1  0  0  0  0
 13 19  1  0  0  0  0
 13 12  2  0  0  0  0
 14 15  1  6  0  0  0
 14 13  1  0  0  0  0
 16 17  1  0  0  0  0
 16 14  1  0  0  0  0
 17 18  1  0  0  0  0
 18 30  1  6  0  0  0
 18 19  1  0  0  0  0
 20 21  1  1  0  0  0
 22 23  2  0  0  0  0
 23 20  1  0  0  0  0
 24 22  1  1  0  0  0
 24 25  1  0  0  0  0
 24 29  1  0  0  0  0
 25 26  1  0  0  0  0
 27 25  1  0  0  0  0
 28 29  1  0  0  0  0
 31 30  1  0  0  0  0
M  END
>  <MODEL>
2

>  <REMARK>
 VINA RESULT:    -9.893      1.596      3.953
 INTER + INTRA:         -13.604
 INTER:                 -12.914
 INTRA:                  -0.690
 UNBOUND:                -0.530
  Name = 
  12 active torsions:
  status: ('A' for Active; 'I' for Inactive)
    1  A    between atoms: C_1  and  C_2
    2  A    between atoms: C_2  and  C_3
    3  A    between atoms: C_3  and  C_4
    4  A    between atoms: C_3  and  C_7
    5  A    between atoms: C_4  and  C_5
    6  A    between atoms: C_4  and  C_6
    7  A    between atoms: C_8  and  C_9
    8  A    between atoms: C_9  and  C_10
    9  A    between atoms: C_9  and  C_30
   10  A    between atoms: C_14  and  C_15
   11  A    between atoms: C_23  and  C_24
   12  A    between atoms: C_27  and  O_29
                            x       y       z     vdW  Elec       q    Type
                         _______ _______ _______ _____ _____    ______ ____

>  <TORSDO>
F 6

$$$$
=
 OpenBabel09092515023D

 31 34  0  0  1  0  0  0  0  0999 V2000
   86.2060   49.6460   45.2840 C   0  0  1  0  0  3  0  0  0  0  0  0
   86.7790   49.5830   46.7210 C   0  0  0  0  0  2  0  0  0  0  0  0
   86.8160   51.0350   47.2360 C   0  0  0  0  0  2  0  0  0  0  0  0
   86.1160   51.8410   46.1470 C   0  0  2  0  0  3  0  0  0  0  0  0
   86.4560   51.1110   44.8390 C   0  0  1  0  0  0  0  0  0  0  0  0
   87.9350   51.3160   44.3840 C   0  0  0  0  0  1  0  0  0  0  0  0
   85.4870   51.6360   43.7560 C   0  0  0  0  0  2  0  0  0  0  0  0
   85.6250   53.1670   43.5830 C   0  0  0  0  0  2  0  0  0  0  0  0
   85.4910   53.9610   44.9250 C   0  0  1  0  0  3  0  0  0  0  0  0
   86.3550   53.3650   46.0790 C   0  0  1  0  0  3  0  0  0  0  0  0
   85.9550   54.0310   47.4060 C   0  0  0  0  0  2  0  0  0  0  0  0
   85.8750   55.5290   47.3090 C   0  0  0  0  0  3  0  0  0  0  0  0
   85.6360   56.1950   46.1560 C   0  0  0  0  0  0  0  0  0  0  0  0
   85.7260   55.5130   44.7800 C   0  0  1  0  0  0  0  0  0  0  0  0
   87.1260   55.8260   44.1800 C   0  0  0  0  0  1  0  0  0  0  0  0
   84.6240   56.1090   43.8470 C   0  0  0  0  0  2  0  0  0  0  0  0
   84.5540   57.6420   43.8700 C   0  0  0  0  0  2  0  0  0  0  0  0
   84.3250   58.1580   45.2930 C   0  0  1  0  0  3  0  0  0  0  0  0
   85.4590   57.7010   46.2180 C   0  0  0  0  0  2  0  0  0  0  0  0
   86.6130   48.4970   44.3030 C   0  0  2  0  0  3  0  0  0  0  0  0
   87.1080   49.0620   42.9600 C   0  0  0  0  0  1  0  0  0  0  0  0
   84.2980   47.6130   43.7820 C   0  0  0  0  0  3  0  0  0  0  0  0
   85.5890   47.3960   44.0850 C   0  0  0  0  0  3  0  0  0  0  0  0
   83.3450   46.4600   43.5250 C   0  0  1  0  0  3  0  0  0  0  0  0
   81.9160   46.9940   43.1980 C   0  0  0  0  0  3  0  0  0  0  0  0
   81.7290   48.4560   43.6310 C   0  0  0  0  0  1  0  0  0  0  0  0
   80.7940   46.1190   43.7780 C   0  0  0  0  0  1  0  0  0  0  0  0
   84.4780   44.2250   43.0180 C   0  0  0  0  0  1  0  0  0  0  0  0
   83.9110   45.5190   42.4310 C   0  0  0  0  0  2  0  0  0  0  0  0
   84.2680   59.5610   45.2690 O   0  0  0  0  0  0  0  0  0  0  0  0
   83.5790   59.8650   45.8810 H   0  0  0  0  0  0  0  0  0  0  0  0
  1 20  1  6  0  0  0
  1  2  1  0  0  0  0
  2  3  1  0  0  0  0
  4  3  1  1  0  0  0
  5  6  1  6  0  0  0
  5  1  1  0  0  0  0
  5  4  1  0  0  0  0
  7  5  1  0  0  0  0
  8  7  1  0  0  0  0
  9  8  1  6  0  0  0
  9 10  1  0  0  0  0
 10  4  1  0  0  0  0
 10 11  1  1  0  0  0
 12 11  1  0  0  0  0
 13 19  1  0  0  0  0
 13 12  2  0  0  0  0
 14 15  1  6  0  0  0
 14  9  1  0  0  0  0
 14 13  1  0  0  0  0
 16 17  1  0  0  0  0
 16 14  1  0  0  0  0
 17 18  1  0  0  0  0
 18 30  1  6  0  0  0
 18 19  1  0  0  0  0
 20 21  1  6  0  0  0
 22 23  2  0  0  0  0
 23 20  1  0  0  0  0
 24 29  1  6  0  0  0
 24 22  1  0  0  0  0
 25 24  1  0  0  0  0
 25 26  1  0  0  0  0
 25 27  1  0  0  0  0
 29 28  1  0  0  0  0
 30 31  1  0  0  0  0
M  END
>  <MODEL>
3

>  <REMARK>
 VINA RESULT:    -8.840      2.307      4.266
 INTER + INTRA:         -12.213
 INTER:                 -12.347
 INTRA:                   0.135
 UNBOUND:                -0.530
  Name = 
  12 active torsions:
  status: ('A' for Active; 'I' for Inactive)
    1  A    between atoms: C_1  and  C_2
    2  A    between atoms: C_2  and  C_3
    3  A    between atoms: C_3  and  C_4
    4  A    between atoms: C_3  and  C_7
    5  A    between atoms: C_4  and  C_5
    6  A    between atoms: C_4  and  C_6
    7  A    between atoms: C_8  and  C_9
    8  A    between atoms: C_9  and  C_10
    9  A    between atoms: C_9  and  C_30
   10  A    between atoms: C_14  and  C_15
   11  A    between atoms: C_23  and  C_24
   12  A    between atoms: C_27  and  O_29
                            x       y       z     vdW  Elec       q    Type
                         _______ _______ _______ _____ _____    ______ ____

>  <TORSDO>
F 6

$$$$
=
 OpenBabel09092515023D

 31 34  0  0  1  0  0  0  0  0999 V2000
   85.4790   53.2370   42.4760 C   0  0  1  0  0  3  0  0  0  0  0  0
   86.9860   53.5880   42.4310 C   0  0  0  0  0  2  0  0  0  0  0  0
   87.7440   52.2460   42.4770 C   0  0  0  0  0  2  0  0  0  0  0  0
   86.6490   51.1890   42.3820 C   0  0  2  0  0  3  0  0  0  0  0  0
   85.4380   51.8130   43.0910 C   0  0  1  0  0  0  0  0  0  0  0  0
   85.5930   51.8660   44.6440 C   0  0  0  0  0  1  0  0  0  0  0  0
   84.1990   50.9740   42.7080 C   0  0  0  0  0  2  0  0  0  0  0  0
   84.3790   49.4950   43.1250 C   0  0  0  0  0  2  0  0  0  0  0  0
   85.7070   48.8560   42.5990 C   0  0  1  0  0  3  0  0  0  0  0  0
   86.9610   49.7510   42.8490 C   0  0  1  0  0  3  0  0  0  0  0  0
   88.1550   49.1790   42.0690 C   0  0  0  0  0  2  0  0  0  0  0  0
   88.3200   47.6960   42.2530 C   0  0  0  0  0  3  0  0  0  0  0  0
   87.3060   46.8630   42.5820 C   0  0  0  0  0  0  0  0  0  0  0  0
   85.9520   47.3800   43.0980 C   0  0  1  0  0  0  0  0  0  0  0  0
   85.9660   47.2950   44.6490 C   0  0  0  0  0  1  0  0  0  0  0  0
   84.8160   46.4620   42.5440 C   0  0  0  0  0  2  0  0  0  0  0  0
   85.1010   44.9610   42.6970 C   0  0  0  0  0  2  0  0  0  0  0  0
   86.4170   44.5830   42.0120 C   0  0  1  0  0  3  0  0  0  0  0  0
   87.5840   45.3710   42.6180 C   0  0  0  0  0  2  0  0  0  0  0  0
   84.5120   54.3200   43.0590 C   0  0  2  0  0  3  0  0  0  0  0  0
   83.6770   54.9770   41.9460 C   0  0  0  0  0  1  0  0  0  0  0  0
   85.0250   55.3810   45.3010 C   0  0  0  0  0  3  0  0  0  0  0  0
   85.1360   55.3710   43.9610 C   0  0  0  0  0  3  0  0  0  0  0  0
   85.7230   56.4350   46.1410 C   0  0  1  0  0  3  0  0  0  0  0  0
   84.7350   57.5870   46.5040 C   0  0  0  0  0  3  0  0  0  0  0  0
   83.2910   57.0880   46.6540 C   0  0  0  0  0  1  0  0  0  0  0  0
   84.7930   58.7680   45.5220 C   0  0  0  0  0  1  0  0  0  0  0  0
   85.8770   54.3700   47.6390 C   0  0  0  0  0  1  0  0  0  0  0  0
   86.3900   55.7880   47.3820 C   0  0  0  0  0  2  0  0  0  0  0  0
   86.6390   43.2060   42.1750 O   0  0  0  0  0  0  0  0  0  0  0  0
   87.5930   43.0340   42.1990 H   0  0  0  0  0  0  0  0  0  0  0  0
  1 20  1  1  0  0  0
  1  5  1  0  0  0  0
  2  1  1  0  0  0  0
  2  3  1  0  0  0  0
  4  3  1  1  0  0  0
  4 10  1  0  0  0  0
  4  5  1  0  0  0  0
  5  6  1  1  0  0  0
  7  5  1  0  0  0  0
  7  8  1  0  0  0  0
  9 10  1  0  0  0  0
  9 14  1  0  0  0  0
  9  8  1  1  0  0  0
 10 11  1  6  0  0  0
 11 12  1  0  0  0  0
 12 13  2  0  0  0  0
 13 19  1  0  0  0  0
 13 14  1  0  0  0  0
 14 15  1  1  0  0  0
 16 17  1  0  0  0  0
 16 14  1  0  0  0  0
 18 30  1  1  0  0  0
 18 19  1  0  0  0  0
 18 17  1  0  0  0  0
 20 21  1  6  0  0  0
 20 23  1  0  0  0  0
 23 22  2  0  0  0  0
 24 22  1  1  0  0  0
 24 25  1  0  0  0  0
 24 29  1  0  0  0  0
 25 26  1  0  0  0  0
 27 25  1  0  0  0  0
 29 28  1  0  0  0  0
 30 31  1  0  0  0  0
M  END
>  <MODEL>
4

>  <REMARK>
 VINA RESULT:    -8.210      3.126      8.915
 INTER + INTRA:         -11.380
 INTER:                 -10.137
 INTRA:                  -1.244
 UNBOUND:                -0.530
  Name = 
  12 active torsions:
  status: ('A' for Active; 'I' for Inactive)
    1  A    between atoms: C_1  and  C_2
    2  A    between atoms: C_2  and  C_3
    3  A    between atoms: C_3  and  C_4
    4  A    between atoms: C_3  and  C_7
    5  A    between atoms: C_4  and  C_5
    6  A    between atoms: C_4  and  C_6
    7  A    between atoms: C_8  and  C_9
    8  A    between atoms: C_9  and  C_10
    9  A    between atoms: C_9  and  C_30
   10  A    between atoms: C_14  and  C_15
   11  A    between atoms: C_23  and  C_24
   12  A    between atoms: C_27  and  O_29
                            x       y       z     vdW  Elec       q    Type
                         _______ _______ _______ _____ _____    ______ ____

>  <TORSDO>
F 6

$$$$
=
 OpenBabel09092515023D

 31 34  0  0  1  0  0  0  0  0999 V2000
   85.1940   52.6150   46.2760 C   0  0  1  0  0  3  0  0  0  0  0  0
   83.8470   52.2420   45.6100 C   0  0  0  0  0  2  0  0  0  0  0  0
   84.1630   51.1350   44.5850 C   0  0  0  0  0  2  0  0  0  0  0  0
   85.6340   50.8090   44.8210 C   0  0  2  0  0  3  0  0  0  0  0  0
   86.2650   52.1390   45.2590 C   0  0  1  0  0  0  0  0  0  0  0  0
   86.4250   53.1610   44.0900 C   0  0  0  0  0  1  0  0  0  0  0  0
   87.6440   51.8120   45.8740 C   0  0  0  0  0  2  0  0  0  0  0  0
   88.5490   51.0850   44.8510 C   0  0  0  0  0  2  0  0  0  0  0  0
   87.8780   49.8250   44.2100 C   0  0  1  0  0  3  0  0  0  0  0  0
   86.4250   50.0920   43.7070 C   0  0  1  0  0  3  0  0  0  0  0  0
   85.7590   48.7530   43.3510 C   0  0  0  0  0  2  0  0  0  0  0  0
   86.6310   47.8720   42.5000 C   0  0  0  0  0  3  0  0  0  0  0  0
   87.9820   47.9440   42.4830 C   0  0  0  0  0  0  0  0  0  0  0  0
   88.7490   49.1290   43.0940 C   0  0  1  0  0  0  0  0  0  0  0  0
   89.1010   50.1160   41.9470 C   0  0  0  0  0  1  0  0  0  0  0  0
   90.0700   48.5990   43.7390 C   0  0  0  0  0  2  0  0  0  0  0  0
   90.8590   47.6400   42.8360 C   0  0  0  0  0  2  0  0  0  0  0  0
   89.9960   46.4430   42.4250 C   0  0  1  0  0  3  0  0  0  0  0  0
   88.7470   46.9140   41.6720 C   0  0  0  0  0  2  0  0  0  0  0  0
   85.3230   54.0610   46.8610 C   0  0  2  0  0  3  0  0  0  0  0  0
   84.9370   54.0950   48.3500 C   0  0  0  0  0  1  0  0  0  0  0  0
   85.1790   55.8580   45.0820 C   0  0  0  0  0  3  0  0  0  0  0  0
   84.6220   55.1680   46.0930 C   0  0  0  0  0  3  0  0  0  0  0  0
   84.3950   56.9150   44.3260 C   0  0  1  0  0  3  0  0  0  0  0  0
   84.9320   58.3400   44.6660 C   0  0  0  0  0  3  0  0  0  0  0  0
   86.3950   58.5280   44.2370 C   0  0  0  0  0  1  0  0  0  0  0  0
   84.7560   58.7180   46.1460 C   0  0  0  0  0  1  0  0  0  0  0  0
   83.6870   55.2910   42.4830 C   0  0  0  0  0  1  0  0  0  0  0  0
   84.3950   56.6090   42.8060 C   0  0  0  0  0  2  0  0  0  0  0  0
   90.7540   45.5940   41.6030 O   0  0  0  0  0  0  0  0  0  0  0  0
   90.3890   44.6960   41.6450 H   0  0  0  0  0  0  0  0  0  0  0  0
  1 20  1  6  0  0  0
  2  1  1  0  0  0  0
  3  2  1  0  0  0  0
  4  3  1  6  0  0  0
  4  5  1  0  0  0  0
  5  6  1  6  0  0  0
  5  7  1  0  0  0  0
  5  1  1  0  0  0  0
  8  7  1  0  0  0  0
  9  8  1  6  0  0  0
 10 11  1  1  0  0  0
 10  9  1  0  0  0  0
 10  4  1  0  0  0  0
 12 11  1  0  0  0  0
 13 12  2  0  0  0  0
 13 14  1  0  0  0  0
 14 15  1  6  0  0  0
 14 16  1  0  0  0  0
 14  9  1  0  0  0  0
 17 16  1  0  0  0  0
 18 30  1  6  0  0  0
 18 17  1  0  0  0  0
 19 18  1  0  0  0  0
 19 13  1  0  0  0  0
 20 21  1  1  0  0  0
 22 23  2  0  0  0  0
 23 20  1  0  0  0  0
 24 29  1  6  0  0  0
 24 25  1  0  0  0  0
 24 22  1  0  0  0  0
 25 27  1  0  0  0  0
 26 25  1  0  0  0  0
 28 29  1  0  0  0  0
 30 31  1  0  0  0  0
M  END
>  <MODEL>
5

>  <REMARK>
 VINA RESULT:    -8.087      3.153      9.026
 INTER + INTRA:         -11.218
 INTER:                 -10.364
 INTRA:                  -0.853
 UNBOUND:                -0.530
  Name = 
  12 active torsions:
  status: ('A' for Active; 'I' for Inactive)
    1  A    between atoms: C_1  and  C_2
    2  A    between atoms: C_2  and  C_3
    3  A    between atoms: C_3  and  C_4
    4  A    between atoms: C_3  and  C_7
    5  A    between atoms: C_4  and  C_5
    6  A    between atoms: C_4  and  C_6
    7  A    between atoms: C_8  and  C_9
    8  A    between atoms: C_9  and  C_10
    9  A    between atoms: C_9  and  C_30
   10  A    between atoms: C_14  and  C_15
   11  A    between atoms: C_23  and  C_24
   12  A    between atoms: C_27  and  O_29
                            x       y       z     vdW  Elec       q    Type
                         _______ _______ _______ _____ _____    ______ ____

>  <TORSDO>
F 6

$$$$
=
 OpenBabel09092515023D

 31 34  0  0  1  0  0  0  0  0999 V2000
   86.7610   53.7390   42.6190 C   0  0  1  0  0  3  0  0  0  0  0  0
   88.2310   53.5900   42.1570 C   0  0  0  0  0  2  0  0  0  0  0  0
   88.5060   52.0750   42.0740 C   0  0  0  0  0  2  0  0  0  0  0  0
   87.1490   51.4290   42.3300 C   0  0  2  0  0  3  0  0  0  0  0  0
   86.4360   52.3830   43.3000 C   0  0  1  0  0  0  0  0  0  0  0  0
   87.0100   52.3290   44.7510 C   0  0  0  0  0  1  0  0  0  0  0  0
   84.9400   51.9990   43.3040 C   0  0  0  0  0  2  0  0  0  0  0  0
   84.7460   50.5270   43.7390 C   0  0  0  0  0  2  0  0  0  0  0  0
   85.6090   49.5140   42.9150 C   0  0  1  0  0  3  0  0  0  0  0  0
   87.1010   49.9510   42.7750 C   0  0  1  0  0  3  0  0  0  0  0  0
   87.7960   49.0550   41.7380 C   0  0  0  0  0  2  0  0  0  0  0  0
   87.5240   47.5910   41.9530 C   0  0  0  0  0  3  0  0  0  0  0  0
   86.4260   47.1160   42.5830 C   0  0  0  0  0  0  0  0  0  0  0  0
   85.4970   48.0210   43.4100 C   0  0  1  0  0  0  0  0  0  0  0  0
   85.8990   47.8830   44.9050 C   0  0  0  0  0  1  0  0  0  0  0  0
   84.0230   47.5360   43.2280 C   0  0  0  0  0  2  0  0  0  0  0  0
   83.8470   46.0190   43.3810 C   0  0  0  0  0  2  0  0  0  0  0  0
   84.7400   45.2620   42.3930 C   0  0  1  0  0  3  0  0  0  0  0  0
   86.2140   45.6130   42.6240 C   0  0  0  0  0  2  0  0  0  0  0  0
   86.3820   55.0540   43.3780 C   0  0  2  0  0  3  0  0  0  0  0  0
   87.6190   55.6980   44.0270 C   0  0  0  0  0  1  0  0  0  0  0  0
   85.3070   55.3640   45.6510 C   0  0  0  0  0  3  0  0  0  0  0  0
   85.2360   54.9580   44.3710 C   0  0  0  0  0  3  0  0  0  0  0  0
   84.1020   55.2860   46.5690 C   0  0  1  0  0  3  0  0  0  0  0  0
   84.4750   54.5570   47.8980 C   0  0  0  0  0  3  0  0  0  0  0  0
   85.9290   54.0640   47.9020 C   0  0  0  0  0  1  0  0  0  0  0  0
   83.5190   53.4060   48.2480 C   0  0  0  0  0  1  0  0  0  0  0  0
   84.4130   57.8060   46.2820 C   0  0  0  0  0  1  0  0  0  0  0  0
   83.4950   56.6940   46.7940 C   0  0  0  0  0  2  0  0  0  0  0  0
   84.5480   43.8820   42.5660 O   0  0  0  0  0  0  0  0  0  0  0  0
   83.7410   43.7310   43.0820 H   0  0  0  0  0  0  0  0  0  0  0  0
  1  5  1  0  0  0  0
  1 20  1  1  0  0  0
  2  1  1  0  0  0  0
  3  2  1  0  0  0  0
  4  3  1  1  0  0  0
  4 10  1  0  0  0  0
  4  5  1  0  0  0  0
  5  7  1  0  0  0  0
  5  6  1  1  0  0  0
  7  8  1  0  0  0  0
  9 14  1  0  0  0  0
  9  8  1  1  0  0  0
 10 11  1  6  0  0  0
 10  9  1  0  0  0  0
 11 12  1  0  0  0  0
 12 13  2  0  0  0  0
 13 19  1  0  0  0  0
 13 14  1  0  0  0  0
 14 15  1  1  0  0  0
 16 17  1  0  0  0  0
 16 14  1  0  0  0  0
 18 30  1  1  0  0  0
 18 19  1  0  0  0  0
 18 17  1  0  0  0  0
 20 21  1  1  0  0  0
 20 23  1  0  0  0  0
 23 22  2  0  0  0  0
 24 22  1  6  0  0  0
 24 29  1  0  0  0  0
 24 25  1  0  0  0  0
 25 26  1  0  0  0  0
 25 27  1  0  0  0  0
 28 29  1  0  0  0  0
 30 31  1  0  0  0  0
M  END
>  <MODEL>
6

>  <REMARK>
 VINA RESULT:    -8.048      2.934      8.211
 INTER + INTRA:         -11.166
 INTER:                 -10.447
 INTRA:                  -0.719
 UNBOUND:                -0.530
  Name = 
  12 active torsions:
  status: ('A' for Active; 'I' for Inactive)
    1  A    between atoms: C_1  and  C_2
    2  A    between atoms: C_2  and  C_3
    3  A    between atoms: C_3  and  C_4
    4  A    between atoms: C_3  and  C_7
    5  A    between atoms: C_4  and  C_5
    6  A    between atoms: C_4  and  C_6
    7  A    between atoms: C_8  and  C_9
    8  A    between atoms: C_9  and  C_10
    9  A    between atoms: C_9  and  C_30
   10  A    between atoms: C_14  and  C_15
   11  A    between atoms: C_23  and  C_24
   12  A    between atoms: C_27  and  O_29
                            x       y       z     vdW  Elec       q    Type
                         _______ _______ _______ _____ _____    ______ ____

>  <TORSDO>
F 6

$$$$
=
 OpenBabel09092515023D

 31 34  0  0  1  0  0  0  0  0999 V2000
   86.4430   49.6050   44.6590 C   0  0  1  0  0  3  0  0  0  0  0  0
   86.9740   49.4530   46.1060 C   0  0  0  0  0  2  0  0  0  0  0  0
   86.9650   50.8680   46.7200 C   0  0  0  0  0  2  0  0  0  0  0  0
   86.2840   51.7340   45.6660 C   0  0  2  0  0  3  0  0  0  0  0  0
   86.6780   51.1010   44.3230 C   0  0  1  0  0  0  0  0  0  0  0  0
   88.1650   51.3630   43.9300 C   0  0  0  0  0  1  0  0  0  0  0  0
   85.7320   51.6810   43.2470 C   0  0  0  0  0  2  0  0  0  0  0  0
   85.8450   53.2220   43.1830 C   0  0  0  0  0  2  0  0  0  0  0  0
   85.6540   53.9210   44.5700 C   0  0  1  0  0  3  0  0  0  0  0  0
   86.4940   53.2620   45.7090 C   0  0  1  0  0  3  0  0  0  0  0  0
   86.0400   53.8290   47.0640 C   0  0  0  0  0  2  0  0  0  0  0  0
   85.9330   55.3280   47.0660 C   0  0  0  0  0  3  0  0  0  0  0  0
   85.7170   56.0670   45.9540 C   0  0  0  0  0  0  0  0  0  0  0  0
   85.8620   55.4830   44.5380 C   0  0  1  0  0  0  0  0  0  0  0  0
   87.2730   55.8610   44.0060 C   0  0  0  0  0  1  0  0  0  0  0  0
   84.7770   56.1210   43.6140 C   0  0  0  0  0  2  0  0  0  0  0  0
   84.6770   57.6480   43.7380 C   0  0  0  0  0  2  0  0  0  0  0  0
   84.3940   58.0610   45.1850 C   0  0  1  0  0  3  0  0  0  0  0  0
   85.5080   57.5630   46.1130 C   0  0  0  0  0  2  0  0  0  0  0  0
   86.9040   48.5330   43.6160 C   0  0  2  0  0  3  0  0  0  0  0  0
   87.0400   49.1460   42.2120 C   0  0  0  0  0  1  0  0  0  0  0  0
   86.4930   46.1310   42.9240 C   0  0  0  0  0  3  0  0  0  0  0  0
   86.1020   47.2430   43.5700 C   0  0  0  0  0  3  0  0  0  0  0  0
   85.6620   44.8620   42.9690 C   0  0  1  0  0  3  0  0  0  0  0  0
   86.5840   43.6100   43.1060 C   0  0  0  0  0  3  0  0  0  0  0  0
   87.6440   43.7870   44.2040 C   0  0  0  0  0  1  0  0  0  0  0  0
   87.2490   43.1990   41.7830 C   0  0  0  0  0  1  0  0  0  0  0  0
   83.2690   45.5340   43.5640 C   0  0  0  0  0  1  0  0  0  0  0  0
   84.5870   44.9540   44.0820 C   0  0  0  0  0  2  0  0  0  0  0  0
   84.3090   59.4610   45.2550 O   0  0  0  0  0  0  0  0  0  0  0  0
   83.4330   59.7140   45.5830 H   0  0  0  0  0  0  0  0  0  0  0  0
  1 20  1  6  0  0  0
  1  2  1  0  0  0  0
  2  3  1  0  0  0  0
  4 10  1  0  0  0  0
  4  3  1  1  0  0  0
  5  6  1  6  0  0  0
  5  1  1  0  0  0  0
  5  4  1  0  0  0  0
  7  5  1  0  0  0  0
  8  7  1  0  0  0  0
  9  8  1  6  0  0  0
  9 10  1  0  0  0  0
 10 11  1  1  0  0  0
 11 12  1  0  0  0  0
 13 19  1  0  0  0  0
 13 12  2  0  0  0  0
 14 15  1  6  0  0  0
 14  9  1  0  0  0  0
 14 13  1  0  0  0  0
 16 17  1  0  0  0  0
 16 14  1  0  0  0  0
 17 18  1  0  0  0  0
 18 30  1  6  0  0  0
 18 19  1  0  0  0  0
 20 21  1  6  0  0  0
 22 23  2  0  0  0  0
 23 20  1  0  0  0  0
 24 22  1  1  0  0  0
 24 25  1  0  0  0  0
 24 29  1  0  0  0  0
 25 26  1  0  0  0  0
 27 25  1  0  0  0  0
 28 29  1  0  0  0  0
 30 31  1  0  0  0  0
M  END
>  <MODEL>
7

>  <REMARK>
 VINA RESULT:    -8.041      1.861      3.260
 INTER + INTRA:         -11.156
 INTER:                 -11.455
 INTRA:                   0.299
 UNBOUND:                -0.530
  Name = 
  12 active torsions:
  status: ('A' for Active; 'I' for Inactive)
    1  A    between atoms: C_1  and  C_2
    2  A    between atoms: C_2  and  C_3
    3  A    between atoms: C_3  and  C_4
    4  A    between atoms: C_3  and  C_7
    5  A    between atoms: C_4  and  C_5
    6  A    between atoms: C_4  and  C_6
    7  A    between atoms: C_8  and  C_9
    8  A    between atoms: C_9  and  C_10
    9  A    between atoms: C_9  and  C_30
   10  A    between atoms: C_14  and  C_15
   11  A    between atoms: C_23  and  C_24
   12  A    between atoms: C_27  and  O_29
                            x       y       z     vdW  Elec       q    Type
                         _______ _______ _______ _____ _____    ______ ____

>  <TORSDO>
F 6

$$$$
=
 OpenBabel09092515023D

 31 34  0  0  1  0  0  0  0  0999 V2000
   85.2790   53.3770   43.3870 C   0  0  1  0  0  3  0  0  0  0  0  0
   84.5290   54.1740   42.2930 C   0  0  0  0  0  2  0  0  0  0  0  0
   83.2660   53.3590   41.9530 C   0  0  0  0  0  2  0  0  0  0  0  0
   83.2610   52.2250   42.9730 C   0  0  2  0  0  3  0  0  0  0  0  0
   84.7450   51.9280   43.2370 C   0  0  1  0  0  0  0  0  0  0  0  0
   85.4460   51.1900   42.0530 C   0  0  0  0  0  1  0  0  0  0  0  0
   84.8200   51.0700   44.5190 C   0  0  0  0  0  2  0  0  0  0  0  0
   84.0180   49.7580   44.3570 C   0  0  0  0  0  2  0  0  0  0  0  0
   82.5420   49.9830   43.8880 C   0  0  1  0  0  3  0  0  0  0  0  0
   82.4250   50.9610   42.6770 C   0  0  1  0  0  3  0  0  0  0  0  0
   80.9490   51.3310   42.4660 C   0  0  0  0  0  2  0  0  0  0  0  0
   80.0370   50.1350   42.4750 C   0  0  0  0  0  3  0  0  0  0  0  0
   80.3270   48.9760   43.1080 C   0  0  0  0  0  0  0  0  0  0  0  0
   81.7400   48.6520   43.6240 C   0  0  1  0  0  0  0  0  0  0  0  0
   82.4450   47.7600   42.5640 C   0  0  0  0  0  1  0  0  0  0  0  0
   81.6190   47.8580   44.9640 C   0  0  0  0  0  2  0  0  0  0  0  0
   80.6070   46.7050   44.9130 C   0  0  0  0  0  2  0  0  0  0  0  0
   79.2190   47.2140   44.5170 C   0  0  1  0  0  3  0  0  0  0  0  0
   79.2670   47.8900   43.1410 C   0  0  0  0  0  2  0  0  0  0  0  0
   86.8270   53.5850   43.4870 C   0  0  2  0  0  3  0  0  0  0  0  0
   87.1820   55.0790   43.5770 C   0  0  0  0  0  1  0  0  0  0  0  0
   88.6040   51.9570   42.7080 C   0  0  0  0  0  3  0  0  0  0  0  0
   87.6740   52.8880   42.4360 C   0  0  0  0  0  3  0  0  0  0  0  0
   89.3730   51.2650   41.5980 C   0  0  1  0  0  3  0  0  0  0  0  0
   89.3190   49.7160   41.7800 C   0  0  0  0  0  3  0  0  0  0  0  0
   88.5140   49.3040   43.0210 C   0  0  0  0  0  1  0  0  0  0  0  0
   90.7090   49.0590   41.8020 C   0  0  0  0  0  1  0  0  0  0  0  0
   89.8550   52.6850   39.5280 C   0  0  0  0  0  1  0  0  0  0  0  0
   88.8680   51.7350   40.2100 C   0  0  0  0  0  2  0  0  0  0  0  0
   78.3260   46.1310   44.4820 O   0  0  0  0  0  0  0  0  0  0  0  0
   77.4790   46.4240   44.1110 H   0  0  0  0  0  0  0  0  0  0  0  0
  1 20  1  6  0  0  0
  2  1  1  0  0  0  0
  3  2  1  0  0  0  0
  4  3  1  6  0  0  0
  4  5  1  0  0  0  0
  5  6  1  6  0  0  0
  5  1  1  0  0  0  0
  5  7  1  0  0  0  0
  8  7  1  0  0  0  0
  9  8  1  6  0  0  0
 10 11  1  1  0  0  0
 10  4  1  0  0  0  0
 10  9  1  0  0  0  0
 11 12  1  0  0  0  0
 12 13  2  0  0  0  0
 13 19  1  0  0  0  0
 13 14  1  0  0  0  0
 14 15  1  6  0  0  0
 14  9  1  0  0  0  0
 14 16  1  0  0  0  0
 17 16  1  0  0  0  0
 18 30  1  6  0  0  0
 18 17  1  0  0  0  0
 19 18  1  0  0  0  0
 20 21  1  6  0  0  0
 23 22  2  0  0  0  0
 23 20  1  0  0  0  0
 24 29  1  6  0  0  0
 24 25  1  0  0  0  0
 24 22  1  0  0  0  0
 25 27  1  0  0  0  0
 25 26  1  0  0  0  0
 28 29  1  0  0  0  0
 31 30  1  0  0  0  0
M  END
>  <MODEL>
8

>  <REMARK>
 VINA RESULT:    -7.622      3.820      6.788
 INTER + INTRA:         -10.603
 INTER:                 -10.073
 INTRA:                  -0.530
 UNBOUND:                -0.530
  Name = 
  12 active torsions:
  status: ('A' for Active; 'I' for Inactive)
    1  A    between atoms: C_1  and  C_2
    2  A    between atoms: C_2  and  C_3
    3  A    between atoms: C_3  and  C_4
    4  A    between atoms: C_3  and  C_7
    5  A    between atoms: C_4  and  C_5
    6  A    between atoms: C_4  and  C_6
    7  A    between atoms: C_8  and  C_9
    8  A    between atoms: C_9  and  C_10
    9  A    between atoms: C_9  and  C_30
   10  A    between atoms: C_14  and  C_15
   11  A    between atoms: C_23  and  C_24
   12  A    between atoms: C_27  and  O_29
                            x       y       z     vdW  Elec       q    Type
                         _______ _______ _______ _____ _____    ______ ____

>  <TORSDO>
F 6

$$$$
=
 OpenBabel09092515023D

 31 34  0  0  1  0  0  0  0  0999 V2000
   84.3790   53.2130   43.1730 C   0  0  1  0  0  3  0  0  0  0  0  0
   83.2100   52.2930   42.7430 C   0  0  0  0  0  2  0  0  0  0  0  0
   83.8300   50.9100   42.4610 C   0  0  0  0  0  2  0  0  0  0  0  0
   85.2850   51.0510   42.8950 C   0  0  2  0  0  3  0  0  0  0  0  0
   85.6410   52.5160   42.6010 C   0  0  1  0  0  0  0  0  0  0  0  0
   85.8090   52.8160   41.0780 C   0  0  0  0  0  1  0  0  0  0  0  0
   86.9540   52.8290   43.3530 C   0  0  0  0  0  2  0  0  0  0  0  0
   88.0920   51.8850   42.9000 C   0  0  0  0  0  2  0  0  0  0  0  0
   87.7150   50.3680   42.9830 C   0  0  1  0  0  3  0  0  0  0  0  0
   86.3240   50.0460   42.3530 C   0  0  1  0  0  3  0  0  0  0  0  0
   85.9230   48.6090   42.7210 C   0  0  0  0  0  2  0  0  0  0  0  0
   87.0280   47.6150   42.4930 C   0  0  0  0  0  3  0  0  0  0  0  0
   88.3410   47.9390   42.4990 C   0  0  0  0  0  0  0  0  0  0  0  0
   88.8290   49.3970   42.4330 C   0  0  1  0  0  0  0  0  0  0  0  0
   89.1870   49.7170   40.9550 C   0  0  0  0  0  1  0  0  0  0  0  0
   90.1100   49.5430   43.3150 C   0  0  0  0  0  2  0  0  0  0  0  0
   91.1530   48.4410   43.0790 C   0  0  0  0  0  2  0  0  0  0  0  0
   90.5470   47.0550   43.3180 C   0  0  1  0  0  3  0  0  0  0  0  0
   89.3590   46.8190   42.3770 C   0  0  0  0  0  2  0  0  0  0  0  0
   84.2060   54.7480   42.9220 C   0  0  2  0  0  3  0  0  0  0  0  0
   84.4660   55.1040   41.4480 C   0  0  0  0  0  1  0  0  0  0  0  0
   85.0930   55.4940   45.1740 C   0  0  0  0  0  3  0  0  0  0  0  0
   84.9730   55.6770   43.8480 C   0  0  0  0  0  3  0  0  0  0  0  0
   85.9220   56.4360   46.0270 C   0  0  1  0  0  3  0  0  0  0  0  0
   85.1180   57.7360   46.3440 C   0  0  0  0  0  3  0  0  0  0  0  0
   83.6590   57.4400   46.7200 C   0  0  0  0  0  1  0  0  0  0  0  0
   85.1790   58.7770   45.2140 C   0  0  0  0  0  1  0  0  0  0  0  0
   85.7320   54.3720   47.5220 C   0  0  0  0  0  1  0  0  0  0  0  0
   86.4360   55.7110   47.2970 C   0  0  0  0  0  2  0  0  0  0  0  0
   91.5310   46.0790   43.0930 O   0  0  0  0  0  0  0  0  0  0  0  0
   92.4090   46.4770   43.2030 H   0  0  0  0  0  0  0  0  0  0  0  0
  1 20  1  6  0  0  0
  2  1  1  0  0  0  0
  3  2  1  0  0  0  0
  4  3  1  6  0  0  0
  5  6  1  6  0  0  0
  5  4  1  0  0  0  0
  5  1  1  0  0  0  0
  5  7  1  0  0  0  0
  8  7  1  0  0  0  0
  9  8  1  6  0  0  0
 10 11  1  1  0  0  0
 10  4  1  0  0  0  0
 10  9  1  0  0  0  0
 12 13  2  0  0  0  0
 12 11  1  0  0  0  0
 14 15  1  6  0  0  0
 14 13  1  0  0  0  0
 14  9  1  0  0  0  0
 14 16  1  0  0  0  0
 17 16  1  0  0  0  0
 17 18  1  0  0  0  0
 18 30  1  6  0  0  0
 19 13  1  0  0  0  0
 19 18  1  0  0  0  0
 20 21  1  6  0  0  0
 20 23  1  0  0  0  0
 23 22  2  0  0  0  0
 24 22  1  1  0  0  0
 24 25  1  0  0  0  0
 24 29  1  0  0  0  0
 25 26  1  0  0  0  0
 27 25  1  0  0  0  0
 29 28  1  0  0  0  0
 30 31  1  0  0  0  0
M  END
>  <MODEL>
9

>  <REMARK>
 VINA RESULT:    -7.590      3.128      8.845
 INTER + INTRA:         -10.560
 INTER:                 -10.448
 INTRA:                  -0.113
 UNBOUND:                -0.530
  Name = 
  12 active torsions:
  status: ('A' for Active; 'I' for Inactive)
    1  A    between atoms: C_1  and  C_2
    2  A    between atoms: C_2  and  C_3
    3  A    between atoms: C_3  and  C_4
    4  A    between atoms: C_3  and  C_7
    5  A    between atoms: C_4  and  C_5
    6  A    between atoms: C_4  and  C_6
    7  A    between atoms: C_8  and  C_9
    8  A    between atoms: C_9  and  C_10
    9  A    between atoms: C_9  and  C_30
   10  A    between atoms: C_14  and  C_15
   11  A    between atoms: C_23  and  C_24
   12  A    between atoms: C_27  and  O_29
                            x       y       z     vdW  Elec       q    Type
                         _______ _______ _______ _____ _____    ______ ____

>  <TORSDO>
F 6

$$$$
