MODEL 1
REMARK VINA RESULT:    -9.285      0.000      0.000
REMARK INTER + INTRA:         -10.452
REMARK INTER:                 -10.341
REMARK INTRA:                  -0.112
REMARK UNBOUND:                 0.461
REMARK  Name = 
REMARK  5 active torsions:
REMARK  status: ('A' for Active; 'I' for Inactive)
REMARK    1  A    between atoms: C_1  and  O_2
REMARK    2  A    between atoms: O_2  and  C_3
REMARK    3  A    between atoms: C_13  and  C_19
REMARK    4  A    between atoms: C_16  and  O_17
REMARK    5  A    between atoms: O_17  and  C_18
REMARK                            x       y       z     vdW  Elec       q    Type
REMARK                         _______ _______ _______ _____ _____    ______ ____
ROOT
ATOM      1  C   UNL     1      87.768  51.565  41.299  0.00  0.00    +0.162 A 
ATOM      2  C   UNL     1      88.190  50.717  42.339  0.00  0.00    -0.013 A 
ATOM      3  C   UNL     1      87.798  50.968  43.660  0.00  0.00    -0.040 A 
ATOM      4  C   UNL     1      88.167  50.021  44.778  0.00  0.00    -0.021 C 
ATOM      5  C   UNL     1      86.941  49.711  45.688  0.00  0.00    +0.011 C 
ATOM      6  C   UNL     1      86.059  48.592  45.077  0.00  0.00    +0.096 C 
ATOM      7  O   UNL     1      84.863  49.222  44.662  0.00  0.00    -0.464 OA
ATOM      8  C   UNL     1      84.786  50.519  45.116  0.00  0.00    +0.312 C 
ATOM      9  O   UNL     1      83.801  51.258  44.858  0.00  0.00    -0.250 OA
ATOM     10  C   UNL     1      85.985  50.933  45.908  0.00  0.00    +0.073 C 
ATOM     11  C   UNL     1      86.620  52.270  45.427  0.00  0.00    +0.023 C 
ATOM     12  C   UNL     1      87.017  52.097  43.964  0.00  0.00    -0.032 A 
ATOM     13  C   UNL     1      86.546  52.908  42.917  0.00  0.00    -0.012 A 
ATOM     14  C   UNL     1      86.935  52.657  41.587  0.00  0.00    +0.162 A 
ENDROOT
BRANCH  11  15
ATOM     15  C   UNL     1      85.879  53.565  45.770  0.00  0.00    -0.035 A 
ATOM     16  C   UNL     1      84.848  53.637  46.754  0.00  0.00    -0.054 A 
ATOM     17  C   UNL     1      84.236  54.863  47.070  0.00  0.00    -0.016 A 
ATOM     18  C   UNL     1      84.691  56.005  46.424  0.00  0.00    +0.166 A 
ATOM     19  C   UNL     1      85.699  55.962  45.522  0.00  0.00    +0.167 A 
ATOM     20  C   UNL     1      86.332  54.772  45.180  0.00  0.00    -0.012 A 
ATOM     21  O   UNL     1      85.955  57.238  45.055  0.00  0.00    -0.453 OA
ATOM     22  C   UNL     1      85.045  58.136  45.705  0.00  0.00    +0.233 C 
ATOM     23  O   UNL     1      84.258  57.309  46.572  0.00  0.00    -0.453 OA
ENDBRANCH  11  15
BRANCH   1  25
ATOM     24  C   UNL     1      89.453  51.573  39.447  0.00  0.00    +0.079 C 
ATOM     25  O   UNL     1      88.145  51.349  39.964  0.00  0.00    -0.491 OA
ENDBRANCH   1  25
BRANCH  14  26
ATOM     26  O   UNL     1      86.508  53.466  40.521  0.00  0.00    -0.491 OA
ATOM     27  C   UNL     1      85.156  53.844  40.284  0.00  0.00    +0.079 C 
ENDBRANCH  14  26
TORSDOF 3
ENDMDL
MODEL 2
REMARK VINA RESULT:    -9.209      2.541      3.882
REMARK INTER + INTRA:         -10.363
REMARK INTER:                 -10.311
REMARK INTRA:                  -0.052
REMARK UNBOUND:                 0.461
REMARK  Name = 
REMARK  5 active torsions:
REMARK  status: ('A' for Active; 'I' for Inactive)
REMARK    1  A    between atoms: C_1  and  O_2
REMARK    2  A    between atoms: O_2  and  C_3
REMARK    3  A    between atoms: C_13  and  C_19
REMARK    4  A    between atoms: C_16  and  O_17
REMARK    5  A    between atoms: O_17  and  C_18
REMARK                            x       y       z     vdW  Elec       q    Type
REMARK                         _______ _______ _______ _____ _____    ______ ____
ROOT
ATOM      1  C   UNL     1      85.517  53.054  40.882  0.00  0.00    +0.162 A 
ATOM      2  C   UNL     1      86.856  52.664  40.697  0.00  0.00    -0.013 A 
ATOM      3  C   UNL     1      87.592  52.136  41.765  0.00  0.00    -0.040 A 
ATOM      4  C   UNL     1      89.003  51.631  41.567  0.00  0.00    -0.021 C 
ATOM      5  C   UNL     1      89.208  50.241  42.242  0.00  0.00    +0.011 C 
ATOM      6  C   UNL     1      88.705  49.096  41.328  0.00  0.00    +0.096 C 
ATOM      7  O   UNL     1      87.544  48.583  41.950  0.00  0.00    -0.464 OA
ATOM      8  C   UNL     1      87.374  49.096  43.215  0.00  0.00    +0.312 C 
ATOM      9  O   UNL     1      86.400  48.770  43.942  0.00  0.00    -0.250 OA
ATOM     10  C   UNL     1      88.441  50.071  43.598  0.00  0.00    +0.073 C 
ATOM     11  C   UNL     1      87.888  51.424  44.134  0.00  0.00    +0.023 C 
ATOM     12  C   UNL     1      87.014  52.035  43.043  0.00  0.00    -0.032 A 
ATOM     13  C   UNL     1      85.658  52.367  43.210  0.00  0.00    -0.012 A 
ATOM     14  C   UNL     1      84.913  52.894  42.138  0.00  0.00    +0.162 A 
ENDROOT
BRANCH  11  15
ATOM     15  C   UNL     1      87.298  51.433  45.546  0.00  0.00    -0.035 A 
ATOM     16  C   UNL     1      87.619  50.453  46.532  0.00  0.00    -0.054 A 
ATOM     17  C   UNL     1      87.091  50.538  47.833  0.00  0.00    -0.016 A 
ATOM     18  C   UNL     1      86.280  51.622  48.139  0.00  0.00    +0.166 A 
ATOM     19  C   UNL     1      86.002  52.586  47.229  0.00  0.00    +0.167 A 
ATOM     20  C   UNL     1      86.502  52.542  45.933  0.00  0.00    -0.012 A 
ATOM     21  O   UNL     1      85.193  53.546  47.808  0.00  0.00    -0.453 OA
ATOM     22  C   UNL     1      84.946  53.157  49.165  0.00  0.00    +0.233 C 
ATOM     23  O   UNL     1      85.660  51.925  49.336  0.00  0.00    -0.453 OA
ENDBRANCH  11  15
BRANCH   1  25
ATOM     24  C   UNL     1      84.608  54.984  39.571  0.00  0.00    +0.079 C 
ATOM     25  O   UNL     1      84.748  53.591  39.838  0.00  0.00    -0.491 OA
ENDBRANCH   1  25
BRANCH  14  26
ATOM     26  O   UNL     1      83.566  53.266  42.280  0.00  0.00    -0.491 OA
ATOM     27  C   UNL     1      82.464  52.370  42.173  0.00  0.00    +0.079 C 
ENDBRANCH  14  26
TORSDOF 3
ENDMDL
MODEL 3
REMARK VINA RESULT:    -9.155      2.087      6.837
REMARK INTER + INTRA:         -10.299
REMARK INTER:                 -10.321
REMARK INTRA:                   0.022
REMARK UNBOUND:                 0.461
REMARK  Name = 
REMARK  5 active torsions:
REMARK  status: ('A' for Active; 'I' for Inactive)
REMARK    1  A    between atoms: C_1  and  O_2
REMARK    2  A    between atoms: O_2  and  C_3
REMARK    3  A    between atoms: C_13  and  C_19
REMARK    4  A    between atoms: C_16  and  O_17
REMARK    5  A    between atoms: O_17  and  C_18
REMARK                            x       y       z     vdW  Elec       q    Type
REMARK                         _______ _______ _______ _____ _____    ______ ____
ROOT
ATOM      1  C   UNL     1      84.581  56.205  45.103  0.00  0.00    +0.162 A 
ATOM      2  C   UNL     1      84.250  56.412  43.752  0.00  0.00    -0.013 A 
ATOM      3  C   UNL     1      84.605  55.464  42.784  0.00  0.00    -0.040 A 
ATOM      4  C   UNL     1      84.182  55.624  41.341  0.00  0.00    -0.021 C 
ATOM      5  C   UNL     1      83.600  54.297  40.769  0.00  0.00    +0.011 C 
ATOM      6  C   UNL     1      82.108  54.129  41.153  0.00  0.00    +0.096 C 
ATOM      7  O   UNL     1      82.064  53.071  42.090  0.00  0.00    -0.464 OA
ATOM      8  C   UNL     1      83.274  52.422  42.183  0.00  0.00    +0.312 C 
ATOM      9  O   UNL     1      83.450  51.448  42.961  0.00  0.00    -0.250 OA
ATOM     10  C   UNL     1      84.322  53.007  41.291  0.00  0.00    +0.073 C 
ATOM     11  C   UNL     1      85.654  53.335  42.026  0.00  0.00    +0.023 C 
ATOM     12  C   UNL     1      85.337  54.321  43.147  0.00  0.00    -0.032 A 
ATOM     13  C   UNL     1      85.614  54.086  44.506  0.00  0.00    -0.012 A 
ATOM     14  C   UNL     1      85.255  55.034  45.483  0.00  0.00    +0.162 A 
ENDROOT
BRANCH  11  15
ATOM     15  C   UNL     1      86.557  52.159  42.404  0.00  0.00    -0.035 A 
ATOM     16  C   UNL     1      87.119  51.993  43.705  0.00  0.00    -0.054 A 
ATOM     17  C   UNL     1      87.899  50.865  44.016  0.00  0.00    -0.016 A 
ATOM     18  C   UNL     1      88.074  49.901  43.031  0.00  0.00    +0.166 A 
ATOM     19  C   UNL     1      87.510  50.020  41.806  0.00  0.00    +0.167 A 
ATOM     20  C   UNL     1      86.733  51.118  41.456  0.00  0.00    -0.012 A 
ATOM     21  O   UNL     1      87.833  48.915  41.041  0.00  0.00    -0.453 OA
ATOM     22  C   UNL     1      88.655  48.051  41.837  0.00  0.00    +0.233 C 
ATOM     23  O   UNL     1      88.782  48.716  43.101  0.00  0.00    -0.453 OA
ENDBRANCH  11  15
BRANCH   1  25
ATOM     24  C   UNL     1      84.594  58.515  46.069  0.00  0.00    +0.079 C 
ATOM     25  O   UNL     1      84.247  57.134  46.102  0.00  0.00    -0.491 OA
ENDBRANCH   1  25
BRANCH  14  26
ATOM     26  O   UNL     1      85.544  54.846  46.844  0.00  0.00    -0.491 OA
ATOM     27  C   UNL     1      85.717  53.576  47.466  0.00  0.00    +0.079 C 
ENDBRANCH  14  26
TORSDOF 3
ENDMDL
MODEL 4
REMARK VINA RESULT:    -9.142      2.743      3.857
REMARK INTER + INTRA:         -10.284
REMARK INTER:                 -10.382
REMARK INTRA:                   0.098
REMARK UNBOUND:                 0.461
REMARK  Name = 
REMARK  5 active torsions:
REMARK  status: ('A' for Active; 'I' for Inactive)
REMARK    1  A    between atoms: C_1  and  O_2
REMARK    2  A    between atoms: O_2  and  C_3
REMARK    3  A    between atoms: C_13  and  C_19
REMARK    4  A    between atoms: C_16  and  O_17
REMARK    5  A    between atoms: O_17  and  C_18
REMARK                            x       y       z     vdW  Elec       q    Type
REMARK                         _______ _______ _______ _____ _____    ______ ____
ROOT
ATOM      1  C   UNL     1      84.030  48.959  44.306  0.00  0.00    +0.162 A 
ATOM      2  C   UNL     1      85.351  48.821  44.769  0.00  0.00    -0.013 A 
ATOM      3  C   UNL     1      86.175  49.945  44.903  0.00  0.00    -0.040 A 
ATOM      4  C   UNL     1      87.567  49.830  45.481  0.00  0.00    -0.021 C 
ATOM      5  C   UNL     1      87.833  50.937  46.545  0.00  0.00    +0.011 C 
ATOM      6  C   UNL     1      87.261  50.533  47.927  0.00  0.00    +0.096 C 
ATOM      7  O   UNL     1      86.157  51.386  48.156  0.00  0.00    -0.464 OA
ATOM      8  C   UNL     1      86.090  52.395  47.223  0.00  0.00    +0.312 C 
ATOM      9  O   UNL     1      85.181  53.265  47.244  0.00  0.00    -0.250 OA
ATOM     10  C   UNL     1      87.181  52.320  46.203  0.00  0.00    +0.073 C 
ATOM     11  C   UNL     1      86.669  52.381  44.734  0.00  0.00    +0.023 C 
ATOM     12  C   UNL     1      85.706  51.216  44.529  0.00  0.00    -0.032 A 
ATOM     13  C   UNL     1      84.367  51.361  44.124  0.00  0.00    -0.012 A 
ATOM     14  C   UNL     1      83.533  50.233  43.993  0.00  0.00    +0.162 A 
ENDROOT
BRANCH  11  15
ATOM     15  C   UNL     1      86.198  53.739  44.209  0.00  0.00    -0.035 A 
ATOM     16  C   UNL     1      85.364  53.886  43.061  0.00  0.00    -0.054 A 
ATOM     17  C   UNL     1      84.914  55.155  42.652  0.00  0.00    -0.016 A 
ATOM     18  C   UNL     1      85.276  56.254  43.420  0.00  0.00    +0.166 A 
ATOM     19  C   UNL     1      86.028  56.128  44.539  0.00  0.00    +0.167 A 
ATOM     20  C   UNL     1      86.493  54.894  44.979  0.00  0.00    -0.012 A 
ATOM     21  O   UNL     1      86.216  57.373  45.110  0.00  0.00    -0.453 OA
ATOM     22  C   UNL     1      85.542  58.340  44.294  0.00  0.00    +0.233 C 
ATOM     23  O   UNL     1      84.953  57.584  43.228  0.00  0.00    -0.453 OA
ENDBRANCH  11  15
BRANCH   1  25
ATOM     24  C   UNL     1      83.541  46.631  43.527  0.00  0.00    +0.079 C 
ATOM     25  O   UNL     1      83.175  47.856  44.155  0.00  0.00    -0.491 OA
ENDBRANCH   1  25
BRANCH  14  26
ATOM     26  O   UNL     1      82.201  50.339  43.561  0.00  0.00    -0.491 OA
ATOM     27  C   UNL     1      81.796  50.908  42.319  0.00  0.00    +0.079 C 
ENDBRANCH  14  26
TORSDOF 3
ENDMDL
MODEL 5
REMARK VINA RESULT:    -9.138      1.853      2.426
REMARK INTER + INTRA:         -10.279
REMARK INTER:                 -10.560
REMARK INTRA:                   0.281
REMARK UNBOUND:                 0.461
REMARK  Name = 
REMARK  5 active torsions:
REMARK  status: ('A' for Active; 'I' for Inactive)
REMARK    1  A    between atoms: C_1  and  O_2
REMARK    2  A    between atoms: O_2  and  C_3
REMARK    3  A    between atoms: C_13  and  C_19
REMARK    4  A    between atoms: C_16  and  O_17
REMARK    5  A    between atoms: O_17  and  C_18
REMARK                            x       y       z     vdW  Elec       q    Type
REMARK                         _______ _______ _______ _____ _____    ______ ____
ROOT
ATOM      1  C   UNL     1      88.005  52.570  42.033  0.00  0.00    +0.162 A 
ATOM      2  C   UNL     1      88.469  51.288  42.377  0.00  0.00    -0.013 A 
ATOM      3  C   UNL     1      88.129  50.721  43.612  0.00  0.00    -0.040 A 
ATOM      4  C   UNL     1      88.543  49.311  43.965  0.00  0.00    -0.021 C 
ATOM      5  C   UNL     1      87.354  48.503  44.567  0.00  0.00    +0.011 C 
ATOM      6  C   UNL     1      86.450  47.923  43.451  0.00  0.00    +0.096 C 
ATOM      7  O   UNL     1      85.238  48.648  43.514  0.00  0.00    -0.464 OA
ATOM      8  C   UNL     1      85.178  49.443  44.636  0.00  0.00    +0.312 C 
ATOM      9  O   UNL     1      84.183  50.172  44.885  0.00  0.00    -0.250 OA
ATOM     10  C   UNL     1      86.407  49.352  45.484  0.00  0.00    +0.073 C 
ATOM     11  C   UNL     1      87.021  50.736  45.844  0.00  0.00    +0.023 C 
ATOM     12  C   UNL     1      87.361  51.448  44.538  0.00  0.00    -0.032 A 
ATOM     13  C   UNL     1      86.848  52.704  44.167  0.00  0.00    -0.012 A 
ATOM     14  C   UNL     1      87.184  53.276  42.925  0.00  0.00    +0.162 A 
ENDROOT
BRANCH  11  15
ATOM     15  C   UNL     1      86.294  51.576  46.895  0.00  0.00    -0.035 A 
ATOM     16  C   UNL     1      86.466  51.390  48.299  0.00  0.00    -0.054 A 
ATOM     17  C   UNL     1      85.815  52.227  49.224  0.00  0.00    -0.016 A 
ATOM     18  C   UNL     1      85.030  53.260  48.729  0.00  0.00    +0.166 A 
ATOM     19  C   UNL     1      84.892  53.480  47.400  0.00  0.00    +0.167 A 
ATOM     20  C   UNL     1      85.517  52.678  46.452  0.00  0.00    -0.012 A 
ATOM     21  O   UNL     1      84.077  54.577  47.197  0.00  0.00    -0.453 OA
ATOM     22  C   UNL     1      83.676  55.074  48.481  0.00  0.00    +0.233 C 
ATOM     23  O   UNL     1      84.308  54.206  49.431  0.00  0.00    -0.453 OA
ENDBRANCH  11  15
BRANCH   1  25
ATOM     24  C   UNL     1      88.216  52.538  39.538  0.00  0.00    +0.079 C 
ATOM     25  O   UNL     1      88.329  53.174  40.807  0.00  0.00    -0.491 OA
ENDBRANCH   1  25
BRANCH  14  26
ATOM     26  O   UNL     1      86.714  54.541  42.537  0.00  0.00    -0.491 OA
ATOM     27  C   UNL     1      85.712  55.280  43.230  0.00  0.00    +0.079 C 
ENDBRANCH  14  26
TORSDOF 3
ENDMDL
MODEL 6
REMARK VINA RESULT:    -8.947      2.371      6.979
REMARK INTER + INTRA:         -10.055
REMARK INTER:                 -10.348
REMARK INTRA:                   0.292
REMARK UNBOUND:                 0.461
REMARK  Name = 
REMARK  5 active torsions:
REMARK  status: ('A' for Active; 'I' for Inactive)
REMARK    1  A    between atoms: C_1  and  O_2
REMARK    2  A    between atoms: O_2  and  C_3
REMARK    3  A    between atoms: C_13  and  C_19
REMARK    4  A    between atoms: C_16  and  O_17
REMARK    5  A    between atoms: O_17  and  C_18
REMARK                            x       y       z     vdW  Elec       q    Type
REMARK                         _______ _______ _______ _____ _____    ______ ____
ROOT
ATOM      1  C   UNL     1      85.793  53.519  47.305  0.00  0.00    +0.162 A 
ATOM      2  C   UNL     1      85.620  54.636  46.468  0.00  0.00    -0.013 A 
ATOM      3  C   UNL     1      86.065  54.600  45.141  0.00  0.00    -0.040 A 
ATOM      4  C   UNL     1      85.811  55.755  44.199  0.00  0.00    -0.021 C 
ATOM      5  C   UNL     1      85.275  55.258  42.823  0.00  0.00    +0.011 C 
ATOM      6  C   UNL     1      83.747  55.006  42.875  0.00  0.00    +0.096 C 
ATOM      7  O   UNL     1      83.580  53.605  42.796  0.00  0.00    -0.464 OA
ATOM      8  C   UNL     1      84.760  52.967  42.491  0.00  0.00    +0.312 C 
ATOM      9  O   UNL     1      84.832  51.716  42.374  0.00  0.00    -0.250 OA
ATOM     10  C   UNL     1      85.912  53.909  42.340  0.00  0.00    +0.073 C 
ATOM     11  C   UNL     1      87.158  53.512  43.183  0.00  0.00    +0.023 C 
ATOM     12  C   UNL     1      86.734  53.465  44.648  0.00  0.00    -0.032 A 
ATOM     13  C   UNL     1      86.851  52.329  45.468  0.00  0.00    -0.012 A 
ATOM     14  C   UNL     1      86.400  52.359  46.801  0.00  0.00    +0.162 A 
ENDROOT
BRANCH  11  15
ATOM     15  C   UNL     1      87.993  52.329  42.690  0.00  0.00    -0.035 A 
ATOM     16  C   UNL     1      88.965  52.438  41.651  0.00  0.00    -0.054 A 
ATOM     17  C   UNL     1      89.745  51.330  41.272  0.00  0.00    -0.016 A 
ATOM     18  C   UNL     1      89.567  50.140  41.965  0.00  0.00    +0.166 A 
ATOM     19  C   UNL     1      88.683  50.031  42.984  0.00  0.00    +0.167 A 
ATOM     20  C   UNL     1      87.892  51.099  43.391  0.00  0.00    -0.012 A 
ATOM     21  O   UNL     1      88.729  48.749  43.499  0.00  0.00    -0.453 OA
ATOM     22  C   UNL     1      89.702  48.007  42.751  0.00  0.00    +0.233 C 
ATOM     23  O   UNL     1      90.215  48.933  41.784  0.00  0.00    -0.453 OA
ENDBRANCH  11  15
BRANCH   1  25
ATOM     24  C   UNL     1      84.210  54.201  49.121  0.00  0.00    +0.079 C 
ATOM     25  O   UNL     1      85.364  53.518  48.642  0.00  0.00    -0.491 OA
ENDBRANCH   1  25
BRANCH  14  26
ATOM     26  O   UNL     1      86.532  51.252  47.656  0.00  0.00    -0.491 OA
ATOM     27  C   UNL     1      87.644  50.362  47.662  0.00  0.00    +0.079 C 
ENDBRANCH  14  26
TORSDOF 3
ENDMDL
MODEL 7
REMARK VINA RESULT:    -8.904      2.502      4.768
REMARK INTER + INTRA:         -10.004
REMARK INTER:                  -9.906
REMARK INTRA:                  -0.099
REMARK UNBOUND:                 0.461
REMARK  Name = 
REMARK  5 active torsions:
REMARK  status: ('A' for Active; 'I' for Inactive)
REMARK    1  A    between atoms: C_1  and  O_2
REMARK    2  A    between atoms: O_2  and  C_3
REMARK    3  A    between atoms: C_13  and  C_19
REMARK    4  A    between atoms: C_16  and  O_17
REMARK    5  A    between atoms: O_17  and  C_18
REMARK                            x       y       z     vdW  Elec       q    Type
REMARK                         _______ _______ _______ _____ _____    ______ ____
ROOT
ATOM      1  C   UNL     1      84.386  48.160  44.357  0.00  0.00    +0.162 A 
ATOM      2  C   UNL     1      85.681  48.315  44.884  0.00  0.00    -0.013 A 
ATOM      3  C   UNL     1      86.345  49.544  44.779  0.00  0.00    -0.040 A 
ATOM      4  C   UNL     1      87.699  49.758  45.415  0.00  0.00    -0.021 C 
ATOM      5  C   UNL     1      87.753  51.103  46.199  0.00  0.00    +0.011 C 
ATOM      6  C   UNL     1      87.148  50.948  47.617  0.00  0.00    +0.096 C 
ATOM      7  O   UNL     1      85.932  51.669  47.603  0.00  0.00    -0.464 OA
ATOM      8  C   UNL     1      85.798  52.420  46.458  0.00  0.00    +0.312 C 
ATOM      9  O   UNL     1      84.786  53.138  46.245  0.00  0.00    -0.250 OA
ATOM     10  C   UNL     1      86.954  52.269  45.520  0.00  0.00    +0.073 C 
ATOM     11  C   UNL     1      86.533  51.923  44.062  0.00  0.00    +0.023 C 
ATOM     12  C   UNL     1      85.742  50.619  44.102  0.00  0.00    -0.032 A 
ATOM     13  C   UNL     1      84.425  50.480  43.631  0.00  0.00    -0.012 A 
ATOM     14  C   UNL     1      83.751  49.249  43.739  0.00  0.00    +0.162 A 
ENDROOT
BRANCH  11  15
ATOM     15  C   UNL     1      85.929  53.047  43.219  0.00  0.00    -0.035 A 
ATOM     16  C   UNL     1      85.814  54.393  43.679  0.00  0.00    -0.054 A 
ATOM     17  C   UNL     1      85.300  55.401  42.843  0.00  0.00    -0.016 A 
ATOM     18  C   UNL     1      84.943  55.054  41.547  0.00  0.00    +0.166 A 
ATOM     19  C   UNL     1      85.087  53.792  41.079  0.00  0.00    +0.167 A 
ATOM     20  C   UNL     1      85.591  52.766  41.870  0.00  0.00    -0.012 A 
ATOM     21  O   UNL     1      84.674  53.739  39.761  0.00  0.00    -0.453 OA
ATOM     22  C   UNL     1      84.238  55.051  39.381  0.00  0.00    +0.233 C 
ATOM     23  O   UNL     1      84.429  55.860  40.549  0.00  0.00    -0.453 OA
ENDBRANCH  11  15
BRANCH   1  25
ATOM     24  C   UNL     1      84.208  45.686  44.017  0.00  0.00    +0.079 C 
ATOM     25  O   UNL     1      83.690  46.944  44.439  0.00  0.00    -0.491 OA
ENDBRANCH   1  25
BRANCH  14  26
ATOM     26  O   UNL     1      82.448  49.067  43.249  0.00  0.00    -0.491 OA
ATOM     27  C   UNL     1      81.263  49.448  43.943  0.00  0.00    +0.079 C 
ENDBRANCH  14  26
TORSDOF 3
ENDMDL
MODEL 8
REMARK VINA RESULT:    -8.746      3.060      6.912
REMARK INTER + INTRA:          -9.818
REMARK INTER:                  -9.993
REMARK INTRA:                   0.175
REMARK UNBOUND:                 0.461
REMARK  Name = 
REMARK  5 active torsions:
REMARK  status: ('A' for Active; 'I' for Inactive)
REMARK    1  A    between atoms: C_1  and  O_2
REMARK    2  A    between atoms: O_2  and  C_3
REMARK    3  A    between atoms: C_13  and  C_19
REMARK    4  A    between atoms: C_16  and  O_17
REMARK    5  A    between atoms: O_17  and  C_18
REMARK                            x       y       z     vdW  Elec       q    Type
REMARK                         _______ _______ _______ _____ _____    ______ ____
ROOT
ATOM      1  C   UNL     1      85.768  54.173  45.650  0.00  0.00    +0.162 A 
ATOM      2  C   UNL     1      86.280  54.054  44.346  0.00  0.00    -0.013 A 
ATOM      3  C   UNL     1      85.630  53.249  43.402  0.00  0.00    -0.040 A 
ATOM      4  C   UNL     1      86.113  53.176  41.971  0.00  0.00    -0.021 C 
ATOM      5  C   UNL     1      84.932  53.316  40.965  0.00  0.00    +0.011 C 
ATOM      6  C   UNL     1      84.568  54.804  40.732  0.00  0.00    +0.096 C 
ATOM      7  O   UNL     1      83.311  54.999  41.348  0.00  0.00    -0.464 OA
ATOM      8  C   UNL     1      82.746  53.808  41.741  0.00  0.00    +0.312 C 
ATOM      9  O   UNL     1      81.625  53.757  42.311  0.00  0.00    -0.250 OA
ATOM     10  C   UNL     1      83.607  52.624  41.437  0.00  0.00    +0.073 C 
ATOM     11  C   UNL     1      83.836  51.688  42.660  0.00  0.00    +0.023 C 
ATOM     12  C   UNL     1      84.487  52.515  43.764  0.00  0.00    -0.032 A 
ATOM     13  C   UNL     1      83.943  52.684  45.050  0.00  0.00    -0.012 A 
ATOM     14  C   UNL     1      84.590  53.495  46.000  0.00  0.00    +0.162 A 
ENDROOT
BRANCH  11  15
ATOM     15  C   UNL     1      82.670  50.796  43.091  0.00  0.00    -0.035 A 
ATOM     16  C   UNL     1      81.307  51.092  42.789  0.00  0.00    -0.054 A 
ATOM     17  C   UNL     1      80.277  50.210  43.162  0.00  0.00    -0.016 A 
ATOM     18  C   UNL     1      80.628  49.028  43.798  0.00  0.00    +0.166 A 
ATOM     19  C   UNL     1      81.920  48.709  44.052  0.00  0.00    +0.167 A 
ATOM     20  C   UNL     1      82.969  49.551  43.701  0.00  0.00    -0.012 A 
ATOM     21  O   UNL     1      81.976  47.475  44.673  0.00  0.00    -0.453 OA
ATOM     22  C   UNL     1      80.634  46.992  44.820  0.00  0.00    +0.233 C 
ATOM     23  O   UNL     1      79.805  48.012  44.247  0.00  0.00    -0.453 OA
ENDBRANCH  11  15
BRANCH   1  25
ATOM     24  C   UNL     1      86.050  56.318  46.910  0.00  0.00    +0.079 C 
ATOM     25  O   UNL     1      86.394  54.966  46.626  0.00  0.00    -0.491 OA
ENDBRANCH   1  25
BRANCH  14  26
ATOM     26  O   UNL     1      84.091  53.659  47.302  0.00  0.00    -0.491 OA
ATOM     27  C   UNL     1      84.539  52.927  48.439  0.00  0.00    +0.079 C 
ENDBRANCH  14  26
TORSDOF 3
ENDMDL
MODEL 9
REMARK VINA RESULT:    -8.573      2.228      5.717
REMARK INTER + INTRA:          -9.615
REMARK INTER:                 -10.076
REMARK INTRA:                   0.461
REMARK UNBOUND:                 0.461
REMARK  Name = 
REMARK  5 active torsions:
REMARK  status: ('A' for Active; 'I' for Inactive)
REMARK    1  A    between atoms: C_1  and  O_2
REMARK    2  A    between atoms: O_2  and  C_3
REMARK    3  A    between atoms: C_13  and  C_19
REMARK    4  A    between atoms: C_16  and  O_17
REMARK    5  A    between atoms: O_17  and  C_18
REMARK                            x       y       z     vdW  Elec       q    Type
REMARK                         _______ _______ _______ _____ _____    ______ ____
ROOT
ATOM      1  C   UNL     1      85.090  53.723  46.946  0.00  0.00    +0.162 A 
ATOM      2  C   UNL     1      85.286  52.368  46.625  0.00  0.00    -0.013 A 
ATOM      3  C   UNL     1      85.099  51.918  45.312  0.00  0.00    -0.040 A 
ATOM      4  C   UNL     1      85.389  50.485  44.928  0.00  0.00    -0.021 C 
ATOM      5  C   UNL     1      86.222  50.407  43.614  0.00  0.00    +0.011 C 
ATOM      6  C   UNL     1      87.733  50.602  43.896  0.00  0.00    +0.096 C 
ATOM      7  O   UNL     1      88.070  51.863  43.355  0.00  0.00    -0.464 OA
ATOM      8  C   UNL     1      87.047  52.383  42.596  0.00  0.00    +0.312 C 
ATOM      9  O   UNL     1      87.142  53.499  42.023  0.00  0.00    -0.250 OA
ATOM     10  C   UNL     1      85.843  51.497  42.553  0.00  0.00    +0.073 C 
ATOM     11  C   UNL     1      84.517  52.229  42.910  0.00  0.00    +0.023 C 
ATOM     12  C   UNL     1      84.667  52.808  44.313  0.00  0.00    -0.032 A 
ATOM     13  C   UNL     1      84.532  54.173  44.622  0.00  0.00    -0.012 A 
ATOM     14  C   UNL     1      84.723  54.630  45.940  0.00  0.00    +0.162 A 
ENDROOT
BRANCH  11  15
ATOM     15  C   UNL     1      83.927  53.170  41.857  0.00  0.00    -0.035 A 
ATOM     16  C   UNL     1      82.572  53.614  41.878  0.00  0.00    -0.054 A 
ATOM     17  C   UNL     1      82.095  54.523  40.917  0.00  0.00    -0.016 A 
ATOM     18  C   UNL     1      82.991  55.002  39.970  0.00  0.00    +0.166 A 
ATOM     19  C   UNL     1      84.292  54.627  39.963  0.00  0.00    +0.167 A 
ATOM     20  C   UNL     1      84.805  53.731  40.894  0.00  0.00    -0.012 A 
ATOM     21  O   UNL     1      84.950  55.268  38.931  0.00  0.00    -0.453 OA
ATOM     22  C   UNL     1      84.000  56.096  38.246  0.00  0.00    +0.233 C 
ATOM     23  O   UNL     1      82.763  55.898  38.943  0.00  0.00    -0.453 OA
ENDBRANCH  11  15
BRANCH   1  25
ATOM     24  C   UNL     1      84.235  54.270  49.235  0.00  0.00    +0.079 C 
ATOM     25  O   UNL     1      85.263  54.212  48.251  0.00  0.00    -0.491 OA
ENDBRANCH   1  25
BRANCH  14  26
ATOM     26  O   UNL     1      84.564  55.981  46.289  0.00  0.00    -0.491 OA
ATOM     27  C   UNL     1      84.573  57.063  45.362  0.00  0.00    +0.079 C 
ENDBRANCH  14  26
TORSDOF 3
ENDMDL
