MODEL 1
REMARK VINA RESULT:    -9.152      0.000      0.000
REMARK INTER + INTRA:         -10.759
REMARK INTER:                 -10.681
REMARK INTRA:                  -0.078
REMARK UNBOUND:                -0.003
REMARK  Name = 
REMARK  5 active torsions:
REMARK  status: ('A' for Active; 'I' for Inactive)
REMARK    1  A    between atoms: C_1  and  O_2
REMARK    2  A    between atoms: O_2  and  C_3
REMARK    3  A    between atoms: C_13  and  C_19
REMARK    4  A    between atoms: C_16  and  O_17
REMARK    5  A    between atoms: O_17  and  C_18
REMARK                            x       y       z     vdW  Elec       q    Type
REMARK                         _______ _______ _______ _____ _____    ______ ____
ROOT
ATOM      1  C   UNL     1      88.452  52.285  40.171  0.00  0.00    +0.162 A 
ATOM      2  C   UNL     1      89.378  51.251  40.401  0.00  0.00    -0.013 A 
ATOM      3  C   UNL     1      89.385  50.567  41.623  0.00  0.00    -0.040 A 
ATOM      4  C   UNL     1      90.311  49.396  41.858  0.00  0.00    -0.021 C 
ATOM      5  C   UNL     1      89.556  48.196  42.504  0.00  0.00    +0.011 C 
ATOM      6  C   UNL     1      88.819  47.355  41.431  0.00  0.00    +0.096 C 
ATOM      7  O   UNL     1      87.440  47.587  41.634  0.00  0.00    -0.464 OA
ATOM      8  C   UNL     1      87.205  48.276  42.802  0.00  0.00    +0.312 C 
ATOM      9  O   UNL     1      86.043  48.586  43.172  0.00  0.00    -0.250 OA
ATOM     10  C   UNL     1      88.459  48.616  43.542  0.00  0.00    +0.073 C 
ATOM     11  C   UNL     1      88.565  50.119  43.933  0.00  0.00    +0.023 C 
ATOM     12  C   UNL     1      88.498  50.940  42.649  0.00  0.00    -0.032 A 
ATOM     13  C   UNL     1      87.534  51.932  42.395  0.00  0.00    -0.012 A 
ATOM     14  C   UNL     1      87.521  52.619  41.166  0.00  0.00    +0.162 A 
ENDROOT
BRANCH  11  15
ATOM     15  C   UNL     1      87.688  50.609  45.087  0.00  0.00    -0.035 A 
ATOM     16  C   UNL     1      87.186  49.747  46.106  0.00  0.00    -0.054 A 
ATOM     17  C   UNL     1      86.429  50.257  47.176  0.00  0.00    -0.016 A 
ATOM     18  C   UNL     1      86.217  51.628  47.229  0.00  0.00    +0.166 A 
ATOM     19  C   UNL     1      86.725  52.467  46.296  0.00  0.00    +0.167 A 
ATOM     20  C   UNL     1      87.478  52.005  45.223  0.00  0.00    -0.012 A 
ATOM     21  O   UNL     1      86.377  53.768  46.607  0.00  0.00    -0.453 OA
ATOM     22  C   UNL     1      85.597  53.742  47.810  0.00  0.00    +0.233 C 
ATOM     23  O   UNL     1      85.521  52.357  48.175  0.00  0.00    -0.453 OA
ENDBRANCH  11  15
BRANCH   1  25
ATOM     24  C   UNL     1      89.508  53.744  38.432  0.00  0.00    +0.079 C 
ATOM     25  O   UNL     1      88.417  52.997  38.962  0.00  0.00    -0.491 OA
ENDBRANCH   1  25
BRANCH  14  26
ATOM     26  O   UNL     1      86.592  53.637  40.893  0.00  0.00    -0.491 OA
ATOM     27  C   UNL     1      85.178  53.466  40.906  0.00  0.00    +0.079 C 
ENDBRANCH  14  26
TORSDOF 3
ENDMDL
MODEL 2
REMARK VINA RESULT:    -9.144      2.312      3.601
REMARK INTER + INTRA:         -10.751
REMARK INTER:                 -10.635
REMARK INTRA:                  -0.116
REMARK UNBOUND:                -0.003
REMARK  Name = 
REMARK  5 active torsions:
REMARK  status: ('A' for Active; 'I' for Inactive)
REMARK    1  A    between atoms: C_1  and  O_2
REMARK    2  A    between atoms: O_2  and  C_3
REMARK    3  A    between atoms: C_13  and  C_19
REMARK    4  A    between atoms: C_16  and  O_17
REMARK    5  A    between atoms: O_17  and  C_18
REMARK                            x       y       z     vdW  Elec       q    Type
REMARK                         _______ _______ _______ _____ _____    ______ ____
ROOT
ATOM      1  C   UNL     1      87.748  51.744  41.227  0.00  0.00    +0.162 A 
ATOM      2  C   UNL     1      88.215  50.932  42.276  0.00  0.00    -0.013 A 
ATOM      3  C   UNL     1      87.826  51.190  43.596  0.00  0.00    -0.040 A 
ATOM      4  C   UNL     1      88.243  50.278  44.727  0.00  0.00    -0.021 C 
ATOM      5  C   UNL     1      87.040  49.935  45.655  0.00  0.00    +0.011 C 
ATOM      6  C   UNL     1      86.198  48.772  45.072  0.00  0.00    +0.096 C 
ATOM      7  O   UNL     1      84.974  49.346  44.660  0.00  0.00    -0.464 OA
ATOM      8  C   UNL     1      84.849  50.646  45.092  0.00  0.00    +0.312 C 
ATOM      9  O   UNL     1      83.833  51.341  44.832  0.00  0.00    -0.250 OA
ATOM     10  C   UNL     1      86.038  51.122  45.865  0.00  0.00    +0.073 C 
ATOM     11  C   UNL     1      86.614  52.475  45.354  0.00  0.00    +0.023 C 
ATOM     12  C   UNL     1      87.004  52.292  43.891  0.00  0.00    -0.032 A 
ATOM     13  C   UNL     1      86.490  53.065  42.834  0.00  0.00    -0.012 A 
ATOM     14  C   UNL     1      86.875  52.807  41.505  0.00  0.00    +0.162 A 
ENDROOT
BRANCH  11  15
ATOM     15  C   UNL     1      85.826  53.744  45.683  0.00  0.00    -0.035 A 
ATOM     16  C   UNL     1      84.726  53.766  46.592  0.00  0.00    -0.054 A 
ATOM     17  C   UNL     1      84.069  54.971  46.901  0.00  0.00    -0.016 A 
ATOM     18  C   UNL     1      84.546  56.141  46.326  0.00  0.00    +0.166 A 
ATOM     19  C   UNL     1      85.617  56.145  45.497  0.00  0.00    +0.167 A 
ATOM     20  C   UNL     1      86.296  54.978  45.165  0.00  0.00    -0.012 A 
ATOM     21  O   UNL     1      85.881  57.440  45.091  0.00  0.00    -0.453 OA
ATOM     22  C   UNL     1      84.910  58.301  45.701  0.00  0.00    +0.233 C 
ATOM     23  O   UNL     1      84.079  57.432  46.482  0.00  0.00    -0.453 OA
ENDBRANCH  11  15
BRANCH   1  25
ATOM     24  C   UNL     1      89.360  51.924  39.319  0.00  0.00    +0.079 C 
ATOM     25  O   UNL     1      88.120  51.521  39.891  0.00  0.00    -0.491 OA
ENDBRANCH   1  25
BRANCH  14  26
ATOM     26  O   UNL     1      86.406  53.580  40.430  0.00  0.00    -0.491 OA
ATOM     27  C   UNL     1      85.032  53.852  40.169  0.00  0.00    +0.079 C 
ENDBRANCH  14  26
TORSDOF 3
ENDMDL
MODEL 3
REMARK VINA RESULT:    -9.114      1.599      2.406
REMARK INTER + INTRA:         -10.715
REMARK INTER:                 -10.655
REMARK INTRA:                  -0.060
REMARK UNBOUND:                -0.003
REMARK  Name = 
REMARK  5 active torsions:
REMARK  status: ('A' for Active; 'I' for Inactive)
REMARK    1  A    between atoms: C_1  and  O_2
REMARK    2  A    between atoms: O_2  and  C_3
REMARK    3  A    between atoms: C_13  and  C_19
REMARK    4  A    between atoms: C_16  and  O_17
REMARK    5  A    between atoms: O_17  and  C_18
REMARK                            x       y       z     vdW  Elec       q    Type
REMARK                         _______ _______ _______ _____ _____    ______ ____
ROOT
ATOM      1  C   UNL     1      85.392  53.092  40.888  0.00  0.00    +0.162 A 
ATOM      2  C   UNL     1      86.764  52.836  40.714  0.00  0.00    -0.013 A 
ATOM      3  C   UNL     1      87.533  52.346  41.777  0.00  0.00    -0.040 A 
ATOM      4  C   UNL     1      88.988  51.980  41.586  0.00  0.00    -0.021 C 
ATOM      5  C   UNL     1      89.313  50.596  42.223  0.00  0.00    +0.011 C 
ATOM      6  C   UNL     1      88.931  49.437  41.268  0.00  0.00    +0.096 C 
ATOM      7  O   UNL     1      87.815  48.799  41.856  0.00  0.00    -0.464 OA
ATOM      8  C   UNL     1      87.582  49.255  43.133  0.00  0.00    +0.312 C 
ATOM      9  O   UNL     1      86.634  48.818  43.835  0.00  0.00    -0.250 OA
ATOM     10  C   UNL     1      88.548  50.313  43.561  0.00  0.00    +0.073 C 
ATOM     11  C   UNL     1      87.864  51.591  44.128  0.00  0.00    +0.023 C 
ATOM     12  C   UNL     1      86.951  52.152  43.042  0.00  0.00    -0.032 A 
ATOM     13  C   UNL     1      85.568  52.351  43.197  0.00  0.00    -0.012 A 
ATOM     14  C   UNL     1      84.790  52.839  42.130  0.00  0.00    +0.162 A 
ENDROOT
BRANCH  11  15
ATOM     15  C   UNL     1      87.258  51.502  45.530  0.00  0.00    -0.035 A 
ATOM     16  C   UNL     1      87.710  50.578  46.519  0.00  0.00    -0.054 A 
ATOM     17  C   UNL     1      87.156  50.574  47.811  0.00  0.00    -0.016 A 
ATOM     18  C   UNL     1      86.182  51.518  48.107  0.00  0.00    +0.166 A 
ATOM     19  C   UNL     1      85.773  52.433  47.195  0.00  0.00    +0.167 A 
ATOM     20  C   UNL     1      86.295  52.473  45.907  0.00  0.00    -0.012 A 
ATOM     21  O   UNL     1      84.817  53.254  47.763  0.00  0.00    -0.453 OA
ATOM     22  C   UNL     1      84.612  52.823  49.116  0.00  0.00    +0.233 C 
ATOM     23  O   UNL     1      85.504  51.715  49.295  0.00  0.00    -0.453 OA
ENDBRANCH  11  15
BRANCH   1  25
ATOM     24  C   UNL     1      84.457  54.967  39.518  0.00  0.00    +0.079 C 
ATOM     25  O   UNL     1      84.590  53.588  39.849  0.00  0.00    -0.491 OA
ENDBRANCH   1  25
BRANCH  14  26
ATOM     26  O   UNL     1      83.413  53.079  42.262  0.00  0.00    -0.491 OA
ATOM     27  C   UNL     1      82.401  52.087  42.112  0.00  0.00    +0.079 C 
ENDBRANCH  14  26
TORSDOF 3
ENDMDL
MODEL 4
REMARK VINA RESULT:    -8.971      3.582      5.753
REMARK INTER + INTRA:         -10.547
REMARK INTER:                 -10.769
REMARK INTRA:                   0.222
REMARK UNBOUND:                -0.003
REMARK  Name = 
REMARK  5 active torsions:
REMARK  status: ('A' for Active; 'I' for Inactive)
REMARK    1  A    between atoms: C_1  and  O_2
REMARK    2  A    between atoms: O_2  and  C_3
REMARK    3  A    between atoms: C_13  and  C_19
REMARK    4  A    between atoms: C_16  and  O_17
REMARK    5  A    between atoms: O_17  and  C_18
REMARK                            x       y       z     vdW  Elec       q    Type
REMARK                         _______ _______ _______ _____ _____    ______ ____
ROOT
ATOM      1  C   UNL     1      83.994  49.438  43.756  0.00  0.00    +0.162 A 
ATOM      2  C   UNL     1      85.292  49.215  44.249  0.00  0.00    -0.013 A 
ATOM      3  C   UNL     1      86.114  50.296  44.589  0.00  0.00    -0.040 A 
ATOM      4  C   UNL     1      87.478  50.079  45.203  0.00  0.00    -0.021 C 
ATOM      5  C   UNL     1      87.701  51.007  46.435  0.00  0.00    +0.011 C 
ATOM      6  C   UNL     1      87.066  50.403  47.713  0.00  0.00    +0.096 C 
ATOM      7  O   UNL     1      85.957  51.223  48.021  0.00  0.00    -0.464 OA
ATOM      8  C   UNL     1      85.936  52.363  47.251  0.00  0.00    +0.312 C 
ATOM      9  O   UNL     1      85.031  53.230  47.367  0.00  0.00    -0.250 OA
ATOM     10  C   UNL     1      87.072  52.434  46.281  0.00  0.00    +0.073 C 
ATOM     11  C   UNL     1      86.625  52.724  44.818  0.00  0.00    +0.023 C 
ATOM     12  C   UNL     1      85.667  51.615  44.394  0.00  0.00    -0.032 A 
ATOM     13  C   UNL     1      84.348  51.834  43.959  0.00  0.00    -0.012 A 
ATOM     14  C   UNL     1      83.516  50.750  43.621  0.00  0.00    +0.162 A 
ENDROOT
BRANCH  11  15
ATOM     15  C   UNL     1      86.184  54.152  44.488  0.00  0.00    -0.035 A 
ATOM     16  C   UNL     1      85.633  54.527  43.226  0.00  0.00    -0.054 A 
ATOM     17  C   UNL     1      85.193  55.842  42.992  0.00  0.00    -0.016 A 
ATOM     18  C   UNL     1      85.276  56.753  44.037  0.00  0.00    +0.166 A 
ATOM     19  C   UNL     1      85.753  56.403  45.255  0.00  0.00    +0.167 A 
ATOM     20  C   UNL     1      86.198  55.115  45.529  0.00  0.00    -0.012 A 
ATOM     21  O   UNL     1      85.702  57.495  46.101  0.00  0.00    -0.453 OA
ATOM     22  C   UNL     1      85.163  58.601  45.364  0.00  0.00    +0.233 C 
ATOM     23  O   UNL     1      84.902  58.084  44.052  0.00  0.00    -0.453 OA
ENDBRANCH  11  15
BRANCH   1  25
ATOM     24  C   UNL     1      83.559  47.029  43.228  0.00  0.00    +0.079 C 
ATOM     25  O   UNL     1      83.142  48.380  43.400  0.00  0.00    -0.491 OA
ENDBRANCH   1  25
BRANCH  14  26
ATOM     26  O   UNL     1      82.205  50.936  43.152  0.00  0.00    -0.491 OA
ATOM     27  C   UNL     1      81.870  51.383  41.842  0.00  0.00    +0.079 C 
ENDBRANCH  14  26
TORSDOF 3
ENDMDL
MODEL 5
REMARK VINA RESULT:    -8.932      2.948      5.687
REMARK INTER + INTRA:         -10.501
REMARK INTER:                 -10.531
REMARK INTRA:                   0.030
REMARK UNBOUND:                -0.003
REMARK  Name = 
REMARK  5 active torsions:
REMARK  status: ('A' for Active; 'I' for Inactive)
REMARK    1  A    between atoms: C_1  and  O_2
REMARK    2  A    between atoms: O_2  and  C_3
REMARK    3  A    between atoms: C_13  and  C_19
REMARK    4  A    between atoms: C_16  and  O_17
REMARK    5  A    between atoms: O_17  and  C_18
REMARK                            x       y       z     vdW  Elec       q    Type
REMARK                         _______ _______ _______ _____ _____    ______ ____
ROOT
ATOM      1  C   UNL     1      87.397  45.184  42.486  0.00  0.00    +0.162 A 
ATOM      2  C   UNL     1      88.646  45.621  42.009  0.00  0.00    -0.013 A 
ATOM      3  C   UNL     1      88.876  46.981  41.771  0.00  0.00    -0.040 A 
ATOM      4  C   UNL     1      90.236  47.481  41.342  0.00  0.00    -0.021 C 
ATOM      5  C   UNL     1      90.667  48.732  42.165  0.00  0.00    +0.011 C 
ATOM      6  C   UNL     1      91.283  48.321  43.526  0.00  0.00    +0.096 C 
ATOM      7  O   UNL     1      90.346  48.710  44.511  0.00  0.00    -0.464 OA
ATOM      8  C   UNL     1      89.343  49.489  43.981  0.00  0.00    +0.312 C 
ATOM      9  O   UNL     1      88.405  49.941  44.688  0.00  0.00    -0.250 OA
ATOM     10  C   UNL     1      89.488  49.706  42.509  0.00  0.00    +0.073 C 
ATOM     11  C   UNL     1      88.199  49.378  41.699  0.00  0.00    +0.023 C 
ATOM     12  C   UNL     1      87.844  47.918  41.961  0.00  0.00    -0.032 A 
ATOM     13  C   UNL     1      86.617  47.487  42.496  0.00  0.00    -0.012 A 
ATOM     14  C   UNL     1      86.383  46.121  42.741  0.00  0.00    +0.162 A 
ENDROOT
BRANCH  11  15
ATOM     15  C   UNL     1      87.041  50.375  41.786  0.00  0.00    -0.035 A 
ATOM     16  C   UNL     1      85.989  50.266  42.743  0.00  0.00    -0.054 A 
ATOM     17  C   UNL     1      84.976  51.240  42.816  0.00  0.00    -0.016 A 
ATOM     18  C   UNL     1      85.053  52.327  41.956  0.00  0.00    +0.166 A 
ATOM     19  C   UNL     1      86.070  52.470  41.073  0.00  0.00    +0.167 A 
ATOM     20  C   UNL     1      87.091  51.532  40.967  0.00  0.00    -0.012 A 
ATOM     21  O   UNL     1      85.903  53.645  40.364  0.00  0.00    -0.453 OA
ATOM     22  C   UNL     1      84.703  54.276  40.830  0.00  0.00    +0.233 C 
ATOM     23  O   UNL     1      84.193  53.403  41.847  0.00  0.00    -0.453 OA
ENDBRANCH  11  15
BRANCH   1  25
ATOM     24  C   UNL     1      87.624  43.095  43.847  0.00  0.00    +0.079 C 
ATOM     25  O   UNL     1      87.126  43.829  42.732  0.00  0.00    -0.491 OA
ENDBRANCH   1  25
BRANCH  14  26
ATOM     26  O   UNL     1      85.158  45.654  43.244  0.00  0.00    -0.491 OA
ATOM     27  C   UNL     1      83.883  46.176  42.883  0.00  0.00    +0.079 C 
ENDBRANCH  14  26
TORSDOF 3
ENDMDL
MODEL 6
REMARK VINA RESULT:    -8.805      2.756      4.444
REMARK INTER + INTRA:         -10.352
REMARK INTER:                 -10.470
REMARK INTRA:                   0.118
REMARK UNBOUND:                -0.003
REMARK  Name = 
REMARK  5 active torsions:
REMARK  status: ('A' for Active; 'I' for Inactive)
REMARK    1  A    between atoms: C_1  and  O_2
REMARK    2  A    between atoms: O_2  and  C_3
REMARK    3  A    between atoms: C_13  and  C_19
REMARK    4  A    between atoms: C_16  and  O_17
REMARK    5  A    between atoms: O_17  and  C_18
REMARK                            x       y       z     vdW  Elec       q    Type
REMARK                         _______ _______ _______ _____ _____    ______ ____
ROOT
ATOM      1  C   UNL     1      89.232  50.598  42.100  0.00  0.00    +0.162 A 
ATOM      2  C   UNL     1      88.717  49.992  43.260  0.00  0.00    -0.013 A 
ATOM      3  C   UNL     1      87.783  50.667  44.056  0.00  0.00    -0.040 A 
ATOM      4  C   UNL     1      87.152  50.001  45.257  0.00  0.00    -0.021 C 
ATOM      5  C   UNL     1      85.609  50.217  45.281  0.00  0.00    +0.011 C 
ATOM      6  C   UNL     1      84.886  49.190  44.373  0.00  0.00    +0.096 C 
ATOM      7  O   UNL     1      84.393  49.924  43.271  0.00  0.00    -0.464 OA
ATOM      8  C   UNL     1      84.517  51.281  43.465  0.00  0.00    +0.312 C 
ATOM      9  O   UNL     1      84.139  52.116  42.603  0.00  0.00    -0.250 OA
ATOM     10  C   UNL     1      85.155  51.628  44.772  0.00  0.00    +0.073 C 
ATOM     11  C   UNL     1      86.349  52.619  44.642  0.00  0.00    +0.023 C 
ATOM     12  C   UNL     1      87.388  51.976  43.728  0.00  0.00    -0.032 A 
ATOM     13  C   UNL     1      87.857  52.556  42.536  0.00  0.00    -0.012 A 
ATOM     14  C   UNL     1      88.793  51.878  41.731  0.00  0.00    +0.162 A 
ENDROOT
BRANCH  11  15
ATOM     15  C   UNL     1      86.018  54.084  44.353  0.00  0.00    -0.035 A 
ATOM     16  C   UNL     1      85.561  54.546  43.083  0.00  0.00    -0.054 A 
ATOM     17  C   UNL     1      85.219  55.896  42.885  0.00  0.00    -0.016 A 
ATOM     18  C   UNL     1      85.304  56.756  43.971  0.00  0.00    +0.166 A 
ATOM     19  C   UNL     1      85.692  56.326  45.196  0.00  0.00    +0.167 A 
ATOM     20  C   UNL     1      86.038  55.001  45.435  0.00  0.00    -0.012 A 
ATOM     21  O   UNL     1      85.666  57.384  46.085  0.00  0.00    -0.453 OA
ATOM     22  C   UNL     1      85.239  58.552  45.371  0.00  0.00    +0.233 C 
ATOM     23  O   UNL     1      85.016  58.107  44.026  0.00  0.00    -0.453 OA
ENDBRANCH  11  15
BRANCH   1  25
ATOM     24  C   UNL     1      90.795  48.711  41.586  0.00  0.00    +0.079 C 
ATOM     25  O   UNL     1      90.172  49.955  41.280  0.00  0.00    -0.491 OA
ENDBRANCH   1  25
BRANCH  14  26
ATOM     26  O   UNL     1      89.305  52.442  40.551  0.00  0.00    -0.491 OA
ATOM     27  C   UNL     1      88.609  52.491  39.309  0.00  0.00    +0.079 C 
ENDBRANCH  14  26
TORSDOF 3
ENDMDL
MODEL 7
REMARK VINA RESULT:    -8.443      2.710      6.276
REMARK INTER + INTRA:          -9.927
REMARK INTER:                  -9.856
REMARK INTRA:                  -0.071
REMARK UNBOUND:                -0.003
REMARK  Name = 
REMARK  5 active torsions:
REMARK  status: ('A' for Active; 'I' for Inactive)
REMARK    1  A    between atoms: C_1  and  O_2
REMARK    2  A    between atoms: O_2  and  C_3
REMARK    3  A    between atoms: C_13  and  C_19
REMARK    4  A    between atoms: C_16  and  O_17
REMARK    5  A    between atoms: O_17  and  C_18
REMARK                            x       y       z     vdW  Elec       q    Type
REMARK                         _______ _______ _______ _____ _____    ______ ____
ROOT
ATOM      1  C   UNL     1      84.717  48.042  43.990  0.00  0.00    +0.162 A 
ATOM      2  C   UNL     1      85.973  48.280  44.577  0.00  0.00    -0.013 A 
ATOM      3  C   UNL     1      86.544  49.558  44.533  0.00  0.00    -0.040 A 
ATOM      4  C   UNL     1      87.850  49.856  45.233  0.00  0.00    -0.021 C 
ATOM      5  C   UNL     1      87.766  51.178  46.053  0.00  0.00    +0.011 C 
ATOM      6  C   UNL     1      87.117  50.936  47.439  0.00  0.00    +0.096 C 
ATOM      7  O   UNL     1      85.851  51.562  47.391  0.00  0.00    -0.464 OA
ATOM      8  C   UNL     1      85.707  52.334  46.261  0.00  0.00    +0.312 C 
ATOM      9  O   UNL     1      84.652  52.978  46.023  0.00  0.00    -0.250 OA
ATOM     10  C   UNL     1      86.908  52.298  45.372  0.00  0.00    +0.073 C 
ATOM     11  C   UNL     1      86.577  51.965  43.888  0.00  0.00    +0.023 C 
ATOM     12  C   UNL     1      85.888  50.604  43.859  0.00  0.00    -0.032 A 
ATOM     13  C   UNL     1      84.606  50.379  43.327  0.00  0.00    -0.012 A 
ATOM     14  C   UNL     1      84.027  49.096  43.373  0.00  0.00    +0.162 A 
ENDROOT
BRANCH  11  15
ATOM     15  C   UNL     1      85.923  53.064  43.048  0.00  0.00    -0.035 A 
ATOM     16  C   UNL     1      85.585  54.348  43.571  0.00  0.00    -0.054 A 
ATOM     17  C   UNL     1      85.034  55.342  42.742  0.00  0.00    -0.016 A 
ATOM     18  C   UNL     1      84.864  55.049  41.396  0.00  0.00    +0.166 A 
ATOM     19  C   UNL     1      85.222  53.852  40.874  0.00  0.00    +0.167 A 
ATOM     20  C   UNL     1      85.769  52.842  41.656  0.00  0.00    -0.012 A 
ATOM     21  O   UNL     1      84.960  53.845  39.516  0.00  0.00    -0.453 OA
ATOM     22  C   UNL     1      84.399  55.117  39.167  0.00  0.00    +0.233 C 
ATOM     23  O   UNL     1      84.357  55.857  40.395  0.00  0.00    -0.453 OA
ENDBRANCH  11  15
BRANCH   1  25
ATOM     24  C   UNL     1      84.793  45.563  44.328  0.00  0.00    +0.079 C 
ATOM     25  O   UNL     1      84.115  46.774  44.010  0.00  0.00    -0.491 OA
ENDBRANCH   1  25
BRANCH  14  26
ATOM     26  O   UNL     1      82.762  48.831  42.823  0.00  0.00    -0.491 OA
ATOM     27  C   UNL     1      81.524  49.164  43.443  0.00  0.00    +0.079 C 
ENDBRANCH  14  26
TORSDOF 3
ENDMDL
MODEL 8
REMARK VINA RESULT:    -8.304      2.175      5.846
REMARK INTER + INTRA:          -9.764
REMARK INTER:                  -9.761
REMARK INTRA:                  -0.003
REMARK UNBOUND:                -0.003
REMARK  Name = 
REMARK  5 active torsions:
REMARK  status: ('A' for Active; 'I' for Inactive)
REMARK    1  A    between atoms: C_1  and  O_2
REMARK    2  A    between atoms: O_2  and  C_3
REMARK    3  A    between atoms: C_13  and  C_19
REMARK    4  A    between atoms: C_16  and  O_17
REMARK    5  A    between atoms: O_17  and  C_18
REMARK                            x       y       z     vdW  Elec       q    Type
REMARK                         _______ _______ _______ _____ _____    ______ ____
ROOT
ATOM      1  C   UNL     1      87.501  50.963  45.977  0.00  0.00    +0.162 A 
ATOM      2  C   UNL     1      87.923  50.014  45.029  0.00  0.00    -0.013 A 
ATOM      3  C   UNL     1      87.527  50.128  43.690  0.00  0.00    -0.040 A 
ATOM      4  C   UNL     1      88.039  49.170  42.639  0.00  0.00    -0.021 C 
ATOM      5  C   UNL     1      88.515  49.928  41.364  0.00  0.00    +0.011 C 
ATOM      6  C   UNL     1      89.961  50.460  41.536  0.00  0.00    +0.096 C 
ATOM      7  O   UNL     1      89.850  51.866  41.629  0.00  0.00    -0.464 OA
ATOM      8  C   UNL     1      88.578  52.298  41.328  0.00  0.00    +0.312 C 
ATOM      9  O   UNL     1      88.265  53.516  41.352  0.00  0.00    -0.250 OA
ATOM     10  C   UNL     1      87.642  51.178  41.001  0.00  0.00    +0.073 C 
ATOM     11  C   UNL     1      86.312  51.220  41.809  0.00  0.00    +0.023 C 
ATOM     12  C   UNL     1      86.666  51.166  43.292  0.00  0.00    -0.032 A 
ATOM     13  C   UNL     1      86.296  52.147  44.229  0.00  0.00    -0.012 A 
ATOM     14  C   UNL     1      86.695  52.039  45.574  0.00  0.00    +0.162 A 
ENDROOT
BRANCH  11  15
ATOM     15  C   UNL     1      85.278  52.273  41.406  0.00  0.00    -0.035 A 
ATOM     16  C   UNL     1      85.574  53.366  40.538  0.00  0.00    -0.054 A 
ATOM     17  C   UNL     1      84.572  54.276  40.155  0.00  0.00    -0.016 A 
ATOM     18  C   UNL     1      83.281  54.058  40.617  0.00  0.00    +0.166 A 
ATOM     19  C   UNL     1      82.973  53.000  41.405  0.00  0.00    +0.167 A 
ATOM     20  C   UNL     1      83.931  52.077  41.806  0.00  0.00    -0.012 A 
ATOM     21  O   UNL     1      81.622  53.021  41.696  0.00  0.00    -0.453 OA
ATOM     22  C   UNL     1      81.048  54.167  41.052  0.00  0.00    +0.233 C 
ATOM     23  O   UNL     1      82.141  54.800  40.373  0.00  0.00    -0.453 OA
ENDBRANCH  11  15
BRANCH   1  25
ATOM     24  C   UNL     1      88.776  49.916  47.860  0.00  0.00    +0.079 C 
ATOM     25  O   UNL     1      87.873  50.880  47.329  0.00  0.00    -0.491 OA
ENDBRANCH   1  25
BRANCH  14  26
ATOM     26  O   UNL     1      86.317  52.984  46.541  0.00  0.00    -0.491 OA
ATOM     27  C   UNL     1      85.021  53.069  47.126  0.00  0.00    +0.079 C 
ENDBRANCH  14  26
TORSDOF 3
ENDMDL
MODEL 9
REMARK VINA RESULT:    -8.282      2.738      6.359
REMARK INTER + INTRA:          -9.737
REMARK INTER:                  -9.753
REMARK INTRA:                   0.016
REMARK UNBOUND:                -0.003
REMARK  Name = 
REMARK  5 active torsions:
REMARK  status: ('A' for Active; 'I' for Inactive)
REMARK    1  A    between atoms: C_1  and  O_2
REMARK    2  A    between atoms: O_2  and  C_3
REMARK    3  A    between atoms: C_13  and  C_19
REMARK    4  A    between atoms: C_16  and  O_17
REMARK    5  A    between atoms: O_17  and  C_18
REMARK                            x       y       z     vdW  Elec       q    Type
REMARK                         _______ _______ _______ _____ _____    ______ ____
ROOT
ATOM      1  C   UNL     1      82.767  50.476  43.215  0.00  0.00    +0.162 A 
ATOM      2  C   UNL     1      83.620  49.845  44.138  0.00  0.00    -0.013 A 
ATOM      3  C   UNL     1      85.008  50.004  44.042  0.00  0.00    -0.040 A 
ATOM      4  C   UNL     1      85.937  49.407  45.075  0.00  0.00    -0.021 C 
ATOM      5  C   UNL     1      87.007  50.439  45.540  0.00  0.00    +0.011 C 
ATOM      6  C   UNL     1      86.442  51.376  46.637  0.00  0.00    +0.096 C 
ATOM      7  O   UNL     1      86.312  52.648  46.035  0.00  0.00    -0.464 OA
ATOM      8  C   UNL     1      86.910  52.688  44.796  0.00  0.00    +0.312 C 
ATOM      9  O   UNL     1      86.909  53.729  44.088  0.00  0.00    -0.250 OA
ATOM     10  C   UNL     1      87.521  51.383  44.398  0.00  0.00    +0.073 C 
ATOM     11  C   UNL     1      87.083  50.892  42.988  0.00  0.00    +0.023 C 
ATOM     12  C   UNL     1      85.564  50.756  42.993  0.00  0.00    -0.032 A 
ATOM     13  C   UNL     1      84.708  51.436  42.108  0.00  0.00    -0.012 A 
ATOM     14  C   UNL     1      83.312  51.282  42.203  0.00  0.00    +0.162 A 
ENDROOT
BRANCH  11  15
ATOM     15  C   UNL     1      87.688  51.604  41.776  0.00  0.00    -0.035 A 
ATOM     16  C   UNL     1      86.916  52.024  40.652  0.00  0.00    -0.054 A 
ATOM     17  C   UNL     1      87.512  52.724  39.588  0.00  0.00    -0.016 A 
ATOM     18  C   UNL     1      88.864  53.026  39.681  0.00  0.00    +0.166 A 
ATOM     19  C   UNL     1      89.602  52.675  40.761  0.00  0.00    +0.167 A 
ATOM     20  C   UNL     1      89.054  51.983  41.834  0.00  0.00    -0.012 A 
ATOM     21  O   UNL     1      90.902  53.116  40.594  0.00  0.00    -0.453 OA
ATOM     22  C   UNL     1      90.983  53.783  39.327  0.00  0.00    +0.233 C 
ATOM     23  O   UNL     1      89.661  53.704  38.778  0.00  0.00    -0.453 OA
ENDBRANCH  11  15
BRANCH   1  25
ATOM     24  C   UNL     1      80.686  49.091  43.351  0.00  0.00    +0.079 C 
ATOM     25  O   UNL     1      81.371  50.337  43.275  0.00  0.00    -0.491 OA
ENDBRANCH   1  25
BRANCH  14  26
ATOM     26  O   UNL     1      82.430  51.921  41.316  0.00  0.00    -0.491 OA
ATOM     27  C   UNL     1      82.133  53.314  41.334  0.00  0.00    +0.079 C 
ENDBRANCH  14  26
TORSDOF 3
ENDMDL
