MODEL 1
REMARK VINA RESULT:    -8.098      0.000      0.000
REMARK INTER + INTRA:         -10.889
REMARK INTER:                 -10.437
REMARK INTRA:                  -0.452
REMARK UNBOUND:                -0.423
REMARK  Name = 
REMARK  9 active torsions:
REMARK  status: ('A' for Active; 'I' for Inactive)
REMARK    1  A    between atoms: C_1  and  O_2
REMARK    2  A    between atoms: O_2  and  C_3
REMARK    3  A    between atoms: C_6  and  C_9
REMARK    4  A    between atoms: C_17  and  O_24
REMARK    5  A    between atoms: C_18  and  O_22
REMARK    6  A    between atoms: C_19  and  O_20
REMARK    7  A    between atoms: O_20  and  C_21
REMARK    8  A    between atoms: O_22  and  C_23
REMARK    9  A    between atoms: O_24  and  C_25
REMARK                            x       y       z     vdW  Elec       q    Type
REMARK                         _______ _______ _______ _____ _____    ______ ____
ROOT
ATOM      1  C   UNL     1      81.599  48.516  44.243  0.00  0.00    +0.139 A 
ATOM      2  C   UNL     1      81.716  47.126  44.101  0.00  0.00    +0.029 A 
ATOM      3  C   UNL     1      82.970  46.563  43.866  0.00  0.00    +0.197 A 
ATOM      4  O   UNL     1      83.055  45.312  43.740  0.00  0.00    -0.287 OA
ATOM      5  C   UNL     1      84.109  47.398  43.769  0.00  0.00    +0.109 A 
ATOM      6  C   UNL     1      83.903  48.786  43.913  0.00  0.00    +0.146 A 
ATOM      7  O   UNL     1      82.686  49.275  44.137  0.00  0.00    -0.454 OA
ATOM      8  C   UNL     1      84.971  49.668  43.824  0.00  0.00    +0.027 A 
ATOM      9  C   UNL     1      86.276  49.206  43.592  0.00  0.00    +0.169 A 
ATOM     10  C   UNL     1      86.511  47.812  43.445  0.00  0.00    +0.204 A 
ATOM     11  C   UNL     1      85.417  46.902  43.535  0.00  0.00    +0.180 A 
ENDROOT
BRANCH   1  15
ATOM     12  C   UNL     1      77.822  50.474  44.928  0.00  0.00    +0.120 A 
ATOM     13  C   UNL     1      78.341  49.593  45.892  0.00  0.00    -0.019 A 
ATOM     14  C   UNL     1      79.566  48.952  45.679  0.00  0.00    -0.048 A 
ATOM     15  C   UNL     1      80.291  49.174  44.493  0.00  0.00    +0.018 A 
ATOM     16  C   UNL     1      79.772  50.066  43.539  0.00  0.00    -0.048 A 
ATOM     17  C   UNL     1      78.548  50.704  43.754  0.00  0.00    -0.019 A 
BRANCH  12  19
ATOM     18  C   UNL     1      75.946  51.892  44.077  0.00  0.00    +0.079 C 
ATOM     19  O   UNL     1      76.598  51.139  45.095  0.00  0.00    -0.495 OA
ENDBRANCH  12  19
ENDBRANCH   1  15
BRANCH  11  20
ATOM     20  O   UNL     1      85.572  45.505  43.400  0.00  0.00    -0.491 OA
ATOM     21  C   UNL     1      86.189  44.606  44.316  0.00  0.00    +0.079 C 
ENDBRANCH  11  20
BRANCH  10  22
ATOM     22  O   UNL     1      87.797  47.288  43.213  0.00  0.00    -0.488 OA
ATOM     23  C   UNL     1      88.428  47.063  41.957  0.00  0.00    +0.079 C 
ENDBRANCH  10  22
BRANCH   9  24
ATOM     24  O   UNL     1      87.345  50.112  43.504  0.00  0.00    -0.491 OA
ATOM     25  C   UNL     1      87.570  51.207  44.388  0.00  0.00    +0.079 C 
ENDBRANCH   9  24
TORSDOF 5
ENDMDL
MODEL 2
REMARK VINA RESULT:    -8.030      1.720      2.559
REMARK INTER + INTRA:         -10.801
REMARK INTER:                 -10.361
REMARK INTRA:                  -0.441
REMARK UNBOUND:                -0.423
REMARK  Name = 
REMARK  9 active torsions:
REMARK  status: ('A' for Active; 'I' for Inactive)
REMARK    1  A    between atoms: C_1  and  O_2
REMARK    2  A    between atoms: O_2  and  C_3
REMARK    3  A    between atoms: C_6  and  C_9
REMARK    4  A    between atoms: C_17  and  O_24
REMARK    5  A    between atoms: C_18  and  O_22
REMARK    6  A    between atoms: C_19  and  O_20
REMARK    7  A    between atoms: O_20  and  C_21
REMARK    8  A    between atoms: O_22  and  C_23
REMARK    9  A    between atoms: O_24  and  C_25
REMARK                            x       y       z     vdW  Elec       q    Type
REMARK                         _______ _______ _______ _____ _____    ______ ____
ROOT
ATOM      1  C   UNL     1      83.427  46.903  43.735  0.00  0.00    +0.139 A 
ATOM      2  C   UNL     1      83.795  45.600  43.373  0.00  0.00    +0.029 A 
ATOM      3  C   UNL     1      85.122  45.330  43.037  0.00  0.00    +0.197 A 
ATOM      4  O   UNL     1      85.434  44.153  42.713  0.00  0.00    -0.287 OA
ATOM      5  C   UNL     1      86.080  46.372  43.062  0.00  0.00    +0.109 A 
ATOM      6  C   UNL     1      85.624  47.656  43.427  0.00  0.00    +0.146 A 
ATOM      7  O   UNL     1      84.348  47.862  43.739  0.00  0.00    -0.454 OA
ATOM      8  C   UNL     1      86.504  48.728  43.468  0.00  0.00    +0.027 A 
ATOM      9  C   UNL     1      87.861  48.565  43.151  0.00  0.00    +0.169 A 
ATOM     10  C   UNL     1      88.346  47.282  42.782  0.00  0.00    +0.204 A 
ATOM     11  C   UNL     1      87.447  46.177  42.738  0.00  0.00    +0.180 A 
ENDROOT
BRANCH   1  15
ATOM     12  C   UNL     1      79.392  47.980  44.800  0.00  0.00    +0.120 A 
ATOM     13  C   UNL     1      79.880  46.697  45.103  0.00  0.00    -0.019 A 
ATOM     14  C   UNL     1      81.187  46.338  44.762  0.00  0.00    -0.048 A 
ATOM     15  C   UNL     1      82.030  47.252  44.101  0.00  0.00    +0.018 A 
ATOM     16  C   UNL     1      81.540  48.537  43.813  0.00  0.00    -0.048 A 
ATOM     17  C   UNL     1      80.233  48.893  44.154  0.00  0.00    -0.019 A 
BRANCH  12  19
ATOM     18  C   UNL     1      77.730  49.710  45.502  0.00  0.00    +0.079 C 
ATOM     19  O   UNL     1      78.089  48.387  45.120  0.00  0.00    -0.495 OA
ENDBRANCH  12  19
ENDBRANCH   1  15
BRANCH  11  20
ATOM     20  O   UNL     1      87.855  44.873  42.380  0.00  0.00    -0.491 OA
ATOM     21  C   UNL     1      88.560  43.932  43.183  0.00  0.00    +0.079 C 
ENDBRANCH  11  20
BRANCH  10  22
ATOM     22  O   UNL     1      89.697  47.056  42.455  0.00  0.00    -0.488 OA
ATOM     23  C   UNL     1      90.808  47.001  43.342  0.00  0.00    +0.079 C 
ENDBRANCH  10  22
BRANCH   9  24
ATOM     24  O   UNL     1      88.738  49.662  43.197  0.00  0.00    -0.491 OA
ATOM     25  C   UNL     1      89.042  50.518  42.099  0.00  0.00    +0.079 C 
ENDBRANCH   9  24
TORSDOF 5
ENDMDL
MODEL 3
REMARK VINA RESULT:    -7.415      4.558      6.504
REMARK INTER + INTRA:         -10.005
REMARK INTER:                  -9.571
REMARK INTRA:                  -0.434
REMARK UNBOUND:                -0.423
REMARK  Name = 
REMARK  9 active torsions:
REMARK  status: ('A' for Active; 'I' for Inactive)
REMARK    1  A    between atoms: C_1  and  O_2
REMARK    2  A    between atoms: O_2  and  C_3
REMARK    3  A    between atoms: C_6  and  C_9
REMARK    4  A    between atoms: C_17  and  O_24
REMARK    5  A    between atoms: C_18  and  O_22
REMARK    6  A    between atoms: C_19  and  O_20
REMARK    7  A    between atoms: O_20  and  C_21
REMARK    8  A    between atoms: O_22  and  C_23
REMARK    9  A    between atoms: O_24  and  C_25
REMARK                            x       y       z     vdW  Elec       q    Type
REMARK                         _______ _______ _______ _____ _____    ______ ____
ROOT
ATOM      1  C   UNL     1      86.875  51.681  44.486  0.00  0.00    +0.139 A 
ATOM      2  C   UNL     1      87.878  51.576  43.513  0.00  0.00    +0.029 A 
ATOM      3  C   UNL     1      88.131  50.338  42.920  0.00  0.00    +0.197 A 
ATOM      4  O   UNL     1      89.038  50.262  42.048  0.00  0.00    -0.287 OA
ATOM      5  C   UNL     1      87.378  49.205  43.308  0.00  0.00    +0.109 A 
ATOM      6  C   UNL     1      86.395  49.396  44.301  0.00  0.00    +0.146 A 
ATOM      7  O   UNL     1      86.191  50.596  44.836  0.00  0.00    -0.454 OA
ATOM      8  C   UNL     1      85.621  48.329  44.738  0.00  0.00    +0.027 A 
ATOM      9  C   UNL     1      85.793  47.043  44.205  0.00  0.00    +0.169 A 
ATOM     10  C   UNL     1      86.775  46.824  43.202  0.00  0.00    +0.204 A 
ATOM     11  C   UNL     1      87.573  47.915  42.751  0.00  0.00    +0.180 A 
ENDROOT
BRANCH   1  15
ATOM     12  C   UNL     1      85.990  55.455  46.370  0.00  0.00    +0.120 A 
ATOM     13  C   UNL     1      86.136  54.296  47.153  0.00  0.00    -0.019 A 
ATOM     14  C   UNL     1      86.422  53.067  46.551  0.00  0.00    -0.048 A 
ATOM     15  C   UNL     1      86.560  52.971  45.153  0.00  0.00    +0.018 A 
ATOM     16  C   UNL     1      86.426  54.136  44.379  0.00  0.00    -0.048 A 
ATOM     17  C   UNL     1      86.139  55.362  44.982  0.00  0.00    -0.019 A 
BRANCH  12  19
ATOM     18  C   UNL     1      85.097  57.785  46.216  0.00  0.00    +0.079 C 
ATOM     19  O   UNL     1      85.701  56.709  46.927  0.00  0.00    -0.495 OA
ENDBRANCH  12  19
ENDBRANCH   1  15
BRANCH  11  20
ATOM     20  O   UNL     1      88.568  47.776  41.758  0.00  0.00    -0.491 OA
ATOM     21  C   UNL     1      89.861  47.196  41.898  0.00  0.00    +0.079 C 
ENDBRANCH  11  20
BRANCH  10  22
ATOM     22  O   UNL     1      86.993  45.557  42.629  0.00  0.00    -0.488 OA
ATOM     23  C   UNL     1      87.757  44.481  43.165  0.00  0.00    +0.079 C 
ENDBRANCH  10  22
BRANCH   9  24
ATOM     24  O   UNL     1      85.001  45.975  44.659  0.00  0.00    -0.491 OA
ATOM     25  C   UNL     1      83.773  45.553  44.072  0.00  0.00    +0.079 C 
ENDBRANCH   9  24
TORSDOF 5
ENDMDL
MODEL 4
REMARK VINA RESULT:    -7.330      5.519      9.193
REMARK INTER + INTRA:          -9.896
REMARK INTER:                  -9.444
REMARK INTRA:                  -0.452
REMARK UNBOUND:                -0.423
REMARK  Name = 
REMARK  9 active torsions:
REMARK  status: ('A' for Active; 'I' for Inactive)
REMARK    1  A    between atoms: C_1  and  O_2
REMARK    2  A    between atoms: O_2  and  C_3
REMARK    3  A    between atoms: C_6  and  C_9
REMARK    4  A    between atoms: C_17  and  O_24
REMARK    5  A    between atoms: C_18  and  O_22
REMARK    6  A    between atoms: C_19  and  O_20
REMARK    7  A    between atoms: O_20  and  C_21
REMARK    8  A    between atoms: O_22  and  C_23
REMARK    9  A    between atoms: O_24  and  C_25
REMARK                            x       y       z     vdW  Elec       q    Type
REMARK                         _______ _______ _______ _____ _____    ______ ____
ROOT
ATOM      1  C   UNL     1      87.443  51.073  43.799  0.00  0.00    +0.139 A 
ATOM      2  C   UNL     1      87.326  52.114  42.867  0.00  0.00    +0.029 A 
ATOM      3  C   UNL     1      86.845  53.356  43.283  0.00  0.00    +0.197 A 
ATOM      4  O   UNL     1      86.745  54.279  42.431  0.00  0.00    -0.287 OA
ATOM      5  C   UNL     1      86.478  53.551  44.636  0.00  0.00    +0.109 A 
ATOM      6  C   UNL     1      86.616  52.449  45.505  0.00  0.00    +0.146 A 
ATOM      7  O   UNL     1      87.081  51.284  45.061  0.00  0.00    -0.454 OA
ATOM      8  C   UNL     1      86.270  52.563  46.845  0.00  0.00    +0.027 A 
ATOM      9  C   UNL     1      85.778  53.769  47.367  0.00  0.00    +0.169 A 
ATOM     10  C   UNL     1      85.631  54.895  46.512  0.00  0.00    +0.204 A 
ATOM     11  C   UNL     1      85.984  54.783  45.136  0.00  0.00    +0.180 A 
ENDROOT
BRANCH   1  15
ATOM     12  C   UNL     1      88.851  47.146  42.716  0.00  0.00    +0.120 A 
ATOM     13  C   UNL     1      89.770  48.192  42.917  0.00  0.00    -0.019 A 
ATOM     14  C   UNL     1      89.323  49.469  43.268  0.00  0.00    -0.048 A 
ATOM     15  C   UNL     1      87.947  49.729  43.417  0.00  0.00    +0.018 A 
ATOM     16  C   UNL     1      87.036  48.676  43.228  0.00  0.00    -0.048 A 
ATOM     17  C   UNL     1      87.485  47.401  42.876  0.00  0.00    -0.019 A 
BRANCH  12  19
ATOM     18  C   UNL     1      88.623  44.659  42.828  0.00  0.00    +0.079 C 
ATOM     19  O   UNL     1      89.250  45.849  42.362  0.00  0.00    -0.495 OA
ENDBRANCH  12  19
ENDBRANCH   1  15
BRANCH  11  20
ATOM     20  O   UNL     1      85.865  55.857  44.226  0.00  0.00    -0.491 OA
ATOM     21  C   UNL     1      86.453  57.150  44.326  0.00  0.00    +0.079 C 
ENDBRANCH  11  20
BRANCH  10  22
ATOM     22  O   UNL     1      85.144  56.131  46.978  0.00  0.00    -0.488 OA
ATOM     23  C   UNL     1      83.786  56.551  47.068  0.00  0.00    +0.079 C 
ENDBRANCH  10  22
BRANCH   9  24
ATOM     24  O   UNL     1      85.431  53.866  48.724  0.00  0.00    -0.491 OA
ATOM     25  C   UNL     1      84.159  53.537  49.274  0.00  0.00    +0.079 C 
ENDBRANCH   9  24
TORSDOF 5
ENDMDL
MODEL 5
REMARK VINA RESULT:    -7.270      3.924      7.573
REMARK INTER + INTRA:          -9.818
REMARK INTER:                  -9.437
REMARK INTRA:                  -0.381
REMARK UNBOUND:                -0.423
REMARK  Name = 
REMARK  9 active torsions:
REMARK  status: ('A' for Active; 'I' for Inactive)
REMARK    1  A    between atoms: C_1  and  O_2
REMARK    2  A    between atoms: O_2  and  C_3
REMARK    3  A    between atoms: C_6  and  C_9
REMARK    4  A    between atoms: C_17  and  O_24
REMARK    5  A    between atoms: C_18  and  O_22
REMARK    6  A    between atoms: C_19  and  O_20
REMARK    7  A    between atoms: O_20  and  C_21
REMARK    8  A    between atoms: O_22  and  C_23
REMARK    9  A    between atoms: O_24  and  C_25
REMARK                            x       y       z     vdW  Elec       q    Type
REMARK                         _______ _______ _______ _____ _____    ______ ____
ROOT
ATOM      1  C   UNL     1      85.271  50.583  44.526  0.00  0.00    +0.139 A 
ATOM      2  C   UNL     1      85.850  51.040  45.718  0.00  0.00    +0.029 A 
ATOM      3  C   UNL     1      86.156  52.394  45.857  0.00  0.00    +0.197 A 
ATOM      4  O   UNL     1      86.678  52.786  46.935  0.00  0.00    -0.287 OA
ATOM      5  C   UNL     1      85.883  53.289  44.796  0.00  0.00    +0.109 A 
ATOM      6  C   UNL     1      85.309  52.746  43.627  0.00  0.00    +0.146 A 
ATOM      7  O   UNL     1      85.035  51.447  43.543  0.00  0.00    -0.454 OA
ATOM      8  C   UNL     1      85.019  53.562  42.542  0.00  0.00    +0.027 A 
ATOM      9  C   UNL     1      85.285  54.939  42.578  0.00  0.00    +0.169 A 
ATOM     10  C   UNL     1      85.861  55.512  43.744  0.00  0.00    +0.204 A 
ATOM     11  C   UNL     1      86.162  54.679  44.861  0.00  0.00    +0.180 A 
ENDROOT
BRANCH   1  15
ATOM     12  C   UNL     1      84.200  46.450  43.937  0.00  0.00    +0.120 A 
ATOM     13  C   UNL     1      85.507  46.788  44.330  0.00  0.00    -0.019 A 
ATOM     14  C   UNL     1      85.864  48.126  44.523  0.00  0.00    -0.048 A 
ATOM     15  C   UNL     1      84.924  49.154  44.318  0.00  0.00    +0.018 A 
ATOM     16  C   UNL     1      83.616  48.807  43.938  0.00  0.00    -0.048 A 
ATOM     17  C   UNL     1      83.262  47.470  43.745  0.00  0.00    -0.019 A 
BRANCH  12  19
ATOM     18  C   UNL     1      84.664  44.071  43.325  0.00  0.00    +0.079 C 
ATOM     19  O   UNL     1      83.794  45.124  43.729  0.00  0.00    -0.495 OA
ENDBRANCH  12  19
ENDBRANCH   1  15
BRANCH  11  20
ATOM     20  O   UNL     1      86.734  55.175  46.053  0.00  0.00    -0.491 OA
ATOM     21  C   UNL     1      86.097  55.940  47.071  0.00  0.00    +0.079 C 
ENDBRANCH  11  20
BRANCH  10  22
ATOM     22  O   UNL     1      86.150  56.886  43.841  0.00  0.00    -0.488 OA
ATOM     23  C   UNL     1      85.278  57.929  44.264  0.00  0.00    +0.079 C 
ENDBRANCH  10  22
BRANCH   9  24
ATOM     24  O   UNL     1      84.986  55.749  41.471  0.00  0.00    -0.491 OA
ATOM     25  C   UNL     1      84.205  55.351  40.347  0.00  0.00    +0.079 C 
ENDBRANCH   9  24
TORSDOF 5
ENDMDL
MODEL 6
REMARK VINA RESULT:    -7.213      5.140      8.488
REMARK INTER + INTRA:          -9.745
REMARK INTER:                  -9.320
REMARK INTRA:                  -0.425
REMARK UNBOUND:                -0.423
REMARK  Name = 
REMARK  9 active torsions:
REMARK  status: ('A' for Active; 'I' for Inactive)
REMARK    1  A    between atoms: C_1  and  O_2
REMARK    2  A    between atoms: O_2  and  C_3
REMARK    3  A    between atoms: C_6  and  C_9
REMARK    4  A    between atoms: C_17  and  O_24
REMARK    5  A    between atoms: C_18  and  O_22
REMARK    6  A    between atoms: C_19  and  O_20
REMARK    7  A    between atoms: O_20  and  C_21
REMARK    8  A    between atoms: O_22  and  C_23
REMARK    9  A    between atoms: O_24  and  C_25
REMARK                            x       y       z     vdW  Elec       q    Type
REMARK                         _______ _______ _______ _____ _____    ______ ____
ROOT
ATOM      1  C   UNL     1      87.005  50.036  43.494  0.00  0.00    +0.139 A 
ATOM      2  C   UNL     1      87.366  50.553  44.747  0.00  0.00    +0.029 A 
ATOM      3  C   UNL     1      87.164  51.908  45.013  0.00  0.00    +0.197 A 
ATOM      4  O   UNL     1      87.495  52.355  46.144  0.00  0.00    -0.287 OA
ATOM      5  C   UNL     1      86.603  52.744  44.020  0.00  0.00    +0.109 A 
ATOM      6  C   UNL     1      86.278  52.147  42.784  0.00  0.00    +0.146 A 
ATOM      7  O   UNL     1      86.490  50.850  42.578  0.00  0.00    -0.454 OA
ATOM      8  C   UNL     1      85.730  52.906  41.759  0.00  0.00    +0.027 A 
ATOM      9  C   UNL     1      85.484  54.277  41.924  0.00  0.00    +0.169 A 
ATOM     10  C   UNL     1      85.800  54.903  43.160  0.00  0.00    +0.204 A 
ATOM     11  C   UNL     1      86.364  54.129  44.215  0.00  0.00    +0.180 A 
ENDROOT
BRANCH   1  15
ATOM     12  C   UNL     1      87.523  45.863  42.551  0.00  0.00    +0.120 A 
ATOM     13  C   UNL     1      88.496  46.799  42.156  0.00  0.00    -0.019 A 
ATOM     14  C   UNL     1      88.337  48.155  42.457  0.00  0.00    -0.048 A 
ATOM     15  C   UNL     1      87.197  48.604  43.151  0.00  0.00    +0.018 A 
ATOM     16  C   UNL     1      86.236  47.661  43.554  0.00  0.00    -0.048 A 
ATOM     17  C   UNL     1      86.397  46.307  43.252  0.00  0.00    -0.019 A 
BRANCH  12  19
ATOM     18  C   UNL     1      87.455  43.459  43.232  0.00  0.00    +0.079 C 
ATOM     19  O   UNL     1      87.637  44.494  42.271  0.00  0.00    -0.495 OA
ENDBRANCH  12  19
ENDBRANCH   1  15
BRANCH  11  20
ATOM     20  O   UNL     1      86.704  54.680  45.471  0.00  0.00    -0.491 OA
ATOM     21  C   UNL     1      85.819  55.144  46.485  0.00  0.00    +0.079 C 
ENDBRANCH  11  20
BRANCH  10  22
ATOM     22  O   UNL     1      85.575  56.274  43.385  0.00  0.00    -0.488 OA
ATOM     23  C   UNL     1      84.329  56.923  43.618  0.00  0.00    +0.079 C 
ENDBRANCH  10  22
BRANCH   9  24
ATOM     24  O   UNL     1      84.929  55.030  40.876  0.00  0.00    -0.491 OA
ATOM     25  C   UNL     1      83.645  54.814  40.298  0.00  0.00    +0.079 C 
ENDBRANCH   9  24
TORSDOF 5
ENDMDL
MODEL 7
REMARK VINA RESULT:    -6.949      4.673      8.218
REMARK INTER + INTRA:          -9.404
REMARK INTER:                  -9.107
REMARK INTRA:                  -0.297
REMARK UNBOUND:                -0.423
REMARK  Name = 
REMARK  9 active torsions:
REMARK  status: ('A' for Active; 'I' for Inactive)
REMARK    1  A    between atoms: C_1  and  O_2
REMARK    2  A    between atoms: O_2  and  C_3
REMARK    3  A    between atoms: C_6  and  C_9
REMARK    4  A    between atoms: C_17  and  O_24
REMARK    5  A    between atoms: C_18  and  O_22
REMARK    6  A    between atoms: C_19  and  O_20
REMARK    7  A    between atoms: O_20  and  C_21
REMARK    8  A    between atoms: O_22  and  C_23
REMARK    9  A    between atoms: O_24  and  C_25
REMARK                            x       y       z     vdW  Elec       q    Type
REMARK                         _______ _______ _______ _____ _____    ______ ____
ROOT
ATOM      1  C   UNL     1      87.437  47.984  42.504  0.00  0.00    +0.139 A 
ATOM      2  C   UNL     1      88.294  48.586  41.572  0.00  0.00    +0.029 A 
ATOM      3  C   UNL     1      88.252  49.970  41.397  0.00  0.00    +0.197 A 
ATOM      4  O   UNL     1      89.028  50.494  40.553  0.00  0.00    -0.287 OA
ATOM      5  C   UNL     1      87.346  50.748  42.156  0.00  0.00    +0.109 A 
ATOM      6  C   UNL     1      86.512  50.062  43.063  0.00  0.00    +0.146 A 
ATOM      7  O   UNL     1      86.590  48.741  43.195  0.00  0.00    -0.454 OA
ATOM      8  C   UNL     1      85.594  50.758  43.837  0.00  0.00    +0.027 A 
ATOM      9  C   UNL     1      85.472  52.152  43.740  0.00  0.00    +0.169 A 
ATOM     10  C   UNL     1      86.302  52.868  42.835  0.00  0.00    +0.204 A 
ATOM     11  C   UNL     1      87.246  52.158  42.037  0.00  0.00    +0.180 A 
ENDROOT
BRANCH   1  15
ATOM     12  C   UNL     1      87.484  43.721  43.133  0.00  0.00    +0.120 A 
ATOM     13  C   UNL     1      86.279  44.435  43.252  0.00  0.00    -0.019 A 
ATOM     14  C   UNL     1      86.253  45.818  43.050  0.00  0.00    -0.048 A 
ATOM     15  C   UNL     1      87.435  46.516  42.735  0.00  0.00    +0.018 A 
ATOM     16  C   UNL     1      88.633  45.794  42.605  0.00  0.00    -0.048 A 
ATOM     17  C   UNL     1      88.656  44.412  42.808  0.00  0.00    -0.019 A 
BRANCH  12  19
ATOM     18  C   UNL     1      87.656  41.705  44.602  0.00  0.00    +0.079 C 
ATOM     19  O   UNL     1      87.561  42.334  43.328  0.00  0.00    -0.495 OA
ENDBRANCH  12  19
ENDBRANCH   1  15
BRANCH  11  20
ATOM     20  O   UNL     1      88.103  52.799  41.116  0.00  0.00    -0.491 OA
ATOM     21  C   UNL     1      89.347  53.439  41.385  0.00  0.00    +0.079 C 
ENDBRANCH  11  20
BRANCH  10  22
ATOM     22  O   UNL     1      86.226  54.266  42.694  0.00  0.00    -0.488 OA
ATOM     23  C   UNL     1      86.559  55.256  43.662  0.00  0.00    +0.079 C 
ENDBRANCH  10  22
BRANCH   9  24
ATOM     24  O   UNL     1      84.537  52.840  44.531  0.00  0.00    -0.491 OA
ATOM     25  C   UNL     1      84.593  52.965  45.949  0.00  0.00    +0.079 C 
ENDBRANCH   9  24
TORSDOF 5
ENDMDL
MODEL 8
REMARK VINA RESULT:    -6.865      4.224      6.843
REMARK INTER + INTRA:          -9.295
REMARK INTER:                  -8.960
REMARK INTRA:                  -0.336
REMARK UNBOUND:                -0.423
REMARK  Name = 
REMARK  9 active torsions:
REMARK  status: ('A' for Active; 'I' for Inactive)
REMARK    1  A    between atoms: C_1  and  O_2
REMARK    2  A    between atoms: O_2  and  C_3
REMARK    3  A    between atoms: C_6  and  C_9
REMARK    4  A    between atoms: C_17  and  O_24
REMARK    5  A    between atoms: C_18  and  O_22
REMARK    6  A    between atoms: C_19  and  O_20
REMARK    7  A    between atoms: O_20  and  C_21
REMARK    8  A    between atoms: O_22  and  C_23
REMARK    9  A    between atoms: O_24  and  C_25
REMARK                            x       y       z     vdW  Elec       q    Type
REMARK                         _______ _______ _______ _____ _____    ______ ____
ROOT
ATOM      1  C   UNL     1      83.613  51.119  44.431  0.00  0.00    +0.139 A 
ATOM      2  C   UNL     1      84.304  51.424  45.612  0.00  0.00    +0.029 A 
ATOM      3  C   UNL     1      84.978  52.640  45.717  0.00  0.00    +0.197 A 
ATOM      4  O   UNL     1      85.596  52.897  46.786  0.00  0.00    -0.287 OA
ATOM      5  C   UNL     1      84.962  53.550  44.633  0.00  0.00    +0.109 A 
ATOM      6  C   UNL     1      84.252  53.161  43.478  0.00  0.00    +0.146 A 
ATOM      7  O   UNL     1      83.624  51.990  43.427  0.00  0.00    -0.454 OA
ATOM      8  C   UNL     1      84.196  53.998  42.373  0.00  0.00    +0.027 A 
ATOM      9  C   UNL     1      84.838  55.246  42.374  0.00  0.00    +0.169 A 
ATOM     10  C   UNL     1      85.558  55.662  43.526  0.00  0.00    +0.204 A 
ATOM     11  C   UNL     1      85.620  54.806  44.664  0.00  0.00    +0.180 A 
ENDROOT
BRANCH   1  15
ATOM     12  C   UNL     1      81.530  47.384  43.896  0.00  0.00    +0.120 A 
ATOM     13  C   UNL     1      80.806  48.561  44.156  0.00  0.00    -0.019 A 
ATOM     14  C   UNL     1      81.473  49.777  44.331  0.00  0.00    -0.048 A 
ATOM     15  C   UNL     1      82.877  49.839  44.259  0.00  0.00    +0.018 A 
ATOM     16  C   UNL     1      83.593  48.661  43.986  0.00  0.00    -0.048 A 
ATOM     17  C   UNL     1      82.925  47.447  43.812  0.00  0.00    -0.019 A 
BRANCH  12  19
ATOM     18  C   UNL     1      79.852  45.643  44.530  0.00  0.00    +0.079 C 
ATOM     19  O   UNL     1      80.908  46.140  43.714  0.00  0.00    -0.495 OA
ENDBRANCH  12  19
ENDBRANCH   1  15
BRANCH  11  20
ATOM     20  O   UNL     1      86.315  55.151  45.844  0.00  0.00    -0.491 OA
ATOM     21  C   UNL     1      85.908  56.063  46.859  0.00  0.00    +0.079 C 
ENDBRANCH  11  20
BRANCH  10  22
ATOM     22  O   UNL     1      86.222  56.903  43.588  0.00  0.00    -0.488 OA
ATOM     23  C   UNL     1      85.699  58.145  44.048  0.00  0.00    +0.079 C 
ENDBRANCH  10  22
BRANCH   9  24
ATOM     24  O   UNL     1      84.772  56.080  41.246  0.00  0.00    -0.491 OA
ATOM     25  C   UNL     1      84.255  55.702  39.973  0.00  0.00    +0.079 C 
ENDBRANCH   9  24
TORSDOF 5
ENDMDL
MODEL 9
REMARK VINA RESULT:    -6.712      1.670      3.894
REMARK INTER + INTRA:          -9.097
REMARK INTER:                  -8.673
REMARK INTRA:                  -0.423
REMARK UNBOUND:                -0.423
REMARK  Name = 
REMARK  9 active torsions:
REMARK  status: ('A' for Active; 'I' for Inactive)
REMARK    1  A    between atoms: C_1  and  O_2
REMARK    2  A    between atoms: O_2  and  C_3
REMARK    3  A    between atoms: C_6  and  C_9
REMARK    4  A    between atoms: C_17  and  O_24
REMARK    5  A    between atoms: C_18  and  O_22
REMARK    6  A    between atoms: C_19  and  O_20
REMARK    7  A    between atoms: O_20  and  C_21
REMARK    8  A    between atoms: O_22  and  C_23
REMARK    9  A    between atoms: O_24  and  C_25
REMARK                            x       y       z     vdW  Elec       q    Type
REMARK                         _______ _______ _______ _____ _____    ______ ____
ROOT
ATOM      1  C   UNL     1      83.963  49.106  43.591  0.00  0.00    +0.139 A 
ATOM      2  C   UNL     1      84.812  50.222  43.614  0.00  0.00    +0.029 A 
ATOM      3  C   UNL     1      86.180  50.046  43.409  0.00  0.00    +0.197 A 
ATOM      4  O   UNL     1      86.928  51.060  43.435  0.00  0.00    -0.287 OA
ATOM      5  C   UNL     1      86.697  48.748  43.184  0.00  0.00    +0.109 A 
ATOM      6  C   UNL     1      85.776  47.680  43.188  0.00  0.00    +0.146 A 
ATOM      7  O   UNL     1      84.480  47.899  43.387  0.00  0.00    -0.454 OA
ATOM      8  C   UNL     1      86.210  46.378  42.980  0.00  0.00    +0.027 A 
ATOM      9  C   UNL     1      87.566  46.091  42.762  0.00  0.00    +0.169 A 
ATOM     10  C   UNL     1      88.514  47.150  42.752  0.00  0.00    +0.204 A 
ATOM     11  C   UNL     1      88.075  48.489  42.965  0.00  0.00    +0.180 A 
ENDROOT
BRANCH   1  15
ATOM     12  C   UNL     1      79.718  49.531  44.202  0.00  0.00    +0.120 A 
ATOM     13  C   UNL     1      80.395  48.416  44.728  0.00  0.00    -0.019 A 
ATOM     14  C   UNL     1      81.772  48.269  44.535  0.00  0.00    -0.048 A 
ATOM     15  C   UNL     1      82.498  49.230  43.804  0.00  0.00    +0.018 A 
ATOM     16  C   UNL     1      81.816  50.347  43.293  0.00  0.00    -0.048 A 
ATOM     17  C   UNL     1      80.440  50.491  43.486  0.00  0.00    -0.019 A 
BRANCH  12  19
ATOM     18  C   UNL     1      77.698  50.993  44.379  0.00  0.00    +0.079 C 
ATOM     19  O   UNL     1      78.338  49.721  44.368  0.00  0.00    -0.495 OA
ENDBRANCH  12  19
ENDBRANCH   1  15
BRANCH  11  20
ATOM     20  O   UNL     1      88.956  49.592  42.969  0.00  0.00    -0.491 OA
ATOM     21  C   UNL     1      89.674  50.136  41.866  0.00  0.00    +0.079 C 
ENDBRANCH  11  20
BRANCH  10  22
ATOM     22  O   UNL     1      89.887  46.925  42.537  0.00  0.00    -0.488 OA
ATOM     23  C   UNL     1      90.932  46.937  43.505  0.00  0.00    +0.079 C 
ENDBRANCH  10  22
BRANCH   9  24
ATOM     24  O   UNL     1      87.988  44.767  42.555  0.00  0.00    -0.491 OA
ATOM     25  C   UNL     1      87.168  43.611  42.699  0.00  0.00    +0.079 C 
ENDBRANCH   9  24
TORSDOF 5
ENDMDL
