MODEL 1
REMARK VINA RESULT:    -8.097      0.000      0.000
REMARK INTER + INTRA:         -10.928
REMARK INTER:                 -10.474
REMARK INTRA:                  -0.454
REMARK UNBOUND:                -0.464
REMARK  Name = 
REMARK  9 active torsions:
REMARK  status: ('A' for Active; 'I' for Inactive)
REMARK    1  A    between atoms: C_1  and  O_2
REMARK    2  A    between atoms: O_2  and  C_3
REMARK    3  A    between atoms: C_6  and  C_9
REMARK    4  A    between atoms: C_17  and  O_24
REMARK    5  A    between atoms: C_18  and  O_22
REMARK    6  A    between atoms: C_19  and  O_20
REMARK    7  A    between atoms: O_20  and  C_21
REMARK    8  A    between atoms: O_22  and  C_23
REMARK    9  A    between atoms: O_24  and  C_25
REMARK                            x       y       z     vdW  Elec       q    Type
REMARK                         _______ _______ _______ _____ _____    ______ ____
ROOT
ATOM      1  C   UNL     1      83.495  47.012  43.376  0.00  0.00    +0.139 A 
ATOM      2  C   UNL     1      83.853  45.700  43.034  0.00  0.00    +0.029 A 
ATOM      3  C   UNL     1      85.178  45.416  42.700  0.00  0.00    +0.197 A 
ATOM      4  O   UNL     1      85.481  44.231  42.394  0.00  0.00    -0.287 OA
ATOM      5  C   UNL     1      86.142  46.451  42.704  0.00  0.00    +0.109 A 
ATOM      6  C   UNL     1      85.696  47.744  43.049  0.00  0.00    +0.146 A 
ATOM      7  O   UNL     1      84.422  47.965  43.361  0.00  0.00    -0.454 OA
ATOM      8  C   UNL     1      86.584  48.811  43.068  0.00  0.00    +0.027 A 
ATOM      9  C   UNL     1      87.939  48.634  42.750  0.00  0.00    +0.169 A 
ATOM     10  C   UNL     1      88.414  47.341  42.401  0.00  0.00    +0.204 A 
ATOM     11  C   UNL     1      87.507  46.242  42.378  0.00  0.00    +0.180 A 
ENDROOT
BRANCH   1  15
ATOM     12  C   UNL     1      79.472  48.134  44.439  0.00  0.00    +0.120 A 
ATOM     13  C   UNL     1      79.924  46.824  44.682  0.00  0.00    -0.019 A 
ATOM     14  C   UNL     1      81.227  46.451  44.341  0.00  0.00    -0.048 A 
ATOM     15  C   UNL     1      82.102  47.376  43.740  0.00  0.00    +0.018 A 
ATOM     16  C   UNL     1      81.647  48.686  43.512  0.00  0.00    -0.048 A 
ATOM     17  C   UNL     1      80.345  49.057  43.853  0.00  0.00    -0.019 A 
BRANCH  12  19
ATOM     18  C   UNL     1      77.826  49.891  45.110  0.00  0.00    +0.079 C 
ATOM     19  O   UNL     1      78.174  48.555  44.762  0.00  0.00    -0.495 OA
ENDBRANCH  12  19
ENDBRANCH   1  15
BRANCH  11  20
ATOM     20  O   UNL     1      87.905  44.929  42.042  0.00  0.00    -0.491 OA
ATOM     21  C   UNL     1      88.608  43.997  42.858  0.00  0.00    +0.079 C 
ENDBRANCH  11  20
BRANCH  10  22
ATOM     22  O   UNL     1      89.762  47.101  42.074  0.00  0.00    -0.488 OA
ATOM     23  C   UNL     1      90.858  46.942  42.968  0.00  0.00    +0.079 C 
ENDBRANCH  10  22
BRANCH   9  24
ATOM     24  O   UNL     1      88.822  49.725  42.774  0.00  0.00    -0.491 OA
ATOM     25  C   UNL     1      89.159  50.536  41.651  0.00  0.00    +0.079 C 
ENDBRANCH   9  24
TORSDOF 5
ENDMDL
MODEL 2
REMARK VINA RESULT:    -7.828      1.612      2.306
REMARK INTER + INTRA:         -10.580
REMARK INTER:                 -10.138
REMARK INTRA:                  -0.442
REMARK UNBOUND:                -0.464
REMARK  Name = 
REMARK  9 active torsions:
REMARK  status: ('A' for Active; 'I' for Inactive)
REMARK    1  A    between atoms: C_1  and  O_2
REMARK    2  A    between atoms: O_2  and  C_3
REMARK    3  A    between atoms: C_6  and  C_9
REMARK    4  A    between atoms: C_17  and  O_24
REMARK    5  A    between atoms: C_18  and  O_22
REMARK    6  A    between atoms: C_19  and  O_20
REMARK    7  A    between atoms: O_20  and  C_21
REMARK    8  A    between atoms: O_22  and  C_23
REMARK    9  A    between atoms: O_24  and  C_25
REMARK                            x       y       z     vdW  Elec       q    Type
REMARK                         _______ _______ _______ _____ _____    ______ ____
ROOT
ATOM      1  C   UNL     1      81.864  48.428  43.919  0.00  0.00    +0.139 A 
ATOM      2  C   UNL     1      81.998  47.047  43.718  0.00  0.00    +0.029 A 
ATOM      3  C   UNL     1      83.257  46.513  43.446  0.00  0.00    +0.197 A 
ATOM      4  O   UNL     1      83.359  45.269  43.268  0.00  0.00    -0.287 OA
ATOM      5  C   UNL     1      84.383  47.367  43.370  0.00  0.00    +0.109 A 
ATOM      6  C   UNL     1      84.159  48.745  43.574  0.00  0.00    +0.146 A 
ATOM      7  O   UNL     1      82.938  49.206  43.831  0.00  0.00    -0.454 OA
ATOM      8  C   UNL     1      85.213  49.645  43.508  0.00  0.00    +0.027 A 
ATOM      9  C   UNL     1      86.521  49.212  43.243  0.00  0.00    +0.169 A 
ATOM     10  C   UNL     1      86.774  47.829  43.036  0.00  0.00    +0.204 A 
ATOM     11  C   UNL     1      85.695  46.900  43.101  0.00  0.00    +0.180 A 
ENDROOT
BRANCH   1  15
ATOM     12  C   UNL     1      78.066  50.298  44.725  0.00  0.00    +0.120 A 
ATOM     13  C   UNL     1      78.644  49.442  45.679  0.00  0.00    -0.019 A 
ATOM     14  C   UNL     1      79.875  48.830  45.426  0.00  0.00    -0.048 A 
ATOM     15  C   UNL     1      80.549  49.055  44.211  0.00  0.00    +0.018 A 
ATOM     16  C   UNL     1      79.972  49.923  43.268  0.00  0.00    -0.048 A 
ATOM     17  C   UNL     1      78.741  50.532  43.522  0.00  0.00    -0.019 A 
BRANCH  12  19
ATOM     18  C   UNL     1      76.092  51.602  43.915  0.00  0.00    +0.079 C 
ATOM     19  O   UNL     1      76.832  50.934  44.931  0.00  0.00    -0.495 OA
ENDBRANCH  12  19
ENDBRANCH   1  15
BRANCH  11  20
ATOM     20  O   UNL     1      85.868  45.512  42.907  0.00  0.00    -0.491 OA
ATOM     21  C   UNL     1      86.507  44.585  43.778  0.00  0.00    +0.079 C 
ENDBRANCH  11  20
BRANCH  10  22
ATOM     22  O   UNL     1      88.064  47.335  42.767  0.00  0.00    -0.488 OA
ATOM     23  C   UNL     1      88.719  47.256  41.505  0.00  0.00    +0.079 C 
ENDBRANCH  10  22
BRANCH   9  24
ATOM     24  O   UNL     1      87.576  50.137  43.179  0.00  0.00    -0.491 OA
ATOM     25  C   UNL     1      87.693  51.308  43.983  0.00  0.00    +0.079 C 
ENDBRANCH   9  24
TORSDOF 5
ENDMDL
MODEL 3
REMARK VINA RESULT:    -7.476      0.963      3.117
REMARK INTER + INTRA:         -10.125
REMARK INTER:                  -9.610
REMARK INTRA:                  -0.515
REMARK UNBOUND:                -0.464
REMARK  Name = 
REMARK  9 active torsions:
REMARK  status: ('A' for Active; 'I' for Inactive)
REMARK    1  A    between atoms: C_1  and  O_2
REMARK    2  A    between atoms: O_2  and  C_3
REMARK    3  A    between atoms: C_6  and  C_9
REMARK    4  A    between atoms: C_17  and  O_24
REMARK    5  A    between atoms: C_18  and  O_22
REMARK    6  A    between atoms: C_19  and  O_20
REMARK    7  A    between atoms: O_20  and  C_21
REMARK    8  A    between atoms: O_22  and  C_23
REMARK    9  A    between atoms: O_24  and  C_25
REMARK                            x       y       z     vdW  Elec       q    Type
REMARK                         _______ _______ _______ _____ _____    ______ ____
ROOT
ATOM      1  C   UNL     1      83.589  48.232  43.524  0.00  0.00    +0.139 A 
ATOM      2  C   UNL     1      84.319  49.429  43.488  0.00  0.00    +0.029 A 
ATOM      3  C   UNL     1      85.679  49.393  43.182  0.00  0.00    +0.197 A 
ATOM      4  O   UNL     1      86.319  50.479  43.155  0.00  0.00    -0.287 OA
ATOM      5  C   UNL     1      86.309  48.154  42.917  0.00  0.00    +0.109 A 
ATOM      6  C   UNL     1      85.504  46.997  42.986  0.00  0.00    +0.146 A 
ATOM      7  O   UNL     1      84.210  47.083  43.280  0.00  0.00    -0.454 OA
ATOM      8  C   UNL     1      86.053  45.745  42.744  0.00  0.00    +0.027 A 
ATOM      9  C   UNL     1      87.412  45.597  42.426  0.00  0.00    +0.169 A 
ATOM     10  C   UNL     1      88.243  46.747  42.349  0.00  0.00    +0.204 A 
ATOM     11  C   UNL     1      87.686  48.035  42.597  0.00  0.00    +0.180 A 
ENDROOT
BRANCH   1  15
ATOM     12  C   UNL     1      79.384  48.223  44.467  0.00  0.00    +0.120 A 
ATOM     13  C   UNL     1      80.130  47.035  44.572  0.00  0.00    -0.019 A 
ATOM     14  C   UNL     1      81.494  47.028  44.268  0.00  0.00    -0.048 A 
ATOM     15  C   UNL     1      82.138  48.206  43.844  0.00  0.00    +0.018 A 
ATOM     16  C   UNL     1      81.389  49.392  43.754  0.00  0.00    -0.048 A 
ATOM     17  C   UNL     1      80.026  49.396  44.058  0.00  0.00    -0.019 A 
BRANCH  12  19
ATOM     18  C   UNL     1      77.320  49.465  45.137  0.00  0.00    +0.079 C 
ATOM     19  O   UNL     1      78.013  48.280  44.759  0.00  0.00    -0.495 OA
ENDBRANCH  12  19
ENDBRANCH   1  15
BRANCH  11  20
ATOM     20  O   UNL     1      88.448  49.223  42.539  0.00  0.00    -0.491 OA
ATOM     21  C   UNL     1      89.031  49.826  41.389  0.00  0.00    +0.079 C 
ENDBRANCH  11  20
BRANCH  10  22
ATOM     22  O   UNL     1      89.613  46.663  42.034  0.00  0.00    -0.488 OA
ATOM     23  C   UNL     1      90.713  46.647  42.937  0.00  0.00    +0.079 C 
ENDBRANCH  10  22
BRANCH   9  24
ATOM     24  O   UNL     1      87.951  44.322  42.186  0.00  0.00    -0.491 OA
ATOM     25  C   UNL     1      88.302  43.375  43.191  0.00  0.00    +0.079 C 
ENDBRANCH   9  24
TORSDOF 5
ENDMDL
MODEL 4
REMARK VINA RESULT:    -7.464      4.709      6.697
REMARK INTER + INTRA:         -10.110
REMARK INTER:                  -9.626
REMARK INTRA:                  -0.483
REMARK UNBOUND:                -0.464
REMARK  Name = 
REMARK  9 active torsions:
REMARK  status: ('A' for Active; 'I' for Inactive)
REMARK    1  A    between atoms: C_1  and  O_2
REMARK    2  A    between atoms: O_2  and  C_3
REMARK    3  A    between atoms: C_6  and  C_9
REMARK    4  A    between atoms: C_17  and  O_24
REMARK    5  A    between atoms: C_18  and  O_22
REMARK    6  A    between atoms: C_19  and  O_20
REMARK    7  A    between atoms: O_20  and  C_21
REMARK    8  A    between atoms: O_22  and  C_23
REMARK    9  A    between atoms: O_24  and  C_25
REMARK                            x       y       z     vdW  Elec       q    Type
REMARK                         _______ _______ _______ _____ _____    ______ ____
ROOT
ATOM      1  C   UNL     1      85.034  51.956  44.844  0.00  0.00    +0.139 A 
ATOM      2  C   UNL     1      86.320  51.412  44.715  0.00  0.00    +0.029 A 
ATOM      3  C   UNL     1      86.466  50.096  44.276  0.00  0.00    +0.197 A 
ATOM      4  O   UNL     1      87.630  49.623  44.166  0.00  0.00    -0.287 OA
ATOM      5  C   UNL     1      85.320  49.324  43.971  0.00  0.00    +0.109 A 
ATOM      6  C   UNL     1      84.064  49.944  44.139  0.00  0.00    +0.146 A 
ATOM      7  O   UNL     1      83.977  51.203  44.560  0.00  0.00    -0.454 OA
ATOM      8  C   UNL     1      82.895  49.248  43.867  0.00  0.00    +0.027 A 
ATOM      9  C   UNL     1      82.930  47.919  43.418  0.00  0.00    +0.169 A 
ATOM     10  C   UNL     1      84.182  47.272  43.238  0.00  0.00    +0.204 A 
ATOM     11  C   UNL     1      85.386  47.982  43.518  0.00  0.00    +0.180 A 
ENDROOT
BRANCH   1  15
ATOM     12  C   UNL     1      84.439  56.023  46.139  0.00  0.00    +0.120 A 
ATOM     13  C   UNL     1      84.258  54.964  47.046  0.00  0.00    -0.019 A 
ATOM     14  C   UNL     1      84.449  53.641  46.635  0.00  0.00    -0.048 A 
ATOM     15  C   UNL     1      84.815  53.351  45.307  0.00  0.00    +0.018 A 
ATOM     16  C   UNL     1      85.006  54.416  44.410  0.00  0.00    -0.048 A 
ATOM     17  C   UNL     1      84.815  55.736  44.823  0.00  0.00    -0.019 A 
BRANCH  12  19
ATOM     18  C   UNL     1      84.792  58.473  45.784  0.00  0.00    +0.079 C 
ATOM     19  O   UNL     1      84.258  57.366  46.503  0.00  0.00    -0.495 OA
ENDBRANCH  12  19
ENDBRANCH   1  15
BRANCH  11  20
ATOM     20  O   UNL     1      86.667  47.406  43.363  0.00  0.00    -0.491 OA
ATOM     21  C   UNL     1      87.312  47.032  42.150  0.00  0.00    +0.079 C 
ENDBRANCH  11  20
BRANCH  10  22
ATOM     22  O   UNL     1      84.281  45.941  42.790  0.00  0.00    -0.488 OA
ATOM     23  C   UNL     1      84.440  44.767  43.580  0.00  0.00    +0.079 C 
ENDBRANCH  10  22
BRANCH   9  24
ATOM     24  O   UNL     1      81.737  47.229  43.147  0.00  0.00    -0.491 OA
ATOM     25  C   UNL     1      81.016  46.434  44.085  0.00  0.00    +0.079 C 
ENDBRANCH   9  24
TORSDOF 5
ENDMDL
MODEL 5
REMARK VINA RESULT:    -7.344      4.042      6.611
REMARK INTER + INTRA:          -9.954
REMARK INTER:                  -9.558
REMARK INTRA:                  -0.396
REMARK UNBOUND:                -0.464
REMARK  Name = 
REMARK  9 active torsions:
REMARK  status: ('A' for Active; 'I' for Inactive)
REMARK    1  A    between atoms: C_1  and  O_2
REMARK    2  A    between atoms: O_2  and  C_3
REMARK    3  A    between atoms: C_6  and  C_9
REMARK    4  A    between atoms: C_17  and  O_24
REMARK    5  A    between atoms: C_18  and  O_22
REMARK    6  A    between atoms: C_19  and  O_20
REMARK    7  A    between atoms: O_20  and  C_21
REMARK    8  A    between atoms: O_22  and  C_23
REMARK    9  A    between atoms: O_24  and  C_25
REMARK                            x       y       z     vdW  Elec       q    Type
REMARK                         _______ _______ _______ _____ _____    ______ ____
ROOT
ATOM      1  C   UNL     1      87.039  51.897  43.786  0.00  0.00    +0.139 A 
ATOM      2  C   UNL     1      88.090  51.682  42.884  0.00  0.00    +0.029 A 
ATOM      3  C   UNL     1      88.323  50.395  42.398  0.00  0.00    +0.197 A 
ATOM      4  O   UNL     1      89.274  50.220  41.589  0.00  0.00    -0.287 OA
ATOM      5  C   UNL     1      87.502  49.323  42.821  0.00  0.00    +0.109 A 
ATOM      6  C   UNL     1      86.474  49.625  43.738  0.00  0.00    +0.146 A 
ATOM      7  O   UNL     1      86.291  50.868  44.173  0.00  0.00    -0.454 OA
ATOM      8  C   UNL     1      85.632  48.624  44.204  0.00  0.00    +0.027 A 
ATOM      9  C   UNL     1      85.779  47.295  43.776  0.00  0.00    +0.169 A 
ATOM     10  C   UNL     1      86.806  46.966  42.851  0.00  0.00    +0.204 A 
ATOM     11  C   UNL     1      87.674  47.989  42.370  0.00  0.00    +0.180 A 
ENDROOT
BRANCH   1  15
ATOM     12  C   UNL     1      86.205  55.831  45.336  0.00  0.00    +0.120 A 
ATOM     13  C   UNL     1      86.360  54.747  46.218  0.00  0.00    -0.019 A 
ATOM     14  C   UNL     1      86.630  53.467  45.725  0.00  0.00    -0.048 A 
ATOM     15  C   UNL     1      86.742  53.244  44.339  0.00  0.00    +0.018 A 
ATOM     16  C   UNL     1      86.599  54.335  43.465  0.00  0.00    -0.048 A 
ATOM     17  C   UNL     1      86.328  55.612  43.960  0.00  0.00    -0.019 A 
BRANCH  12  19
ATOM     18  C   UNL     1      85.261  58.123  45.009  0.00  0.00    +0.079 C 
ATOM     19  O   UNL     1      85.931  57.133  45.782  0.00  0.00    -0.495 OA
ENDBRANCH  12  19
ENDBRANCH   1  15
BRANCH  11  20
ATOM     20  O   UNL     1      88.716  47.739  41.451  0.00  0.00    -0.491 OA
ATOM     21  C   UNL     1      90.000  47.185  41.721  0.00  0.00    +0.079 C 
ENDBRANCH  11  20
BRANCH  10  22
ATOM     22  O   UNL     1      87.002  45.652  42.385  0.00  0.00    -0.488 OA
ATOM     23  C   UNL     1      87.741  44.609  43.011  0.00  0.00    +0.079 C 
ENDBRANCH  10  22
BRANCH   9  24
ATOM     24  O   UNL     1      84.919  46.295  44.258  0.00  0.00    -0.491 OA
ATOM     25  C   UNL     1      83.714  45.872  43.626  0.00  0.00    +0.079 C 
ENDBRANCH   9  24
TORSDOF 5
ENDMDL
MODEL 6
REMARK VINA RESULT:    -7.334      4.980      7.549
REMARK INTER + INTRA:          -9.942
REMARK INTER:                  -9.590
REMARK INTRA:                  -0.352
REMARK UNBOUND:                -0.464
REMARK  Name = 
REMARK  9 active torsions:
REMARK  status: ('A' for Active; 'I' for Inactive)
REMARK    1  A    between atoms: C_1  and  O_2
REMARK    2  A    between atoms: O_2  and  C_3
REMARK    3  A    between atoms: C_6  and  C_9
REMARK    4  A    between atoms: C_17  and  O_24
REMARK    5  A    between atoms: C_18  and  O_22
REMARK    6  A    between atoms: C_19  and  O_20
REMARK    7  A    between atoms: O_20  and  C_21
REMARK    8  A    between atoms: O_22  and  C_23
REMARK    9  A    between atoms: O_24  and  C_25
REMARK                            x       y       z     vdW  Elec       q    Type
REMARK                         _______ _______ _______ _____ _____    ______ ____
ROOT
ATOM      1  C   UNL     1      85.251  50.593  44.245  0.00  0.00    +0.139 A 
ATOM      2  C   UNL     1      85.857  51.035  45.429  0.00  0.00    +0.029 A 
ATOM      3  C   UNL     1      86.165  52.387  45.579  0.00  0.00    +0.197 A 
ATOM      4  O   UNL     1      86.711  52.766  46.650  0.00  0.00    -0.287 OA
ATOM      5  C   UNL     1      85.867  53.296  44.536  0.00  0.00    +0.109 A 
ATOM      6  C   UNL     1      85.267  52.767  43.374  0.00  0.00    +0.146 A 
ATOM      7  O   UNL     1      84.993  51.470  43.279  0.00  0.00    -0.454 OA
ATOM      8  C   UNL     1      84.952  53.597  42.307  0.00  0.00    +0.027 A 
ATOM      9  C   UNL     1      85.218  54.974  42.355  0.00  0.00    +0.169 A 
ATOM     10  C   UNL     1      85.820  55.532  43.515  0.00  0.00    +0.204 A 
ATOM     11  C   UNL     1      86.147  54.685  44.614  0.00  0.00    +0.180 A 
ENDROOT
BRANCH   1  15
ATOM     12  C   UNL     1      84.299  46.440  43.599  0.00  0.00    +0.120 A 
ATOM     13  C   UNL     1      83.315  47.425  43.403  0.00  0.00    -0.019 A 
ATOM     14  C   UNL     1      83.614  48.775  43.610  0.00  0.00    -0.048 A 
ATOM     15  C   UNL     1      84.901  49.166  44.027  0.00  0.00    +0.018 A 
ATOM     16  C   UNL     1      85.883  48.177  44.208  0.00  0.00    -0.048 A 
ATOM     17  C   UNL     1      85.581  46.829  44.000  0.00  0.00    -0.019 A 
BRANCH  12  19
ATOM     18  C   UNL     1      84.807  44.230  42.546  0.00  0.00    +0.079 C 
ATOM     19  O   UNL     1      84.047  45.073  43.405  0.00  0.00    -0.495 OA
ENDBRANCH  12  19
ENDBRANCH   1  15
BRANCH  11  20
ATOM     20  O   UNL     1      86.746  55.166  45.799  0.00  0.00    -0.491 OA
ATOM     21  C   UNL     1      86.116  55.857  46.873  0.00  0.00    +0.079 C 
ENDBRANCH  11  20
BRANCH  10  22
ATOM     22  O   UNL     1      86.109  56.906  43.623  0.00  0.00    -0.488 OA
ATOM     23  C   UNL     1      85.268  57.933  44.136  0.00  0.00    +0.079 C 
ENDBRANCH  10  22
BRANCH   9  24
ATOM     24  O   UNL     1      84.893  55.799  41.265  0.00  0.00    -0.491 OA
ATOM     25  C   UNL     1      84.161  55.389  40.114  0.00  0.00    +0.079 C 
ENDBRANCH   9  24
TORSDOF 5
ENDMDL
MODEL 7
REMARK VINA RESULT:    -7.253      4.272      5.767
REMARK INTER + INTRA:          -9.837
REMARK INTER:                  -9.398
REMARK INTRA:                  -0.439
REMARK UNBOUND:                -0.464
REMARK  Name = 
REMARK  9 active torsions:
REMARK  status: ('A' for Active; 'I' for Inactive)
REMARK    1  A    between atoms: C_1  and  O_2
REMARK    2  A    between atoms: O_2  and  C_3
REMARK    3  A    between atoms: C_6  and  C_9
REMARK    4  A    between atoms: C_17  and  O_24
REMARK    5  A    between atoms: C_18  and  O_22
REMARK    6  A    between atoms: C_19  and  O_20
REMARK    7  A    between atoms: O_20  and  C_21
REMARK    8  A    between atoms: O_22  and  C_23
REMARK    9  A    between atoms: O_24  and  C_25
REMARK                            x       y       z     vdW  Elec       q    Type
REMARK                         _______ _______ _______ _____ _____    ______ ____
ROOT
ATOM      1  C   UNL     1      85.615  51.576  44.538  0.00  0.00    +0.139 A 
ATOM      2  C   UNL     1      84.549  50.665  44.522  0.00  0.00    +0.029 A 
ATOM      3  C   UNL     1      84.745  49.390  43.991  0.00  0.00    +0.197 A 
ATOM      4  O   UNL     1      83.776  48.585  43.985  0.00  0.00    -0.287 OA
ATOM      5  C   UNL     1      86.012  49.030  43.472  0.00  0.00    +0.109 A 
ATOM      6  C   UNL     1      87.026  50.010  43.516  0.00  0.00    +0.146 A 
ATOM      7  O   UNL     1      86.790  51.212  44.033  0.00  0.00    -0.454 OA
ATOM      8  C   UNL     1      88.292  49.732  43.020  0.00  0.00    +0.027 A 
ATOM      9  C   UNL     1      88.596  48.479  42.466  0.00  0.00    +0.169 A 
ATOM     10  C   UNL     1      87.592  47.475  42.411  0.00  0.00    +0.204 A 
ATOM     11  C   UNL     1      86.290  47.754  42.919  0.00  0.00    +0.180 A 
ENDROOT
BRANCH   1  15
ATOM     12  C   UNL     1      85.253  55.567  46.122  0.00  0.00    +0.120 A 
ATOM     13  C   UNL     1      84.375  54.557  46.555  0.00  0.00    -0.019 A 
ATOM     14  C   UNL     1      84.484  53.260  46.046  0.00  0.00    -0.048 A 
ATOM     15  C   UNL     1      85.468  52.948  45.088  0.00  0.00    +0.018 A 
ATOM     16  C   UNL     1      86.350  53.959  44.671  0.00  0.00    -0.048 A 
ATOM     17  C   UNL     1      86.239  55.255  45.180  0.00  0.00    -0.019 A 
BRANCH  12  19
ATOM     18  C   UNL     1      84.955  58.026  45.782  0.00  0.00    +0.079 C 
ATOM     19  O   UNL     1      85.182  56.884  46.601  0.00  0.00    -0.495 OA
ENDBRANCH  12  19
ENDBRANCH   1  15
BRANCH  11  20
ATOM     20  O   UNL     1      85.242  46.807  42.899  0.00  0.00    -0.491 OA
ATOM     21  C   UNL     1      85.084  45.668  43.738  0.00  0.00    +0.079 C 
ENDBRANCH  11  20
BRANCH  10  22
ATOM     22  O   UNL     1      87.837  46.199  41.869  0.00  0.00    -0.488 OA
ATOM     23  C   UNL     1      88.491  45.100  42.495  0.00  0.00    +0.079 C 
ENDBRANCH  10  22
BRANCH   9  24
ATOM     24  O   UNL     1      89.882  48.216  41.967  0.00  0.00    -0.491 OA
ATOM     25  C   UNL     1      91.035  49.021  42.199  0.00  0.00    +0.079 C 
ENDBRANCH   9  24
TORSDOF 5
ENDMDL
MODEL 8
REMARK VINA RESULT:    -7.215      4.701      8.320
REMARK INTER + INTRA:          -9.788
REMARK INTER:                  -9.363
REMARK INTRA:                  -0.425
REMARK UNBOUND:                -0.464
REMARK  Name = 
REMARK  9 active torsions:
REMARK  status: ('A' for Active; 'I' for Inactive)
REMARK    1  A    between atoms: C_1  and  O_2
REMARK    2  A    between atoms: O_2  and  C_3
REMARK    3  A    between atoms: C_6  and  C_9
REMARK    4  A    between atoms: C_17  and  O_24
REMARK    5  A    between atoms: C_18  and  O_22
REMARK    6  A    between atoms: C_19  and  O_20
REMARK    7  A    between atoms: O_20  and  C_21
REMARK    8  A    between atoms: O_22  and  C_23
REMARK    9  A    between atoms: O_24  and  C_25
REMARK                            x       y       z     vdW  Elec       q    Type
REMARK                         _______ _______ _______ _____ _____    ______ ____
ROOT
ATOM      1  C   UNL     1      86.920  50.565  42.722  0.00  0.00    +0.139 A 
ATOM      2  C   UNL     1      86.643  51.431  41.655  0.00  0.00    +0.029 A 
ATOM      3  C   UNL     1      86.349  52.770  41.916  0.00  0.00    +0.197 A 
ATOM      4  O   UNL     1      86.102  53.533  40.944  0.00  0.00    -0.287 OA
ATOM      5  C   UNL     1      86.329  53.238  43.251  0.00  0.00    +0.109 A 
ATOM      6  C   UNL     1      86.608  52.299  44.266  0.00  0.00    +0.146 A 
ATOM      7  O   UNL     1      86.883  51.033  43.966  0.00  0.00    -0.454 OA
ATOM      8  C   UNL     1      86.600  52.684  45.600  0.00  0.00    +0.027 A 
ATOM      9  C   UNL     1      86.319  54.007  45.972  0.00  0.00    +0.169 A 
ATOM     10  C   UNL     1      86.036  54.973  44.969  0.00  0.00    +0.204 A 
ATOM     11  C   UNL     1      86.042  54.584  43.598  0.00  0.00    +0.180 A 
ENDROOT
BRANCH   1  15
ATOM     12  C   UNL     1      87.808  46.387  42.154  0.00  0.00    +0.120 A 
ATOM     13  C   UNL     1      88.685  47.366  41.655  0.00  0.00    -0.019 A 
ATOM     14  C   UNL     1      88.406  48.724  41.834  0.00  0.00    -0.048 A 
ATOM     15  C   UNL     1      87.238  49.130  42.508  0.00  0.00    +0.018 A 
ATOM     16  C   UNL     1      86.373  48.146  43.015  0.00  0.00    -0.048 A 
ATOM     17  C   UNL     1      86.654  46.790  42.835  0.00  0.00    -0.019 A 
BRANCH  12  19
ATOM     18  C   UNL     1      87.105  43.994  42.326  0.00  0.00    +0.079 C 
ATOM     19  O   UNL     1      88.044  45.013  41.999  0.00  0.00    -0.495 OA
ENDBRANCH  12  19
ENDBRANCH   1  15
BRANCH  11  20
ATOM     20  O   UNL     1      85.771  55.486  42.545  0.00  0.00    -0.491 OA
ATOM     21  C   UNL     1      84.512  56.038  42.175  0.00  0.00    +0.079 C 
ENDBRANCH  11  20
BRANCH  10  22
ATOM     22  O   UNL     1      85.748  56.315  45.280  0.00  0.00    -0.488 OA
ATOM     23  C   UNL     1      84.536  56.844  45.808  0.00  0.00    +0.079 C 
ENDBRANCH  10  22
BRANCH   9  24
ATOM     24  O   UNL     1      86.314  54.378  47.327  0.00  0.00    -0.491 OA
ATOM     25  C   UNL     1      85.549  53.747  48.350  0.00  0.00    +0.079 C 
ENDBRANCH   9  24
TORSDOF 5
ENDMDL
MODEL 9
REMARK VINA RESULT:    -7.152      3.973      6.122
REMARK INTER + INTRA:          -9.707
REMARK INTER:                  -9.243
REMARK INTRA:                  -0.464
REMARK UNBOUND:                -0.464
REMARK  Name = 
REMARK  9 active torsions:
REMARK  status: ('A' for Active; 'I' for Inactive)
REMARK    1  A    between atoms: C_1  and  O_2
REMARK    2  A    between atoms: O_2  and  C_3
REMARK    3  A    between atoms: C_6  and  C_9
REMARK    4  A    between atoms: C_17  and  O_24
REMARK    5  A    between atoms: C_18  and  O_22
REMARK    6  A    between atoms: C_19  and  O_20
REMARK    7  A    between atoms: O_20  and  C_21
REMARK    8  A    between atoms: O_22  and  C_23
REMARK    9  A    between atoms: O_24  and  C_25
REMARK                            x       y       z     vdW  Elec       q    Type
REMARK                         _______ _______ _______ _____ _____    ______ ____
ROOT
ATOM      1  C   UNL     1      85.219  51.546  43.425  0.00  0.00    +0.139 A 
ATOM      2  C   UNL     1      84.107  50.867  43.943  0.00  0.00    +0.029 A 
ATOM      3  C   UNL     1      84.093  49.472  43.941  0.00  0.00    +0.197 A 
ATOM      4  O   UNL     1      83.085  48.879  44.410  0.00  0.00    -0.287 OA
ATOM      5  C   UNL     1      85.195  48.758  43.414  0.00  0.00    +0.109 A 
ATOM      6  C   UNL     1      86.268  49.518  42.902  0.00  0.00    +0.146 A 
ATOM      7  O   UNL     1      86.235  50.847  42.927  0.00  0.00    -0.454 OA
ATOM      8  C   UNL     1      87.381  48.887  42.363  0.00  0.00    +0.027 A 
ATOM      9  C   UNL     1      87.469  47.487  42.314  0.00  0.00    +0.169 A 
ATOM     10  C   UNL     1      86.402  46.699  42.824  0.00  0.00    +0.204 A 
ATOM     11  C   UNL     1      85.257  47.341  43.378  0.00  0.00    +0.180 A 
ENDROOT
BRANCH   1  15
ATOM     12  C   UNL     1      85.404  55.849  43.287  0.00  0.00    +0.120 A 
ATOM     13  C   UNL     1      86.296  55.134  44.107  0.00  0.00    -0.019 A 
ATOM     14  C   UNL     1      86.243  53.737  44.158  0.00  0.00    -0.048 A 
ATOM     15  C   UNL     1      85.292  53.029  43.399  0.00  0.00    +0.018 A 
ATOM     16  C   UNL     1      84.414  53.751  42.573  0.00  0.00    -0.048 A 
ATOM     17  C   UNL     1      84.468  55.145  42.523  0.00  0.00    -0.019 A 
BRANCH  12  19
ATOM     18  C   UNL     1      86.048  58.106  44.149  0.00  0.00    +0.079 C 
ATOM     19  O   UNL     1      85.416  57.249  43.203  0.00  0.00    -0.495 OA
ENDBRANCH  12  19
ENDBRANCH   1  15
BRANCH  11  20
ATOM     20  O   UNL     1      84.159  46.626  43.904  0.00  0.00    -0.491 OA
ATOM     21  C   UNL     1      83.250  45.786  43.200  0.00  0.00    +0.079 C 
ENDBRANCH  11  20
BRANCH  10  22
ATOM     22  O   UNL     1      86.434  45.292  42.804  0.00  0.00    -0.488 OA
ATOM     23  C   UNL     1      86.824  44.416  43.857  0.00  0.00    +0.079 C 
ENDBRANCH  10  22
BRANCH   9  24
ATOM     24  O   UNL     1      88.602  46.866  41.763  0.00  0.00    -0.491 OA
ATOM     25  C   UNL     1      89.869  46.749  42.405  0.00  0.00    +0.079 C 
ENDBRANCH   9  24
TORSDOF 5
ENDMDL
