_=_=_=_=_=_=_=_=_=_=_=_=_=_=_=_=_=_=_=_=_=_=_=_=_=_=_=_=_=_=_=_=_=_=_=_=_=_=_=_=_=_=_=_=_=_=_=_=_=_=_=_=_=_=_=_=_=_=_=_=_=_=_=_=_=_=_=_=_=_=_=_=_=_=_=_=_=_=_=_=_=_=_=_=_=_=_=_=_=_=_=_=_=_=_=_=_=_=_=_=_=_=_=_=_=_=_=_=_=_=_=_=_=_=_=_=_=_=_=_=_=_=_=_=_=_=_=_=_=_=_=_=_=_=_=_=_=_=_=_=_=_=_=_=_=_=_=_=_=_=_=_=_=_=_=_=_=_=_=_=_=_=_=_=_=_=_=_=_=_=_=_=_=_=_=_=_=_=_=_=
 OpenBabel08112514243D

  0  0  0     0  0            999 V3000
M  V30 BEGIN CTAB
M  V30 COUNTS 5967 6651 0 0 1
M  V30 BEGIN ATOM
M  V30 1 C 85.906 51.514 43.693 0
M  V30 2 C 85.418 52.686 43.073 0
M  V30 3 C 84.064 52.755 42.678 0
M  V30 4 C 83.195 51.664 42.932 0
M  V30 5 C 83.659 50.586 43.712 0
M  V30 6 C 85.017 50.49 44.072 0
M  V30 7 O 82.76 49.589 44.118 0
M  V30 8 C 81.347 49.767 44.047 0
M  V30 9 C 80.963 50.353 42.684 0
M  V30 10 C 81.819 51.547 42.362 0
M  V30 11 O 81.395 52.358 41.498 0
M  V30 12 C 80.639 48.454 44.285 0
M  V30 13 C 81.377 47.264 44.397 0
M  V30 14 C 80.73 46.052 44.665 0
M  V30 15 C 79.343 46.022 44.833 0
M  V30 16 C 78.601 47.201 44.735 0
M  V30 17 C 79.244 48.415 44.47 0
M  V30 18 C 87.797 51.562 45.273 0
M  V30 19 O 87.271 51.368 43.964 0
M  V30 20 O 83.616 53.93 42.066 0
M  V30 21 H 84.115 54.719 42.145 0
M  V30 22 C 86.298 53.917 42.939 0
M  V30 23 C 85.846 55.003 43.889 0
M  V30 24 C 86.071 54.86 45.267 0
M  V30 25 C 85.736 55.886 46.162 0
M  V30 26 C 85.129 57.053 45.672 0
M  V30 27 C 84.879 57.197 44.305 0
M  V30 28 C 85.244 56.184 43.409 0
M  V30 29 O 85.009 56.348 42.044 0
M  V30 30 H 85.156 55.635 41.454 0
M  V30 31 C 86.09 55.752 47.62 0
M  V30 32 C 85.342 54.587 48.235 0
M  V30 33 C 86.052 53.4 48.508 0
M  V30 34 C 85.427 52.324 49.141 0
M  V30 35 C 84.088 52.417 49.519 0
M  V30 36 C 83.369 53.585 49.258 0
M  V30 37 C 83.978 54.673 48.618 0
M  V30 38 O 83.196 55.805 48.383 0
M  V30 39 H 83.28 56.556 48.937 0
M  V30 40 C 85.51 49.311 44.89 0
M  V30 41 C 86.139 48.223 44.044 0
M  V30 42 C 87.129 48.566 43.101 0
M  V30 43 C 87.788 47.574 42.355 0
M  V30 44 C 87.454 46.228 42.559 0
M  V30 45 C 86.473 45.877 43.484 0
M  V30 46 C 85.824 46.861 44.242 0
M  V30 47 O 84.88 46.481 45.194 0
M  V30 48 H 84.501 45.625 45.163 0
M  V30 49 C 88.901 47.941 41.404 0
M  V30 50 C 89.121 49.434 41.359 0
M  V30 51 C 88.24 50.248 40.621 0
M  V30 52 C 88.41 51.636 40.594 0
M  V30 53 C 89.462 52.225 41.297 0
M  V30 54 C 90.345 51.427 42.033 0
M  V30 55 C 90.178 50.033 42.073 0
M  V30 56 O 91.057 49.245 42.814 0
M  V30 57 H 91.171 48.341 42.598 0
M  V30 58 C 87.25 50.939 44.171 0
M  V30 59 C 88.017 51.529 43.141 0
M  V30 60 C 88.771 50.709 42.274 0
M  V30 61 C 88.734 49.299 42.421 0
M  V30 62 C 87.823 48.73 43.334 0
M  V30 63 C 87.101 49.54 44.229 0
M  V30 64 O 87.651 47.338 43.361 0
M  V30 65 C 88.115 46.496 42.308 0
M  V30 66 C 89.548 46.88 41.925 0
M  V30 67 C 89.657 48.365 41.711 0
M  V30 68 O 90.629 48.79 41.033 0
M  V30 69 C 88.042 45.045 42.724 0
M  V30 70 C 89.027 44.501 43.564 0
M  V30 71 C 88.938 43.171 43.991 0
M  V30 72 C 87.86 42.379 43.589 0
M  V30 73 C 86.869 42.913 42.762 0
M  V30 74 C 86.952 44.242 42.336 0
M  V30 75 C 87.258 52.117 46.335 0
M  V30 76 O 86.609 51.736 45.126 0
M  V30 77 O 89.519 51.328 41.268 0
M  V30 78 H 89.539 52.263 41.207 0
M  V30 79 C 87.94 53.023 42.876 0
M  V30 80 C 86.586 53.398 42.317 0
M  V30 81 C 85.649 54.044 43.139 0
M  V30 82 C 84.418 54.475 42.624 0
M  V30 83 C 84.107 54.218 41.28 0
M  V30 84 C 85.022 53.556 40.459 0
M  V30 85 C 86.265 53.154 40.966 0
M  V30 86 O 87.18 52.512 40.131 0
M  V30 87 H 86.952 51.7 39.724 0
M  V30 88 C 83.477 55.263 43.498 0
M  V30 89 C 84.259 56.149 44.445 0
M  V30 90 C 84.595 57.452 44.026 0
M  V30 91 C 85.251 58.334 44.888 0
M  V30 92 C 85.576 57.931 46.184 0
M  V30 93 C 85.251 56.645 46.617 0
M  V30 94 C 84.597 55.746 45.763 0
M  V30 95 O 84.311 54.473 46.262 0
M  V30 96 H 84.066 53.785 45.675 0
M  V30 97 C 86.143 48.913 45.226 0
M  V30 98 C 84.905 48.331 44.576 0
M  V30 99 C 83.935 49.2 44.035 0
M  V30 100 C 82.812 48.694 43.357 0
M  V30 101 C 82.663 47.307 43.218 0
M  V30 102 C 83.613 46.438 43.754 0
M  V30 103 C 84.741 46.938 44.417 0
M  V30 104 O 85.7 46.051 44.902 0
M  V30 105 H 86.038 45.376 44.347 0
M  V30 106 C 81.818 49.63 42.713 0
M  V30 107 C 80.519 49.67 43.479 0
M  V30 108 C 80.129 48.56 44.253 0
M  V30 109 C 78.944 48.592 44.994 0
M  V30 110 C 78.133 49.728 44.967 0
M  V30 111 C 78.508 50.838 44.202 0
M  V30 112 C 79.701 50.818 43.46 0
M  V30 113 O 80.072 51.929 42.705 0
M  V30 114 H 79.767 52.782 42.945 0
M  V30 115 C 86.017 50.189 44.493 0
M  V30 116 C 85.158 49.093 44.733 0
M  V30 117 C 83.827 49.131 44.262 0
M  V30 118 C 83.368 50.253 43.526 0
M  V30 119 C 84.293 51.246 43.145 0
M  V30 120 C 85.608 51.236 43.645 0
M  V30 121 O 83.89 52.266 42.27 0
M  V30 122 C 82.69 52.178 41.504 0
M  V30 123 C 81.536 51.71 42.395 0
M  V30 124 C 81.935 50.491 43.181 0
M  V30 125 O 81.018 49.767 43.649 0
M  V30 126 C 82.372 53.512 40.87 0
M  V30 127 C 83.332 54.165 40.079 0
M  V30 128 C 83.026 55.377 39.45 0
M  V30 129 C 81.757 55.941 39.6 0
M  V30 130 C 80.79 55.295 40.376 0
M  V30 131 C 81.092 54.082 41.003 0
M  V30 132 C 87.478 50.579 46.439 0
M  V30 133 O 87.291 50.233 45.07 0
M  V30 134 O 83.006 48.03 44.52 0
M  V30 135 H 82.664 47.524 43.809 0
M  V30 136 C 85.683 47.823 45.382 0
M  V30 137 C 85.995 46.778 44.334 0
M  V30 138 C 87.054 46.988 43.436 0
M  V30 139 C 87.417 46.001 42.509 0
M  V30 140 C 86.682 44.807 42.453 0
M  V30 141 C 85.611 44.597 43.326 0
M  V30 142 C 85.271 45.57 44.274 0
M  V30 143 O 84.213 45.341 45.155 0
M  V30 144 H 83.421 45.833 45.073 0
M  V30 145 C 88.625 46.206 41.633 0
M  V30 146 C 89.484 47.328 42.179 0
M  V30 147 C 90.539 47.004 43.054 0
M  V30 148 C 91.405 47.992 43.527 0
M  V30 149 C 91.235 49.318 43.128 0
M  V30 150 C 90.196 49.659 42.261 0
M  V30 151 C 89.315 48.68 41.781 0
M  V30 152 O 88.293 49.095 40.924 0
M  V30 153 H 87.8 49.867 41.122 0
M  V30 154 C 86.587 52.326 43.248 0
M  V30 155 C 86.232 53.682 43.822 0
M  V30 156 C 86.328 53.891 45.212 0
M  V30 157 C 86.08 55.157 45.77 0
M  V30 158 C 85.737 56.222 44.926 0
M  V30 159 C 85.632 56.026 43.55 0
M  V30 160 C 85.893 54.77 42.988 0
M  V30 161 O 85.828 54.61 41.605 0
M  V30 162 H 85.97 53.767 41.223 0
M  V30 163 C 86.262 55.393 47.25 0
M  V30 164 C 85.405 54.459 48.069 0
M  V30 165 C 85.911 53.202 48.453 0
M  V30 166 C 85.143 52.337 49.237 0
M  V30 167 C 83.86 52.713 49.642 0
M  V30 168 C 83.345 53.958 49.267 0
M  V30 169 C 84.112 54.838 48.485 0
M  V30 170 O 83.596 56.081 48.12 0
M  V30 171 H 84.16 56.733 47.755 0
M  V30 172 C 85.504 53.466 43.909 0
M  V30 173 C 84.72 54.411 43.208 0
M  V30 174 C 83.459 54.032 42.698 0
M  V30 175 C 82.972 52.719 42.915 0
M  V30 176 C 83.688 51.856 43.77 0
M  V30 177 C 84.963 52.211 44.247 0
M  V30 178 O 83.128 50.622 44.133 0
M  V30 179 C 81.746 50.329 43.936 0
M  V30 180 C 81.319 50.749 42.526 0
M  V30 181 C 81.767 52.155 42.236 0
M  V30 182 O 81.184 52.778 41.311 0
M  V30 183 C 81.483 48.858 44.16 0
M  V30 184 C 82.29 47.894 43.533 0
M  V30 185 C 82.081 46.531 43.774 0
M  V30 186 C 81.073 46.123 44.65 0
M  V30 187 C 80.272 47.073 45.288 0
M  V30 188 C 80.479 48.436 45.052 0
M  V30 189 C 87.851 53.959 43.343 0
M  V30 190 O 86.811 53.776 44.299 0
M  V30 191 O 82.713 54.993 42.008 0
M  V30 192 H 82.125 55.553 42.475 0
M  V30 193 C 85.162 55.861 43.105 0
M  V30 194 C 84.822 56.614 44.373 0
M  V30 195 C 84.188 55.944 45.431 0
M  V30 196 C 83.936 56.596 46.646 0
M  V30 197 C 84.286 57.947 46.786 0
M  V30 198 C 84.896 58.631 45.732 0
M  V30 199 C 85.177 57.969 44.529 0
M  V30 200 O 85.807 58.656 43.491 0
M  V30 201 H 86.136 58.185 42.75 0
M  V30 202 C 83.355 55.823 47.802 0
M  V30 203 C 84.176 54.578 48.066 0
M  V30 204 C 85.551 54.6 47.757 0
M  V30 205 C 86.366 53.504 48.048 0
M  V30 206 C 85.824 52.373 48.659 0
M  V30 207 C 84.464 52.333 48.972 0
M  V30 208 C 83.631 53.422 48.682 0
M  V30 209 O 82.28 53.309 49.017 0
M  V30 210 H 81.731 54.069 49.012 0
M  V30 211 C 85.736 51.261 45.144 0
M  V30 212 C 86.532 50.229 44.373 0
M  V30 213 C 87.696 50.627 43.685 0
M  V30 214 C 88.5 49.682 43.024 0
M  V30 215 C 88.135 48.329 43.056 0
M  V30 216 C 86.983 47.925 43.728 0
M  V30 217 C 86.187 48.86 44.402 0
M  V30 218 O 85.066 48.425 45.106 0
M  V30 219 H 84.974 47.52 45.329 0
M  V30 220 C 89.787 50.103 42.355 0
M  V30 221 C 89.561 51.24 41.388 0
M  V30 222 C 90.472 52.314 41.348 0
M  V30 223 C 90.296 53.36 40.437 0
M  V30 224 C 89.208 53.349 39.562 0
M  V30 225 C 88.296 52.289 39.592 0
M  V30 226 C 88.468 51.229 40.498 0
M  V30 227 O 87.56 50.172 40.518 0
M  V30 228 H 87.261 49.828 41.336 0
M  V30 229 C 88.261 52.156 42.181 0
M  V30 230 C 88.498 50.798 42.494 0
M  V30 231 C 88.07 50.283 43.738 0
M  V30 232 C 87.382 51.119 44.653 0
M  V30 233 C 86.998 52.412 44.243 0
M  V30 234 C 87.457 52.946 43.024 0
M  V30 235 O 86.166 53.181 45.07 0
M  V30 236 C 85.437 52.608 46.153 0
M  V30 237 C 86.351 51.689 46.97 0
M  V30 238 C 87.089 50.74 46.067 0
M  V30 239 O 87.565 49.693 46.578 0
M  V30 240 C 84.851 53.695 47.025 0
M  V30 241 C 84.681 54.993 46.517 0
M  V30 242 C 84.095 55.991 47.303 0
M  V30 243 C 83.666 55.697 48.6 0
M  V30 244 C 83.82 54.406 49.112 0
M  V30 245 C 84.403 53.405 48.328 0
M  V30 246 C 90.159 53.136 40.953 0
M  V30 247 O 88.798 52.722 41.02 0
M  V30 248 O 88.323 48.936 44.014 0
M  V30 249 H 87.628 48.378 44.301 0
M  V30 250 C 89.093 49.857 41.461 0
M  V30 251 C 89.376 48.502 42.073 0
M  V30 252 C 88.448 47.46 41.914 0
M  V30 253 C 88.721 46.174 42.4 0
M  V30 254 C 89.92 45.941 43.09 0
M  V30 255 C 90.84 46.976 43.275 0
M  V30 256 C 90.58 48.253 42.76 0
M  V30 257 O 91.516 49.274 42.932 0
M  V30 258 H 92.404 49.064 43.146 0
M  V30 259 C 87.76 45.049 42.119 0
M  V30 260 C 86.494 45.226 42.932 0
M  V30 261 C 85.463 46.03 42.406 0
M  V30 262 C 84.248 46.166 43.081 0
M  V30 263 C 84.041 45.497 44.287 0
M  V30 264 C 85.05 44.695 44.823 0
M  V30 265 C 86.277 44.552 44.162 0
M  V30 266 O 87.243 43.741 44.761 0
M  V30 267 H 87.403 42.879 44.428 0
M  V30 268 C 87.059 54.35 42.607 0
M  V30 269 C 85.56 54.531 42.479 0
M  V30 270 C 84.773 53.459 42.013 0
M  V30 271 C 83.372 53.566 41.954 0
M  V30 272 C 82.758 54.755 42.369 0
M  V30 273 C 83.527 55.825 42.826 0
M  V30 274 C 84.922 55.717 42.901 0
M  V30 275 O 85.665 56.783 43.405 0
M  V30 276 H 85.251 57.607 43.57 0
M  V30 277 C 82.529 52.388 41.529 0
M  V30 278 C 82.618 51.256 42.524 0
M  V30 279 C 83.855 50.946 43.122 0
M  V30 280 C 83.949 49.922 44.068 0
M  V30 281 C 82.813 49.193 44.425 0
M  V30 282 C 81.578 49.49 43.838 0
M  V30 283 C 81.472 50.522 42.892 0
M  V30 284 O 80.237 50.818 42.316 0
M  V30 285 H 80.164 50.912 41.387 0
M  V30 286 C 84.865 52.031 44.02 0
M  V30 287 C 84.954 52.985 42.981 0
M  V30 288 C 86.023 52.919 42.061 0
M  V30 289 C 86.983 51.881 42.164 0
M  V30 290 C 86.77 50.841 43.091 0
M  V30 291 C 85.733 50.922 44.038 0
M  V30 292 O 87.616 49.721 43.08 0
M  V30 293 C 88.482 49.436 41.984 0
M  V30 294 C 89.224 50.708 41.561 0
M  V30 295 C 88.26 51.85 41.39 0
M  V30 296 O 88.628 52.83 40.691 0
M  V30 297 C 89.458 48.344 42.355 0
M  V30 298 C 90.463 48.589 43.306 0
M  V30 299 C 91.34 47.568 43.689 0
M  V30 300 C 91.213 46.293 43.132 0
M  V30 301 C 90.21 46.035 42.194 0
M  V30 302 C 89.33 47.052 41.811 0
M  V30 303 C 82.701 51.39 45.008 0
M  V30 304 O 83.898 52.16 45.023 0
M  V30 305 O 86.08 53.881 41.048 0
M  V30 306 H 85.873 54.774 41.239 0
M  V30 307 C 83.848 54.004 42.768 0
M  V30 308 C 84.197 55.319 43.431 0
M  V30 309 C 84.166 55.421 44.831 0
M  V30 310 C 84.563 56.602 45.474 0
M  V30 311 C 84.955 57.706 44.702 0
M  V30 312 C 84.968 57.623 43.307 0
M  V30 313 C 84.602 56.432 42.667 0
M  V30 314 O 84.638 56.353 41.275 0
M  V30 315 H 85.385 56.672 40.807 0
M  V30 316 C 84.626 56.649 46.978 0
M  V30 317 C 84.647 55.245 47.546 0
M  V30 318 C 85.845 54.507 47.473 0
M  V30 319 C 85.938 53.237 48.047 0
M  V30 320 C 84.839 52.687 48.708 0
M  V30 321 C 83.644 53.403 48.79 0
M  V30 322 C 83.532 54.676 48.216 0
M  V30 323 O 82.304 55.331 48.33 0
M  V30 324 H 82.072 56.002 47.718 0
M  V30 325 C 85.531 49.808 45.049 0
M  V30 326 C 84.985 48.537 44.432 0
M  V30 327 C 83.635 48.489 44.029 0
M  V30 328 C 83.116 47.354 43.383 0
M  V30 329 C 83.957 46.26 43.138 0
M  V30 330 C 85.292 46.293 43.539 0
M  V30 331 C 85.819 47.429 44.168 0
M  V30 332 O 87.167 47.456 44.516 0
M  V30 333 H 87.824 47.473 43.848 0
M  V30 334 C 81.691 47.339 42.883 0
M  V30 335 C 80.77 48.085 43.817 0
M  V30 336 C 80.176 49.291 43.396 0
M  V30 337 C 79.296 49.98 44.236 0
M  V30 338 C 79.002 49.477 45.505 0
M  V30 339 C 79.586 48.28 45.935 0
M  V30 340 C 80.466 47.576 45.096 0
M  V30 341 O 81.038 46.381 45.528 0
M  V30 342 H 80.981 46.134 46.43 0
M  V30 343 C 85.537 52.689 43.384 0
M  V30 344 C 86.11 53.171 42.185 0
M  V30 345 C 86.874 52.301 41.377 0
M  V30 346 C 87.038 50.944 41.754 0
M  V30 347 C 86.308 50.446 42.852 0
M  V30 348 C 85.579 51.314 43.686 0
M  V30 349 O 86.325 49.07 43.126 0
M  V30 350 C 86.786 48.113 42.174 0
M  V30 351 C 88.109 48.582 41.561 0
M  V30 352 C 87.999 50.008 41.097 0
M  V30 353 O 88.833 50.415 40.245 0
M  V30 354 C 86.947 46.759 42.826 0
M  V30 355 C 86 46.308 43.76 0
M  V30 356 C 86.118 45.036 44.33 0
M  V30 357 C 87.177 44.201 43.965 0
M  V30 358 C 88.118 44.635 43.028 0
M  V30 359 C 88.002 45.905 42.453 0
M  V30 360 C 85.494 54.795 44.662 0
M  V30 361 O 84.897 53.564 44.268 0
M  V30 362 O 87.427 52.813 40.2 0
M  V30 363 H 87.013 53.529 39.76 0
M  V30 364 C 85.811 54.576 41.693 0
M  V30 365 C 84.427 54.647 41.086 0
M  V30 366 C 83.334 54.104 41.782 0
M  V30 367 C 82.031 54.227 41.281 0
M  V30 368 C 81.825 54.866 40.048 0
M  V30 369 C 82.908 55.389 39.337 0
M  V30 370 C 84.206 55.294 39.854 0
M  V30 371 O 85.277 55.838 39.144 0
M  V30 372 H 85.117 56.448 38.451 0
M  V30 373 C 80.866 53.735 42.1 0
M  V30 374 C 81.013 52.254 42.382 0
M  V30 375 C 82.207 51.61 41.998 0
M  V30 376 C 82.422 50.264 42.302 0
M  V30 377 C 81.454 49.542 42.999 0
M  V30 378 C 80.266 50.162 43.389 0
M  V30 379 C 80.031 51.511 43.088 0
M  V30 380 O 78.817 52.063 43.502 0
M  V30 381 H 78.115 52.163 42.889 0
M  V30 382 C 84.819 50.768 44.881 0
M  V30 383 C 85.509 51.045 46.201 0
M  V30 384 C 85.076 52.128 46.993 0
M  V30 385 C 85.642 52.367 48.258 0
M  V30 386 C 86.646 51.512 48.732 0
M  V30 387 C 87.087 50.442 47.955 0
M  V30 388 C 86.516 50.19 46.7 0
M  V30 389 O 86.94 49.087 45.963 0
M  V30 390 H 87.593 49.19 45.299 0
M  V30 391 C 85.12 53.479 49.135 0
M  V30 392 C 84.962 54.766 48.361 0
M  V30 393 C 86.105 55.473 47.94 0
M  V30 394 C 85.979 56.65 47.197 0
M  V30 395 C 84.712 57.137 46.868 0
M  V30 396 C 83.568 56.444 47.28 0
M  V30 397 C 83.685 55.256 48.022 0
M  V30 398 O 82.541 54.567 48.423 0
M  V30 399 H 82.079 54.03 47.81 0
M  V30 400 C 84.813 51.799 44.054 0
M  V30 401 C 84.955 52.888 43.163 0
M  V30 402 C 86.092 52.964 42.328 0
M  V30 403 C 87.069 51.937 42.365 0
M  V30 404 C 86.814 50.777 43.124 0
M  V30 405 C 85.706 50.712 43.99 0
M  V30 406 O 87.686 49.683 43.029 0
M  V30 407 C 88.64 49.564 41.975 0
M  V30 408 C 89.378 50.893 41.786 0
M  V30 409 C 88.401 52.032 41.696 0
M  V30 410 O 88.794 53.104 41.166 0
M  V30 411 C 89.614 48.447 42.27 0
M  V30 412 C 90.229 48.362 43.53 0
M  V30 413 C 91.094 47.303 43.826 0
M  V30 414 C 91.344 46.316 42.868 0
M  V30 415 C 90.729 46.385 41.616 0
M  V30 416 C 89.861 47.44 41.318 0
M  V30 417 C 83.929 52.314 46.295 0
M  V30 418 O 83.771 51.775 44.987 0
M  V30 419 O 86.2 54.056 41.462 0
M  V30 420 H 86.993 54.199 40.985 0
M  V30 421 C 83.842 53.909 43.003 0
M  V30 422 C 84.321 55.288 43.402 0
M  V30 423 C 84.669 55.543 44.738 0
M  V30 424 C 85.192 56.787 45.119 0
M  V30 425 C 85.328 57.799 44.157 0
M  V30 426 C 84.963 57.564 42.829 0
M  V30 427 C 84.471 56.31 42.444 0
M  V30 428 O 84.129 56.079 41.111 0
M  V30 429 H 84.446 55.314 40.672 0
M  V30 430 C 85.66 56.999 46.535 0
M  V30 431 C 85.116 55.909 47.436 0
M  V30 432 C 86 54.911 47.894 0
M  V30 433 C 85.565 53.926 48.784 0
M  V30 434 C 84.245 53.927 49.237 0
M  V30 435 C 83.356 54.907 48.794 0
M  V30 436 C 83.774 55.9 47.897 0
M  V30 437 O 82.828 56.844 47.491 0
M  V30 438 H 82.898 57.242 46.646 0
M  V30 439 C 85.458 49.468 44.823 0
M  V30 440 C 84.585 48.448 44.121 0
M  V30 441 C 85.191 47.405 43.391 0
M  V30 442 C 84.414 46.398 42.793 0
M  V30 443 C 83.019 46.436 42.93 0
M  V30 444 C 82.408 47.466 43.644 0
M  V30 445 C 83.179 48.463 44.256 0
M  V30 446 O 82.549 49.455 45.004 0
M  V30 447 H 82.978 49.825 45.75 0
M  V30 448 C 85.072 45.242 42.08 0
M  V30 449 C 86.197 44.656 42.897 0
M  V30 450 C 87.532 44.873 42.506 0
M  V30 451 C 88.588 44.364 43.269 0
M  V30 452 C 88.323 43.629 44.426 0
M  V30 453 C 87.001 43.406 44.826 0
M  V30 454 C 85.934 43.92 44.07 0
M  V30 455 O 84.619 43.699 44.478 0
M  V30 456 H 84.084 44.421 44.745 0
M  V30 457 C 85.881 49.029 44.296 0
M  V30 458 C 84.942 48.007 44.568 0
M  V30 459 C 83.582 48.204 44.245 0
M  V30 460 C 83.168 49.41 43.624 0
M  V30 461 C 84.146 50.332 43.2 0
M  V30 462 C 85.497 50.163 43.555 0
M  V30 463 O 83.763 51.44 42.43 0
M  V30 464 C 82.489 51.517 41.794 0
M  V30 465 C 81.388 51.106 42.777 0
M  V30 466 C 81.739 49.807 43.448 0
M  V30 467 O 80.804 49.146 43.972 0
M  V30 468 C 82.245 52.914 41.271 0
M  V30 469 C 81.036 53.572 41.551 0
M  V30 470 C 80.825 54.884 41.11 0
M  V30 471 C 81.823 55.55 40.395 0
M  V30 472 C 83.034 54.909 40.12 0
M  V30 473 C 83.25 53.6 40.562 0
M  V30 474 C 87.701 49.692 45.818 0
M  V30 475 O 87.204 48.914 44.734 0
M  V30 476 O 82.682 47.173 44.529 0
M  V30 477 H 82.585 46.866 45.409 0
M  V30 478 C 85.398 46.654 45.086 0
M  V30 479 C 85.985 45.823 43.967 0
M  V30 480 C 87.279 46.103 43.499 0
M  V30 481 C 87.879 45.298 42.52 0
M  V30 482 C 87.157 44.227 41.974 0
M  V30 483 C 85.86 43.953 42.415 0
M  V30 484 C 85.274 44.738 43.417 0
M  V30 485 O 83.986 44.443 43.865 0
M  V30 486 H 83.755 43.56 44.077 0
M  V30 487 C 89.308 45.553 42.115 0
M  V30 488 C 89.615 47.035 42.181 0
M  V30 489 C 88.878 47.912 41.359 0
M  V30 490 C 89.072 49.293 41.435 0
M  V30 491 C 89.997 49.82 42.336 0
M  V30 492 C 90.736 48.967 43.158 0
M  V30 493 C 90.558 47.579 43.091 0
M  V30 494 O 91.337 46.786 43.937 0
M  V30 495 H 91.64 47.132 44.754 0
M  V30 496 C 86.536 51.177 43.114 0
M  V30 497 C 86.127 52.608 43.395 0
M  V30 498 C 85.835 52.996 44.718 0
M  V30 499 C 85.527 54.333 45.026 0
M  V30 500 C 85.516 55.288 43.999 0
M  V30 501 C 85.797 54.914 42.686 0
M  V30 502 C 86.12 53.586 42.377 0
M  V30 503 O 86.444 53.248 41.065 0
M  V30 504 H 86.636 53.92 40.441 0
M  V30 505 C 85.292 54.757 46.456 0
M  V30 506 C 84.872 56.204 46.541 0
M  V30 507 C 85.609 57.188 45.854 0
M  V30 508 C 85.216 58.529 45.897 0
M  V30 509 C 84.088 58.904 46.629 0
M  V30 510 C 83.346 57.937 47.317 0
M  V30 511 C 83.729 56.585 47.273 0
M  V30 512 O 82.982 55.626 47.954 0
M  V30 513 H 83.386 55.102 48.618 0
M  V30 514 C 85.008 51.807 43.778 0
M  V30 515 C 84.62 53.132 43.453 0
M  V30 516 C 83.321 53.397 42.974 0
M  V30 517 C 82.409 52.338 42.787 0
M  V30 518 C 82.779 51.018 43.133 0
M  V30 519 C 84.082 50.761 43.604 0
M  V30 520 O 84.468 49.443 43.901 0
M  V30 521 C 83.542 48.358 44.013 0
M  V30 522 C 82.444 48.483 42.952 0
M  V30 523 C 81.859 49.858 43.039 0
M  V30 524 O 80.609 49.996 43.111 0
M  V30 525 C 84.27 47.041 43.88 0
M  V30 526 C 83.551 45.834 43.886 0
M  V30 527 C 84.219 44.614 43.745 0
M  V30 528 C 85.607 44.591 43.586 0
M  V30 529 C 86.329 45.787 43.558 0
M  V30 530 C 85.664 47.009 43.698 0
M  V30 531 O 85.509 54.203 43.588 0
M  V30 532 H 85.492 54.732 44.362 0
M  V30 533 O 81.16 52.625 42.225 0
M  V30 534 H 80.813 53.494 42.271 0
M  V30 535 C 86.391 51.505 44.333 0
M  V30 536 C 87.195 50.574 46.569 0
M  V30 537 C 87.196 50.598 47.971 0
M  V30 538 C 86.44 51.547 48.66 0
M  V30 539 C 85.679 52.49 47.958 0
M  V30 540 C 85.679 52.471 46.555 0
M  V30 541 C 86.409 51.498 45.847 0
M  V30 542 O 87.983 49.641 45.897 0
M  V30 543 H 88.908 49.616 46.043 0
M  V30 544 C 84.915 53.551 48.707 0
M  V30 545 C 84.929 54.849 47.939 0
M  V30 546 C 86.111 55.272 47.303 0
M  V30 547 C 86.131 56.455 46.559 0
M  V30 548 C 84.971 57.222 46.433 0
M  V30 549 C 83.788 56.806 47.049 0
M  V30 550 C 83.757 55.621 47.8 0
M  V30 551 O 82.568 55.211 48.403 0
M  V30 552 H 82.064 54.519 48.023 0
M  V30 553 C 82.932 54.818 42.602 0
M  V30 554 C 83.2 55.094 41.136 0
M  V30 555 C 84.534 55.319 40.743 0
M  V30 556 C 84.851 55.611 39.415 0
M  V30 557 C 83.842 55.685 38.457 0
M  V30 558 C 82.516 55.461 38.82 0
M  V30 559 C 82.178 55.157 40.145 0
M  V30 560 O 80.828 54.919 40.415 0
M  V30 561 H 80.401 55.379 41.11 0
M  V30 562 C 86.681 51.726 42.684 0
M  V30 563 C 87.607 50.895 42.007 0
M  V30 564 C 88.49 50.071 42.735 0
M  V30 565 C 88.474 50.093 44.145 0
M  V30 566 C 87.535 50.901 44.827 0
M  V30 567 C 86.661 51.727 44.092 0
M  V30 568 O 85.762 52.567 44.769 0
M  V30 569 C 85.478 52.453 46.167 0
M  V30 570 C 86.756 52.119 46.944 0
M  V30 571 C 87.399 50.929 46.305 0
M  V30 572 O 87.736 49.947 47.02 0
M  V30 573 C 84.86 53.734 46.675 0
M  V30 574 C 84.117 53.734 47.868 0
M  V30 575 C 83.559 54.921 48.351 0
M  V30 576 C 83.746 56.117 47.653 0
M  V30 577 C 84.5 56.131 46.477 0
M  V30 578 C 85.061 54.947 45.991 0
M  V30 579 O 87.681 50.873 40.61 0
M  V30 580 H 88.226 51.488 40.16 0
M  V30 581 O 89.424 49.332 44.835 0
M  V30 582 H 89.338 48.4 44.876 0
M  V30 583 C 85.693 52.594 41.918 0
M  V30 584 C 83.194 52.736 41.421 0
M  V30 585 C 81.877 52.318 41.66 0
M  V30 586 C 81.613 51.325 42.604 0
M  V30 587 C 82.661 50.732 43.319 0
M  V30 588 C 83.981 51.147 43.08 0
M  V30 589 C 84.258 52.171 42.155 0
M  V30 590 O 83.442 53.705 40.45 0
M  V30 591 H 82.764 54.298 40.195 0
M  V30 592 C 82.375 49.618 44.291 0
M  V30 593 C 83.369 48.498 44.114 0
M  V30 594 C 84.701 48.673 44.531 0
M  V30 595 C 85.626 47.633 44.406 0
M  V30 596 C 85.23 46.405 43.873 0
M  V30 597 C 83.908 46.214 43.466 0
M  V30 598 C 82.971 47.251 43.586 0
M  V30 599 O 81.65 47.047 43.186 0
M  V30 600 H 81.034 47.751 43.225 0
M  V30 601 C 89.498 49.209 41.994 0
M  V30 602 C 89.279 47.737 42.283 0
M  V30 603 C 88.146 47.117 41.721 0
M  V30 604 C 87.864 45.774 41.972 0
M  V30 605 C 88.708 45.024 42.788 0
M  V30 606 C 89.839 45.613 43.352 0
M  V30 607 C 90.144 46.957 43.104 0
M  V30 608 O 91.312 47.458 43.687 0
M  V30 609 H 92.142 47.091 43.458 0
M  V30 610 C 86.366 52.567 43.498 0
M  V30 611 C 87.068 51.349 43.322 0
M  V30 612 C 87.532 50.625 44.44 0
M  V30 613 C 87.324 51.128 45.741 0
M  V30 614 C 86.601 52.33 45.925 0
M  V30 615 C 86.148 53.05 44.802 0
M  V30 616 O 85.474 54.269 44.982 0
M  V30 617 C 84.972 54.713 46.247 0
M  V30 618 C 85.955 54.35 47.366 0
M  V30 619 C 86.273 52.891 47.259 0
M  V30 620 O 86.176 52.16 48.281 0
M  V30 621 C 84.726 56.202 46.212 0
M  V30 622 C 85.431 57.013 45.306 0
M  V30 623 C 85.193 58.39 45.259 0
M  V30 624 C 84.244 58.965 46.107 0
M  V30 625 C 83.522 58.165 46.996 0
M  V30 626 C 83.756 56.788 47.046 0
M  V30 627 O 87.329 50.836 42.047 0
M  V30 628 H 86.652 50.822 41.4 0
M  V30 629 O 87.876 50.433 46.822 0
M  V30 630 H 88.605 49.859 46.687 0
M  V30 631 C 85.824 53.343 42.307 0
M  V30 632 C 83.523 54.447 42.267 0
M  V30 633 C 82.127 54.354 42.181 0
M  V30 634 C 81.511 53.111 42.031 0
M  V30 635 C 82.282 51.944 41.956 0
M  V30 636 C 83.68 52.034 42.039 0
M  V30 637 C 84.312 53.278 42.225 0
M  V30 638 O 84.122 55.7 42.383 0
M  V30 639 H 84.136 56.138 43.21 0
M  V30 640 C 81.615 50.613 41.731 0
M  V30 641 C 80.967 50.127 43.004 0
M  V30 642 C 79.608 50.403 43.245 0
M  V30 643 C 78.984 49.931 44.403 0
M  V30 644 C 79.705 49.171 45.326 0
M  V30 645 C 81.051 48.88 45.092 0
M  V30 646 C 81.688 49.35 43.934 0
M  V30 647 O 83.03 49.045 43.705 0
M  V30 648 H 83.569 48.745 44.41 0
M  V30 649 C 88.31 49.337 44.233 0
M  V30 650 C 87.386 48.189 43.877 0
M  V30 651 C 87.685 47.438 42.723 0
M  V30 652 C 86.86 46.388 42.317 0
M  V30 653 C 85.723 46.068 43.055 0
M  V30 654 C 85.409 46.793 44.204 0
M  V30 655 C 86.229 47.844 44.633 0
M  V30 656 O 85.855 48.497 45.811 0
M  V30 657 H 84.951 48.553 46.048 0
M  V30 658 C 84.65 51.926 44.676 0
M  V30 659 C 85.276 53.181 44.476 0
M  V30 660 C 84.682 54.15 43.641 0
M  V30 661 C 83.472 53.861 42.976 0
M  V30 662 C 82.828 52.62 43.191 0
M  V30 663 C 83.433 51.655 44.021 0
M  V30 664 O 82.819 50.404 44.196 0
M  V30 665 C 81.473 50.124 43.8 0
M  V30 666 C 81.156 50.816 42.469 0
M  V30 667 C 81.518 52.263 42.592 0
M  V30 668 O 80.679 53.142 42.262 0
M  V30 669 C 81.265 48.633 43.691 0
M  V30 670 C 82.331 47.796 43.318 0
M  V30 671 C 82.147 46.413 43.233 0
M  V30 672 C 80.902 45.854 43.531 0
M  V30 673 C 79.841 46.674 43.923 0
M  V30 674 C 80.021 48.058 44.009 0
M  V30 675 O 86.496 53.492 45.086 0
M  V30 676 H 86.559 53.517 46.021 0
M  V30 677 O 82.957 54.808 42.085 0
M  V30 678 H 82.054 54.776 41.837 0
M  V30 679 C 85.254 50.882 45.603 0
M  V30 680 C 87.594 50.099 44.949 0
M  V30 681 C 88.436 49.211 44.266 0
M  V30 682 C 87.899 48.158 43.525 0
M  V30 683 C 86.512 47.973 43.462 0
M  V30 684 C 85.666 48.859 44.148 0
M  V30 685 C 86.193 49.945 44.87 0
M  V30 686 O 88.15 51.125 45.712 0
M  V30 687 H 88.992 51.471 45.49 0
M  V30 688 C 85.941 46.798 42.713 0
M  V30 689 C 86.654 45.528 43.106 0
M  V30 690 C 87.803 45.126 42.402 0
M  V30 691 C 88.495 43.97 42.775 0
M  V30 692 C 88.053 43.21 43.86 0
M  V30 693 C 86.92 43.605 44.575 0
M  V30 694 C 86.217 44.763 44.208 0
M  V30 695 O 85.093 45.154 44.935 0
M  V30 696 H 85.194 45.625 45.738 0
M  V30 697 C 85.382 55.479 43.413 0
M  V30 698 C 85.029 56.478 44.497 0
M  V30 699 C 84.528 55.977 45.715 0
M  V30 700 C 84.153 56.841 46.745 0
M  V30 701 C 84.27 58.219 46.578 0
M  V30 702 C 84.768 58.739 45.385 0
M  V30 703 C 85.16 57.888 44.342 0
M  V30 704 O 85.674 58.493 43.193 0
M  V30 705 H 85.104 58.956 42.612 0
M  V30 706 C 84.779 50.283 44.333 0
M  V30 707 C 86.158 50.606 44.292 0
M  V30 708 C 87.105 49.64 43.894 0
M  V30 709 C 86.685 48.335 43.564 0
M  V30 710 C 85.308 48.013 43.577 0
M  V30 711 C 84.369 48.982 43.983 0
M  V30 712 O 83.006 48.648 44.046 0
M  V30 713 C 82.459 47.46 43.467 0
M  V30 714 C 83.419 46.282 43.664 0
M  V30 715 C 84.773 46.689 43.173 0
M  V30 716 O 85.39 45.943 42.367 0
M  V30 717 C 81.111 47.16 44.078 0
M  V30 718 C 80.007 47.982 43.79 0
M  V30 719 C 78.754 47.699 44.34 0
M  V30 720 C 78.59 46.588 45.172 0
M  V30 721 C 79.675 45.753 45.447 0
M  V30 722 C 80.931 46.032 44.899 0
M  V30 723 O 86.619 51.877 44.65 0
M  V30 724 H 87.525 52.007 44.855 0
M  V30 725 O 87.658 47.377 43.261 0
M  V30 726 H 88.04 46.865 43.947 0
M  V30 727 C 83.737 51.321 44.722 0
M  V30 728 C 82.199 51.935 42.78 0
M  V30 729 C 81.863 52.775 41.709 0
M  V30 730 C 82.644 53.893 41.417 0
M  V30 731 C 83.77 54.192 42.195 0
M  V30 732 C 84.108 53.354 43.269 0
M  V30 733 C 83.349 52.204 43.554 0
M  V30 734 O 81.388 50.841 43.077 0
M  V30 735 H 80.464 50.889 42.929 0
M  V30 736 C 84.573 55.434 41.914 0
M  V30 737 C 85.018 56.076 43.204 0
M  V30 738 C 84.136 56.918 43.905 0
M  V30 739 C 84.521 57.493 45.12 0
M  V30 740 C 85.783 57.226 45.652 0
M  V30 741 C 86.664 56.381 44.972 0
M  V30 742 C 86.289 55.799 43.751 0
M  V30 743 O 87.171 54.95 43.085 0
M  V30 744 H 86.845 54.201 42.626 0
M  V30 745 C 88.583 49.994 43.885 0
M  V30 746 C 88.991 50.612 42.562 0
M  V30 747 C 88.862 52.008 42.421 0
M  V30 748 C 89.189 52.64 41.22 0
M  V30 749 C 89.649 51.891 40.139 0
M  V30 750 C 89.79 50.509 40.256 0
M  V30 751 C 89.477 49.857 41.456 0
M  V30 752 O 89.675 48.474 41.494 0
M  V30 753 H 89.209 47.951 42.115 0
M  V30 754 C 83.632 51.231 43.822 0
M  V30 755 C 83.735 49.824 43.686 0
M  V30 756 C 84.665 49.099 44.46 0
M  V30 757 C 85.52 49.778 45.353 0
M  V30 758 C 85.405 51.179 45.512 0
M  V30 759 C 84.478 51.896 44.73 0
M  V30 760 O 84.398 53.293 44.851 0
M  V30 761 C 85.012 54.028 45.915 0
M  V30 762 C 86.382 53.43 46.253 0
M  V30 763 C 86.212 51.961 46.481 0
M  V30 764 O 86.685 51.438 47.525 0
M  V30 765 C 85.141 55.483 45.531 0
M  V30 766 C 85.152 55.857 44.176 0
M  V30 767 C 85.254 57.204 43.817 0
M  V30 768 C 85.336 58.187 44.806 0
M  V30 769 C 85.305 57.828 46.156 0
M  V30 770 C 85.202 56.482 46.519 0
M  V30 771 O 82.932 49.119 42.784 0
M  V30 772 H 82.159 48.683 43.086 0
M  V30 773 O 86.492 49.04 46.037 0
M  V30 774 H 86.39 48.114 46.141 0
M  V30 775 C 82.609 52.027 43.026 0
M  V30 776 C 82.733 54.308 41.888 0
M  V30 777 C 83.367 55.202 41.014 0
M  V30 778 C 84.537 54.83 40.35 0
M  V30 779 C 85.094 53.561 40.557 0
M  V30 780 C 84.463 52.665 41.434 0
M  V30 781 C 83.264 53.015 42.083 0
M  V30 782 O 81.584 54.71 42.568 0
M  V30 783 H 81.356 54.306 43.381 0
M  V30 784 C 86.39 53.189 39.887 0
M  V30 785 C 87.318 52.522 40.871 0
M  V30 786 C 87.074 52.641 42.251 0
M  V30 787 C 87.904 52 43.175 0
M  V30 788 C 88.978 51.226 42.732 0
M  V30 789 C 89.223 51.089 41.364 0
M  V30 790 C 88.397 51.729 40.427 0
M  V30 791 O 88.645 51.578 39.063 0
M  V30 792 H 88.056 51.078 38.532 0
M  V30 793 C 84.783 47.596 44.28 0
M  V30 794 C 86.025 47.233 43.49 0
M  V30 795 C 86.623 48.24 42.706 0
M  V30 796 C 87.749 47.969 41.928 0
M  V30 797 C 88.299 46.689 41.917 0
M  V30 798 C 87.729 45.677 42.688 0
M  V30 799 C 86.604 45.931 43.484 0
M  V30 800 O 86.116 44.867 44.246 0
M  V30 801 H 85.315 44.447 44.005 0
M  V30 802 C 85.225 52.032 44.282 0
M  V30 803 C 84.426 53.189 44.449 0
M  V30 804 C 84.411 54.195 43.46 0
M  V30 805 C 85.219 54.065 42.311 0
M  V30 806 C 86 52.9 42.125 0
M  V30 807 C 86.014 51.904 43.122 0
M  V30 808 O 86.827 50.771 42.962 0
M  V30 809 C 87.452 50.418 41.724 0
M  V30 810 C 87.952 51.675 41.003 0
M  V30 811 C 86.819 52.649 40.914 0
M  V30 812 O 86.535 53.169 39.802 0
M  V30 813 C 88.589 49.456 41.974 0
M  V30 814 C 89.809 49.924 42.492 0
M  V30 815 C 90.858 49.034 42.741 0
M  V30 816 C 90.693 47.67 42.486 0
M  V30 817 C 89.477 47.191 41.991 0
M  V30 818 C 88.426 48.078 41.741 0
M  V30 819 O 83.641 53.374 45.592 0
M  V30 820 H 82.709 53.442 45.515 0
M  V30 821 O 85.25 55.122 41.394 0
M  V30 822 H 84.718 55.089 40.624 0
M  V30 823 C 85.226 50.918 45.318 0
M  V30 824 C 86.05 48.583 44.697 0
M  V30 825 C 85.832 47.328 44.112 0
M  V30 826 C 84.597 47.021 43.541 0
M  V30 827 C 83.559 47.962 43.553 0
M  V30 828 C 83.774 49.219 44.14 0
M  V30 829 C 85.026 49.554 44.688 0
M  V30 830 O 87.28 48.86 45.292 0
M  V30 831 H 87.362 48.852 46.225 0
M  V30 832 C 82.209 47.603 42.991 0
M  V30 833 C 81.112 48.181 43.85 0
M  V30 834 C 80.467 49.367 43.453 0
M  V30 835 C 79.425 49.897 44.219 0
M  V30 836 C 79.009 49.245 45.381 0
M  V30 837 C 79.633 48.06 45.779 0
M  V30 838 C 80.681 47.519 45.019 0
M  V30 839 O 81.29 46.331 45.419 0
M  V30 840 H 82.203 46.319 45.629 0
M  V30 841 C 83.572 55.444 43.669 0
M  V30 842 C 84.266 56.422 44.596 0
M  V30 843 C 84.188 56.183 45.982 0
M  V30 844 C 84.775 57.06 46.895 0
M  V30 845 C 85.45 58.191 46.442 0
M  V30 846 C 85.545 58.447 45.075 0
M  V30 847 C 84.971 57.574 44.142 0
M  V30 848 O 85.14 57.893 42.792 0
M  V30 849 H 85.067 58.781 42.508 0
M  V30 850 C 85.644 51.44 43.318 0
M  V30 851 C 85.172 52.771 43.2 0
M  V30 852 C 85.675 53.619 42.192 0
M  V30 853 C 86.675 53.154 41.314 0
M  V30 854 C 87.132 51.819 41.409 0
M  V30 855 C 86.629 50.98 42.424 0
M  V30 856 O 87.119 49.67 42.551 0
M  V30 857 C 87.911 49.024 41.55 0
M  V30 858 C 88.894 50.02 40.925 0
M  V30 859 C 88.126 51.225 40.48 0
M  V30 860 O 88.278 51.658 39.307 0
M  V30 861 C 88.646 47.85 42.15 0
M  V30 862 C 88.047 46.578 42.172 0
M  V30 863 C 88.731 45.485 42.711 0
M  V30 864 C 90.021 45.65 43.221 0
M  V30 865 C 90.634 46.905 43.185 0
M  V30 866 C 89.954 48.001 42.646 0
M  V30 867 O 84.209 53.282 44.076 0
M  V30 868 H 83.313 53.343 43.805 0
M  V30 869 O 87.217 54.049 40.385 0
M  V30 870 H 88.049 54.448 40.549 0
M  V30 871 C 85.086 50.496 44.373 0
M  V30 872 C 86.774 49.754 46.138 0
M  V30 873 C 87.403 49.938 47.377 0
M  V30 874 C 87.072 51.028 48.182 0
M  V30 875 C 86.111 51.955 47.757 0
M  V30 876 C 85.481 51.775 46.515 0
M  V30 877 C 85.781 50.661 45.709 0
M  V30 878 O 87.142 48.677 45.333 0
M  V30 879 H 87.145 47.809 45.684 0
M  V30 880 C 85.804 53.163 48.601 0
M  V30 881 C 85.614 54.379 47.729 0
M  V30 882 C 86.527 54.645 46.692 0
M  V30 883 C 86.346 55.748 45.853 0
M  V30 884 C 85.248 56.591 46.033 0
M  V30 885 C 84.327 56.331 47.051 0
M  V30 886 C 84.5 55.227 47.901 0
M  V30 887 O 83.57 54.972 48.908 0
M  V30 888 H 83.781 54.379 49.602 0
M  V30 889 C 85.18 55.053 42.099 0
M  V30 890 C 83.975 55.159 41.186 0
M  V30 891 C 82.717 54.808 41.714 0
M  V30 892 C 81.569 54.852 40.921 0
M  V30 893 C 81.656 55.245 39.588 0
M  V30 894 C 82.888 55.602 39.043 0
M  V30 895 C 84.051 55.575 39.825 0
M  V30 896 O 85.238 55.976 39.206 0
M  V30 897 H 85.207 56.488 38.423 0
M  V30 898 C 86.204 52.496 43.72 0
M  V30 899 C 86.414 53.759 44.326 0
M  V30 900 C 86.667 53.852 45.711 0
M  V30 901 C 86.683 52.686 46.504 0
M  V30 902 C 86.5 51.42 45.901 0
M  V30 903 C 86.241 51.337 44.519 0
M  V30 904 O 86.009 50.084 43.928 0
M  V30 905 C 86.281 48.841 44.583 0
M  V30 906 C 85.911 48.931 46.067 0
M  V30 907 C 86.575 50.14 46.648 0
M  V30 908 O 87.248 50.028 47.707 0
M  V30 909 C 85.524 47.724 43.907 0
M  V30 910 C 86.204 46.574 43.469 0
M  V30 911 C 85.504 45.53 42.859 0
M  V30 912 C 84.12 45.62 42.69 0
M  V30 913 C 83.431 46.749 43.14 0
M  V30 914 C 84.128 47.796 43.752 0
M  V30 915 O 86.368 54.941 43.581 0
M  V30 916 H 85.604 55.484 43.61 0
M  V30 917 O 86.846 52.822 47.887 0
M  V30 918 H 87.138 52.093 48.398 0
M  V30 919 C 85.969 52.37 42.222 0
M  V30 920 C 87.455 52.657 40.167 0
M  V30 921 C 88.66 52.422 39.492 0
M  V30 922 C 89.678 51.686 40.1 0
M  V30 923 C 89.508 51.181 41.396 0
M  V30 924 C 88.303 51.418 42.076 0
M  V30 925 C 87.256 52.128 41.461 0
M  V30 926 O 86.463 53.423 39.557 0
M  V30 927 H 85.652 53.026 39.307 0
M  V30 928 C 90.633 50.443 42.07 0
M  V30 929 C 90.276 48.988 42.247 0
M  V30 930 C 89.343 48.388 41.382 0
M  V30 931 C 89.027 47.033 41.51 0
M  V30 932 C 89.644 46.261 42.496 0
M  V30 933 C 90.581 46.842 43.354 0
M  V30 934 C 90.905 48.202 43.235 0
M  V30 935 O 91.849 48.769 44.09 0
M  V30 936 H 92.421 49.442 43.777 0
M  V30 937 C 86.859 55.217 46.35 0
M  V30 938 C 85.528 55.853 46.696 0
M  V30 939 C 84.759 55.258 47.715 0
M  V30 940 C 83.509 55.771 48.064 0
M  V30 941 C 83.003 56.888 47.401 0
M  V30 942 C 83.747 57.498 46.393 0
M  V30 943 C 85.008 57.004 46.035 0
M  V30 944 O 85.697 57.694 45.034 0
M  V30 945 H 86.212 58.444 45.253 0
M  V30 946 C 85.29 51.182 44.263 0
M  V30 947 C 86.103 52.333 44.099 0
M  V30 948 C 85.565 53.5 43.517 0
M  V30 949 C 84.232 53.514 43.052 0
M  V30 950 C 83.455 52.331 43.108 0
M  V30 951 C 83.969 51.204 43.777 0
M  V30 952 O 83.158 50.075 43.953 0
M  V30 953 C 81.747 50.11 43.759 0
M  V30 954 C 81.441 50.837 42.443 0
M  V30 955 C 82.142 52.166 42.413 0
M  V30 956 O 81.665 53.071 41.679 0
M  V30 957 C 81.201 48.697 43.87 0
M  V30 958 C 79.821 48.54 44.095 0
M  V30 959 C 79.26 47.267 44.236 0
M  V30 960 C 80.069 46.133 44.149 0
M  V30 961 C 81.439 46.27 43.92 0
M  V30 962 C 82.007 47.54 43.78 0
M  V30 963 O 87.441 52.367 44.506 0
M  V30 964 H 88.126 52.258 43.876 0
M  V30 965 O 83.713 54.717 42.566 0
M  V30 966 H 82.789 54.813 42.443 0
M  V30 967 C 85.774 49.92 44.959 0
M  V30 968 C 86.081 47.551 44.077 0
M  V30 969 C 86.657 46.654 43.164 0
M  V30 970 C 87.501 47.12 42.154 0
M  V30 971 C 87.771 48.484 42.042 0
M  V30 972 C 87.2 49.386 42.944 0
M  V30 973 C 86.357 48.931 43.975 0
M  V30 974 O 85.24 47.074 45.08 0
M  V30 975 H 84.8 46.253 44.972 0
M  V30 976 C 86.418 54.754 43.432 0
M  V30 977 C 86.05 55.737 44.524 0
M  V30 978 C 86.351 55.382 45.855 0
M  V30 979 C 86.067 56.249 46.911 0
M  V30 980 C 85.476 57.485 46.66 0
M  V30 981 C 85.161 57.854 45.352 0
M  V30 982 C 85.436 56.997 44.278 0
M  V30 983 O 85.074 57.441 43.003 0
M  V30 984 H 85.237 58.329 42.752 0
M  V30 985 C 85.928 50.406 44.099 0
M  V30 986 C 86.617 49.631 43.132 0
M  V30 987 C 87.651 50.212 42.368 0
M  V30 988 C 87.975 51.576 42.53 0
M  V30 989 C 87.212 52.381 43.411 0
M  V30 990 C 86.247 51.77 44.235 0
M  V30 991 O 85.581 52.534 45.202 0
M  V30 992 C 86.035 53.824 45.604 0
M  V30 993 C 86.371 54.648 44.352 0
M  V30 994 C 87.297 53.873 43.458 0
M  V30 995 O 88.031 54.518 42.665 0
M  V30 996 C 85.006 54.439 46.536 0
M  V30 997 C 84.35 53.589 47.446 0
M  V30 998 C 83.371 54.088 48.31 0
M  V30 999 C 83.037 55.443 48.282 0
M  V30 1000 C 83.683 56.301 47.391 0
M  V30 1001 C 84.661 55.809 46.522 0
M  V30 1002 O 86.316 48.285 42.901 0
M  V30 1003 H 85.441 47.972 43.024 0
M  V30 1004 O 89.065 52.087 41.82 0
M  V30 1005 H 89.054 52.973 41.518 0
M  V30 1006 C 84.863 49.827 45.017 0
M  V30 1007 C 83.027 48.392 43.99 0
M  V30 1008 C 81.808 48.277 43.304 0
M  V30 1009 C 81.098 49.42 42.932 0
M  V30 1010 C 81.595 50.685 43.246 0
M  V30 1011 C 82.806 50.811 43.932 0
M  V30 1012 C 83.539 49.669 44.303 0
M  V30 1013 O 83.726 47.244 44.358 0
M  V30 1014 H 83.347 46.639 44.965 0
M  V30 1015 C 88.442 49.347 41.402 0
M  V30 1016 C 89.382 48.419 42.146 0
M  V30 1017 C 90.456 49.001 42.851 0
M  V30 1018 C 91.345 48.213 43.581 0
M  V30 1019 C 91.181 46.83 43.622 0
M  V30 1020 C 90.131 46.232 42.925 0
M  V30 1021 C 89.229 47.005 42.183 0
M  V30 1022 O 88.216 46.322 41.505 0
M  V30 1023 H 87.338 46.651 41.519 0
M  V30 1024 C 85.654 51.058 43.694 0
M  V30 1025 C 85.343 52.437 43.575 0
M  V30 1026 C 85.844 53.182 42.488 0
M  V30 1027 C 86.693 52.573 41.539 0
M  V30 1028 C 87.099 51.228 41.719 0
M  V30 1029 C 86.519 50.469 42.753 0
M  V30 1030 O 86.813 49.104 42.857 0
M  V30 1031 C 87.432 48.372 41.802 0
M  V30 1032 C 88.623 49.178 41.266 0
M  V30 1033 C 88.19 50.577 40.931 0
M  V30 1034 O 88.861 51.216 40.079 0
M  V30 1035 C 87.756 46.974 42.298 0
M  V30 1036 C 89.111 46.61 42.401 0
M  V30 1037 C 89.476 45.327 42.822 0
M  V30 1038 C 88.493 44.392 43.15 0
M  V30 1039 C 87.144 44.739 43.06 0
M  V30 1040 C 86.771 46.019 42.637 0
M  V30 1041 O 84.536 53.104 44.504 0
M  V30 1042 H 84.303 52.685 45.309 0
M  V30 1043 O 87.092 53.323 40.429 0
M  V30 1044 H 87.854 53.866 40.479 0
M  V30 1045 C 85.081 50.172 44.79 0
M  V30 1046 C 83.838 48.018 44.241 0
M  V30 1047 C 82.693 47.356 43.775 0
M  V30 1048 C 81.566 48.083 43.387 0
M  V30 1049 C 81.571 49.476 43.468 0
M  V30 1050 C 82.705 50.146 43.934 0
M  V30 1051 C 83.853 49.427 44.317 0
M  V30 1052 O 84.956 47.281 44.627 0
M  V30 1053 H 85.242 46.555 44.108 0
M  V30 1054 C 85.428 54.634 42.322 0
M  V30 1055 C 84.151 54.745 41.513 0
M  V30 1056 C 82.939 54.414 42.152 0
M  V30 1057 C 81.721 54.519 41.479 0
M  V30 1058 C 81.689 54.954 40.156 0
M  V30 1059 C 82.878 55.279 39.501 0
M  V30 1060 C 84.111 55.177 40.158 0
M  V30 1061 O 85.252 55.508 39.421 0
M  V30 1062 H 85.173 55.752 38.519 0
M  V30 1063 C 86.285 49.989 44.018 0
M  V30 1064 C 86.294 51.396 43.846 0
M  V30 1065 C 87.095 51.979 42.842 0
M  V30 1066 C 87.925 51.171 42.036 0
M  V30 1067 C 88.006 49.779 42.282 0
M  V30 1068 C 87.133 49.197 43.221 0
M  V30 1069 O 87.112 47.805 43.376 0
M  V30 1070 C 87.708 46.921 42.43 0
M  V30 1071 C 89.109 47.439 42.075 0
M  V30 1072 C 89.037 48.885 41.671 0
M  V30 1073 O 89.945 49.337 40.926 0
M  V30 1074 C 87.652 45.506 42.977 0
M  V30 1075 C 86.434 45.057 43.52 0
M  V30 1076 C 86.326 43.775 44.067 0
M  V30 1077 C 87.429 42.921 44.074 0
M  V30 1078 C 88.644 43.348 43.533 0
M  V30 1079 C 88.76 44.63 42.987 0
M  V30 1080 O 85.521 52.251 44.639 0
M  V30 1081 H 84.688 51.967 44.961 0
M  V30 1082 O 88.632 51.779 40.994 0
M  V30 1083 H 88.427 51.571 40.104 0
M  V30 1084 C 85.383 49.284 45.02 0
M  V30 1085 C 82.994 49.721 44.255 0
M  V30 1086 C 81.795 49.271 43.682 0
M  V30 1087 C 81.676 47.953 43.237 0
M  V30 1088 C 82.755 47.077 43.353 0
M  V30 1089 C 83.955 47.515 43.918 0
M  V30 1090 C 84.086 48.837 44.383 0
M  V30 1091 O 83.1 51.04 44.694 0
M  V30 1092 H 83.756 51.273 45.322 0
M  V30 1093 C 87.026 53.478 42.608 0
M  V30 1094 C 85.772 53.852 41.842 0
M  V30 1095 C 84.664 54.31 42.583 0
M  V30 1096 C 83.485 54.698 41.946 0
M  V30 1097 C 83.389 54.636 40.558 0
M  V30 1098 C 84.47 54.178 39.804 0
M  V30 1099 C 85.662 53.78 40.425 0
M  V30 1100 O 86.688 53.321 39.595 0
M  V30 1101 H 87.407 52.843 39.96 0
M  V30 1102 C 86.176 52.098 43.126 0
M  V30 1103 C 86.546 50.745 42.918 0
M  V30 1104 C 86.661 49.868 44.017 0
M  V30 1105 C 86.453 50.342 45.33 0
M  V30 1106 C 86.198 51.718 45.55 0
M  V30 1107 C 85.992 52.562 44.443 0
M  V30 1108 O 85.609 53.893 44.65 0
M  V30 1109 C 85.124 54.363 45.905 0
M  V30 1110 C 86.047 53.85 47.021 0
M  V30 1111 C 86.226 52.363 46.899 0
M  V30 1112 O 86.535 51.717 47.934 0
M  V30 1113 C 84.957 55.87 45.835 0
M  V30 1114 C 85.564 56.551 44.764 0
M  V30 1115 C 85.473 57.942 44.659 0
M  V30 1116 C 84.77 58.672 45.618 0
M  V30 1117 C 84.156 58.012 46.684 0
M  V30 1118 C 84.245 56.621 46.797 0
M  V30 1119 O 86.801 50.227 41.644 0
M  V30 1120 H 86.19 50.373 40.948 0
M  V30 1121 O 86.487 49.42 46.38 0
M  V30 1122 H 86.852 49.664 47.208 0
M  V30 1123 C 85.949 53.079 41.986 0
M  V30 1124 C 83.996 54.626 41.463 0
M  V30 1125 C 82.621 54.836 41.278 0
M  V30 1126 C 81.725 53.77 41.381 0
M  V30 1127 C 82.194 52.487 41.662 0
M  V30 1128 C 83.562 52.266 41.843 0
M  V30 1129 C 84.476 53.332 41.755 0
M  V30 1130 O 84.88 55.698 41.355 0
M  V30 1131 H 84.662 56.434 40.818 0
M  V30 1132 C 86.968 48.401 43.773 0
M  V30 1133 C 88.35 48.226 43.176 0
M  V30 1134 C 89.372 49.086 43.625 0
M  V30 1135 C 90.675 48.966 43.142 0
M  V30 1136 C 90.984 47.987 42.2 0
M  V30 1137 C 89.986 47.13 41.734 0
M  V30 1138 C 88.67 47.236 42.205 0
M  V30 1139 O 87.733 46.347 41.673 0
M  V30 1140 H 87.816 45.427 41.833 0
M  V30 1141 C 85.565 51.213 44.411 0
M  V30 1142 C 84.709 52.339 44.518 0
M  V30 1143 C 84.888 53.446 43.663 0
M  V30 1144 C 85.947 53.459 42.729 0
M  V30 1145 C 86.872 52.388 42.699 0
M  V30 1146 C 86.628 51.249 43.489 0
M  V30 1147 O 87.464 50.131 43.368 0
M  V30 1148 C 88.367 49.966 42.278 0
M  V30 1149 C 89.129 51.28 42.057 0
M  V30 1150 C 88.162 52.425 41.943 0
M  V30 1151 O 88.531 53.452 41.317 0
M  V30 1152 C 89.23 48.744 42.535 0
M  V30 1153 C 88.895 47.549 41.871 0
M  V30 1154 C 89.631 46.381 42.088 0
M  V30 1155 C 90.716 46.39 42.966 0
M  V30 1156 C 91.066 47.568 43.628 0
M  V30 1157 C 90.333 48.74 43.418 0
M  V30 1158 O 83.667 52.399 45.45 0
M  V30 1159 H 83.478 51.657 45.99 0
M  V30 1160 O 86.032 54.535 41.84 0
M  V30 1161 H 86.869 54.876 41.596 0
M  V30 1162 C 85.379 49.951 45.238 0
M  V30 1163 C 84.984 47.732 44.053 0
M  V30 1164 C 84.13 46.839 43.387 0
M  V30 1165 C 82.782 47.155 43.205 0
M  V30 1166 C 82.275 48.36 43.692 0
M  V30 1167 C 83.115 49.254 44.36 0
M  V30 1168 C 84.479 48.956 44.54 0
M  V30 1169 O 86.327 47.404 44.23 0
M  V30 1170 H 86.988 47.853 43.739 0
M  V30 1171 C 83.909 54.605 43.726 0
M  V30 1172 C 84.464 55.742 44.561 0
M  V30 1173 C 84.536 55.555 45.957 0
M  V30 1174 C 85.061 56.546 46.787 0
M  V30 1175 C 85.522 57.742 46.242 0
M  V30 1176 C 85.453 57.952 44.864 0
M  V30 1177 C 84.926 56.971 44.013 0
M  V30 1178 O 84.881 57.271 42.649 0
M  V30 1179 H 84.077 57.554 42.258 0
M  V30 1180 C 85.062 51.989 44.165 0
M  V30 1181 C 85.707 53.239 43.978 0
M  V30 1182 C 85.024 54.297 43.344 0
M  V30 1183 C 83.714 54.106 42.852 0
M  V30 1184 C 83.113 52.826 42.933 0
M  V30 1185 C 83.765 51.806 43.65 0
M  V30 1186 O 83.119 50.579 43.849 0
M  V30 1187 C 81.722 50.405 43.625 0
M  V30 1188 C 81.349 51.039 42.278 0
M  V30 1189 C 81.855 52.453 42.216 0
M  V30 1190 O 81.272 53.257 41.442 0
M  V30 1191 C 81.38 48.933 43.773 0
M  V30 1192 C 82.426 47.998 43.655 0
M  V30 1193 C 82.172 46.627 43.751 0
M  V30 1194 C 80.872 46.169 43.971 0
M  V30 1195 C 79.824 47.083 44.098 0
M  V30 1196 C 80.07 48.456 44.001 0
M  V30 1197 O 87.016 53.476 44.411 0
M  V30 1198 H 87.722 53.473 43.795 0
M  V30 1199 O 83.042 55.207 42.314 0
M  V30 1200 H 82.654 55.149 41.463 0
M  V30 1201 C 85.704 50.831 44.914 0
M  V30 1202 C 86.941 50.515 47.117 0
M  V30 1203 C 87.126 50.837 48.47 0
M  V30 1204 C 86.33 51.81 49.078 0
M  V30 1205 C 85.349 52.473 48.34 0
M  V30 1206 C 85.16 52.162 46.991 0
M  V30 1207 C 85.946 51.175 46.367 0
M  V30 1208 O 87.743 49.543 46.521 0
M  V30 1209 H 87.431 48.663 46.438 0
M  V30 1210 C 85.691 55.657 43.233 0
M  V30 1211 C 85.28 56.56 44.379 0
M  V30 1212 C 84.765 55.951 45.542 0
M  V30 1213 C 84.391 56.716 46.647 0
M  V30 1214 C 84.524 58.102 46.614 0
M  V30 1215 C 85.023 58.727 45.471 0
M  V30 1216 C 85.401 57.978 44.349 0
M  V30 1217 O 85.877 58.687 43.243 0
M  V30 1218 H 85.274 59.1 42.657 0
M  V30 1219 C 86.242 52.17 43.384 0
M  V30 1220 C 86.651 50.83 43.165 0
M  V30 1221 C 86.738 49.932 44.25 0
M  V30 1222 C 86.464 50.374 45.562 0
M  V30 1223 C 86.168 51.739 45.798 0
M  V30 1224 C 85.991 52.601 44.7 0
M  V30 1225 O 85.569 53.92 44.917 0
M  V30 1226 C 85.021 54.352 46.16 0
M  V30 1227 C 85.906 53.836 47.303 0
M  V30 1228 C 86.123 52.355 47.159 0
M  V30 1229 O 86.402 51.695 48.193 0
M  V30 1230 C 84.823 55.857 46.113 0
M  V30 1231 C 85.51 56.581 45.12 0
M  V30 1232 C 85.394 57.972 45.043 0
M  V30 1233 C 84.587 58.659 45.951 0
M  V30 1234 C 83.894 57.955 46.938 0
M  V30 1235 C 84.007 56.564 47.023 0
M  V30 1236 O 86.972 50.345 41.892 0
M  V30 1237 H 86.909 49.427 41.711 0
M  V30 1238 O 86.473 49.43 46.594 0
M  V30 1239 H 86.438 49.712 47.486 0
M  V30 1240 C 86.042 53.169 42.255 0
M  V30 1241 C 84.067 54.679 41.704 0
M  V30 1242 C 82.697 54.854 41.457 0
M  V30 1243 C 81.834 53.757 41.459 0
M  V30 1244 C 82.332 52.477 41.701 0
M  V30 1245 C 83.695 52.29 41.945 0
M  V30 1246 C 84.576 53.388 41.958 0
M  V30 1247 O 84.919 55.782 41.697 0
M  V30 1248 H 85.724 55.756 42.178 0
M  V30 1249 C 87.088 48.477 43.989 0
M  V30 1250 C 85.845 47.664 43.688 0
M  V30 1251 C 84.594 48.243 43.987 0
M  V30 1252 C 83.406 47.567 43.712 0
M  V30 1253 C 83.442 46.299 43.135 0
M  V30 1254 C 84.668 45.703 42.839 0
M  V30 1255 C 85.873 46.364 43.11 0
M  V30 1256 O 87.054 45.687 42.795 0
M  V30 1257 H 87.019 44.802 42.489 0
M  V30 1258 C 86.574 49.852 44.611 0
M  V30 1259 C 85.948 51.117 44.745 0
M  V30 1260 C 84.546 51.227 44.63 0
M  V30 1261 C 83.765 50.088 44.337 0
M  V30 1262 C 84.398 48.846 44.088 0
M  V30 1263 C 85.785 48.729 44.298 0
M  V30 1264 O 86.398 47.474 44.183 0
M  V30 1265 C 85.654 46.259 44.16 0
M  V30 1266 C 84.475 46.414 43.189 0
M  V30 1267 C 83.695 47.656 43.518 0
M  V30 1268 O 82.487 47.706 43.17 0
M  V30 1269 C 86.6 45.109 43.863 0
M  V30 1270 C 86.329 43.863 44.458 0
M  V30 1271 C 87.178 42.773 44.249 0
M  V30 1272 C 88.307 42.909 43.44 0
M  V30 1273 C 88.588 44.137 42.837 0
M  V30 1274 C 87.744 45.232 43.043 0
M  V30 1275 O 86.673 52.287 44.999 0
M  V30 1276 H 87.483 52.243 45.467 0
M  V30 1277 O 82.374 50.225 44.324 0
M  V30 1278 H 81.958 50.713 43.641 0
M  V30 1279 C 88.068 49.643 44.806 0
M  V30 1280 C 90.007 48.887 43.339 0
M  V30 1281 C 90.679 48.893 42.107 0
M  V30 1282 C 90.161 49.606 41.024 0
M  V30 1283 C 88.965 50.312 41.159 0
M  V30 1284 C 88.286 50.31 42.38 0
M  V30 1285 C 88.802 49.607 43.485 0
M  V30 1286 O 90.533 48.171 44.412 0
M  V30 1287 H 91.141 47.475 44.258 0
M  V30 1288 C 83.88 52.572 44.867 0
M  V30 1289 C 83.927 53.43 43.619 0
M  V30 1290 C 83.106 53.055 42.535 0
M  V30 1291 C 83.075 53.812 41.364 0
M  V30 1292 C 83.862 54.956 41.25 0
M  V30 1293 C 84.688 55.341 42.306 0
M  V30 1294 C 84.736 54.593 43.49 0
M  V30 1295 O 85.602 55.042 44.49 0
M  V30 1296 H 85.322 55.048 45.385 0
M  V30 1297 C 89.967 52.347 41.196 0
M  V30 1298 C 88.805 51.641 41.838 0
M  V30 1299 C 88.658 50.315 41.644 0
M  V30 1300 C 87.492 49.521 42.2 0
M  V30 1301 C 86.845 50.186 43.467 0
M  V30 1302 C 86.612 51.685 43.138 0
M  V30 1303 C 87.912 52.419 42.781 0
M  V30 1304 C 87.754 50.044 44.716 0
M  V30 1305 C 87.879 48.059 42.401 0
M  V30 1306 C 89.242 47.647 42.388 0
M  V30 1307 C 89.592 46.301 42.591 0
M  V30 1308 C 88.566 45.385 42.797 0
M  V30 1309 C 87.253 45.766 42.802 0
M  V30 1310 C 86.868 47.088 42.603 0
M  V30 1311 C 86.496 44.636 43.025 0
M  V30 1312 C 87.417 43.601 43.147 0
M  V30 1313 N 88.68 44.063 43.008 0
M  V30 1314 H 89.513 43.539 43.051 0
M  V30 1315 C 85.493 49.537 43.752 0
M  V30 1316 C 84.332 50.041 43.303 0
M  V30 1317 C 83.009 49.431 43.578 0
M  V30 1318 C 81.851 50.244 43.448 0
M  V30 1319 C 80.569 49.72 43.689 0
M  V30 1320 C 80.469 48.38 44.047 0
M  V30 1321 C 81.575 47.583 44.162 0
M  V30 1322 C 82.86 48.066 43.931 0
M  V30 1323 C 81.14 46.323 44.512 0
M  V30 1324 C 79.755 46.427 44.595 0
M  V30 1325 N 79.35 47.686 44.31 0
M  V30 1326 H 78.425 48.023 44.298 0
M  V30 1327 C 83.669 55.305 48.817 0
M  V30 1328 C 84.384 54.236 48.037 0
M  V30 1329 C 83.894 53.863 46.838 0
M  V30 1330 C 84.508 52.758 46 0
M  V30 1331 C 86.028 52.521 46.315 0
M  V30 1332 C 86.175 52.431 47.857 0
M  V30 1333 C 85.696 53.703 48.57 0
M  V30 1334 C 86.914 53.665 45.755 0
M  V30 1335 C 84.211 52.973 44.52 0
M  V30 1336 C 83.697 51.921 43.709 0
M  V30 1337 C 83.41 52.132 42.349 0
M  V30 1338 C 83.651 53.395 41.82 0
M  V30 1339 C 84.154 54.411 42.586 0
M  V30 1340 C 84.451 54.239 43.934 0
M  V30 1341 C 84.279 55.517 41.773 0
M  V30 1342 C 83.833 55.101 40.523 0
M  V30 1343 N 83.45 53.805 40.556 0
M  V30 1344 H 83.096 53.271 39.809 0
M  V30 1345 C 86.476 51.194 45.707 0
M  V30 1346 C 87.211 51.116 44.586 0
M  V30 1347 C 87.646 49.837 43.975 0
M  V30 1348 C 86.671 48.829 43.753 0
M  V30 1349 C 87.022 47.598 43.171 0
M  V30 1350 C 88.351 47.404 42.808 0
M  V30 1351 C 89.297 48.372 43.004 0
M  V30 1352 C 88.987 49.602 43.577 0
M  V30 1353 C 90.494 47.879 42.532 0
M  V30 1354 C 90.202 46.602 42.064 0
M  V30 1355 N 88.891 46.316 42.236 0
M  V30 1356 H 88.428 45.483 41.99 0
M  V30 1357 C 86.457 51.717 49.364 0
M  V30 1358 C 85.966 52.184 48.022 0
M  V30 1359 C 86.795 52.111 46.961 0
M  V30 1360 C 86.417 52.607 45.579 0
M  V30 1361 C 84.865 52.632 45.339 0
M  V30 1362 C 84.216 53.329 46.563 0
M  V30 1363 C 84.519 52.605 47.883 0
M  V30 1364 C 84.29 51.201 45.165 0
M  V30 1365 C 87.195 51.857 44.503 0
M  V30 1366 C 87.642 50.52 44.71 0
M  V30 1367 C 88.344 49.83 43.707 0
M  V30 1368 C 88.595 50.494 42.512 0
M  V30 1369 C 88.18 51.781 42.304 0
M  V30 1370 C 87.485 52.497 43.273 0
M  V30 1371 C 88.585 52.145 41.038 0
M  V30 1372 C 89.241 51.028 40.531 0
M  V30 1373 N 89.244 50.022 41.435 0
M  V30 1374 H 89.641 49.128 41.326 0
M  V30 1375 C 84.553 53.454 44.092 0
M  V30 1376 C 83.682 53.053 43.151 0
M  V30 1377 C 83.374 53.833 41.928 0
M  V30 1378 C 82.017 54.145 41.65 0
M  V30 1379 C 81.663 54.887 40.51 0
M  V30 1380 C 82.686 55.316 39.669 0
M  V30 1381 C 83.998 55.034 39.932 0
M  V30 1382 C 84.386 54.301 41.051 0
M  V30 1383 C 84.751 55.604 38.929 0
M  V30 1384 C 83.829 56.216 38.086 0
M  V30 1385 N 82.568 56.037 38.543 0
M  V30 1386 H 81.736 56.368 38.134 0
M  V30 1387 C 88.821 47.639 42.57 0
M  V30 1388 C 88.023 48.724 43.239 0
M  V30 1389 C 86.688 48.762 43.056 0
M  V30 1390 C 85.803 49.846 43.639 0
M  V30 1391 C 86.421 50.523 44.914 0
M  V30 1392 C 87.891 50.889 44.58 0
M  V30 1393 C 88.73 49.662 44.194 0
M  V30 1394 C 86.366 49.582 46.146 0
M  V30 1395 C 84.381 49.332 43.842 0
M  V30 1396 C 83.299 50.226 44.084 0
M  V30 1397 C 81.989 49.745 44.254 0
M  V30 1398 C 81.784 48.372 44.185 0
M  V30 1399 C 82.816 47.502 43.962 0
M  V30 1400 C 84.126 47.94 43.792 0
M  V30 1401 C 82.288 46.229 43.956 0
M  V30 1402 C 80.926 46.399 44.18 0
M  V30 1403 N 80.623 47.71 44.319 0
M  V30 1404 H 79.734 48.1 44.484 0
M  V30 1405 C 85.662 51.809 45.229 0
M  V30 1406 C 86.137 52.754 46.057 0
M  V30 1407 C 85.41 54.004 46.383 0
M  V30 1408 C 84.369 53.948 47.347 0
M  V30 1409 C 83.649 55.101 47.704 0
M  V30 1410 C 83.995 56.301 47.09 0
M  V30 1411 C 85.004 56.372 46.17 0
M  V30 1412 C 85.739 55.251 45.792 0
M  V30 1413 C 85.104 57.686 45.767 0
M  V30 1414 C 84.12 58.36 46.483 0
M  V30 1415 N 83.445 57.51 47.29 0
M  V30 1416 H 82.704 57.731 47.899 0
M  V30 1417 C 84.21 58.877 46.191 0
M  V30 1418 C 84.874 57.715 45.505 0
M  V30 1419 C 85.473 56.768 46.255 0
M  V30 1420 C 86.218 55.588 45.661 0
M  V30 1421 C 85.735 55.226 44.211 0
M  V30 1422 C 85.69 56.543 43.393 0
M  V30 1423 C 84.741 57.584 44.003 0
M  V30 1424 C 84.338 54.551 44.224 0
M  V30 1425 C 86.216 54.406 46.625 0
M  V30 1426 C 85.508 54.46 47.86 0
M  V30 1427 C 85.498 53.36 48.735 0
M  V30 1428 C 86.205 52.222 48.361 0
M  V30 1429 C 86.896 52.162 47.182 0
M  V30 1430 C 86.931 53.23 46.292 0
M  V30 1431 C 87.484 50.917 47.113 0
M  V30 1432 C 87.107 50.271 48.286 0
M  V30 1433 N 86.325 51.073 49.045 0
M  V30 1434 H 85.926 50.858 49.919 0
M  V30 1435 C 86.743 54.284 43.557 0
M  V30 1436 C 86.458 53.006 43.255 0
M  V30 1437 C 87.426 52.073 42.63 0
M  V30 1438 C 87.846 52.329 41.298 0
M  V30 1439 C 88.767 51.484 40.654 0
M  V30 1440 C 89.263 50.397 41.367 0
M  V30 1441 C 88.878 50.148 42.656 0
M  V30 1442 C 87.968 50.961 43.325 0
M  V30 1443 C 89.551 49.022 43.077 0
M  V30 1444 C 90.329 48.636 41.989 0
M  V30 1445 N 90.15 49.48 40.947 0
M  V30 1446 H 90.581 49.432 40.063 0
M  V30 1447 C 86.522 56.699 44.314 0
M  V30 1448 C 86.067 55.273 44.457 0
M  V30 1449 C 86.49 54.358 43.561 0
M  V30 1450 C 86.045 52.909 43.584 0
M  V30 1451 C 85.583 52.431 45.007 0
M  V30 1452 C 84.604 53.5 45.562 0
M  V30 1453 C 85.249 54.889 45.672 0
M  V30 1454 C 86.786 52.251 45.969 0
M  V30 1455 C 87.097 52.01 42.943 0
M  V30 1456 C 88.277 52.553 42.359 0
M  V30 1457 C 89.249 51.716 41.785 0
M  V30 1458 C 89.021 50.344 41.8 0
M  V30 1459 C 87.887 49.811 42.35 0
M  V30 1460 C 86.902 50.607 42.925 0
M  V30 1461 C 87.962 48.443 42.202 0
M  V30 1462 C 89.17 48.213 41.552 0
M  V30 1463 N 89.814 49.378 41.31 0
M  V30 1464 H 90.684 49.493 40.865 0
M  V30 1465 C 84.834 51.107 44.884 0
M  V30 1466 C 83.648 50.993 44.264 0
M  V30 1467 C 82.901 49.719 44.144 0
M  V30 1468 C 83.632 48.531 43.877 0
M  V30 1469 C 82.98 47.291 43.759 0
M  V30 1470 C 81.599 47.262 43.923 0
M  V30 1471 C 80.885 48.397 44.194 0
M  V30 1472 C 81.495 49.642 44.317 0
M  V30 1473 C 79.561 48.033 44.31 0
M  V30 1474 C 79.542 46.658 44.096 0
M  V30 1475 N 80.79 46.192 43.859 0
M  V30 1476 H 81.052 45.26 43.679 0
M  V30 1477 C 91.247 48.927 42.839 0
M  V30 1478 C 89.768 48.793 43.075 0
M  V30 1479 C 89.221 49.393 44.151 0
M  V30 1480 C 87.752 49.273 44.509 0
M  V30 1481 C 86.844 48.943 43.27 0
M  V30 1482 C 87.505 47.763 42.51 0
M  V30 1483 C 88.925 48.093 42.03 0
M  V30 1484 C 86.687 50.168 42.332 0
M  V30 1485 C 87.288 50.487 45.307 0
M  V30 1486 C 87.181 51.772 44.702 0
M  V30 1487 C 86.737 52.883 45.44 0
M  V30 1488 C 86.413 52.689 46.779 0
M  V30 1489 C 86.521 51.462 47.373 0
M  V30 1490 C 86.958 50.34 46.676 0
M  V30 1491 C 86.134 51.606 48.688 0
M  V30 1492 C 85.802 52.95 48.825 0
M  V30 1493 N 85.974 53.607 47.655 0
M  V30 1494 H 85.811 54.563 47.482 0
M  V30 1495 C 85.465 48.497 43.751 0
M  V30 1496 C 84.343 49.187 43.49 0
M  V30 1497 C 82.997 48.776 43.957 0
M  V30 1498 C 82.106 49.782 44.417 0
M  V30 1499 C 80.814 49.455 44.866 0
M  V30 1500 C 80.433 48.117 44.835 0
M  V30 1501 C 81.277 47.141 44.381 0
M  V30 1502 C 82.562 47.427 43.929 0
M  V30 1503 C 80.602 45.942 44.465 0
M  V30 1504 C 79.351 46.265 44.982 0
M  V30 1505 N 79.253 47.596 45.206 0
M  V30 1506 H 78.476 48.081 45.566 0
M  V30 1507 C 86.281 55.719 43.829 0
M  V30 1508 C 86.289 54.215 43.834 0
M  V30 1509 C 85.137 53.556 44.071 0
M  V30 1510 C 85.05 52.044 44.154 0
M  V30 1511 C 86.199 51.319 43.366 0
M  V30 1512 C 87.537 51.993 43.772 0
M  V30 1513 C 87.563 53.493 43.451 0
M  V30 1514 C 85.992 51.415 41.832 0
M  V30 1515 C 83.651 51.562 43.784 0
M  V30 1516 C 82.836 52.288 42.868 0
M  V30 1517 C 81.555 51.828 42.52 0
M  V30 1518 C 81.105 50.648 43.102 0
M  V30 1519 C 81.873 49.947 43.99 0
M  V30 1520 C 83.145 50.371 44.36 0
M  V30 1521 C 81.147 48.843 44.381 0
M  V30 1522 C 79.943 48.936 43.689 0
M  V30 1523 N 79.923 50.04 42.909 0
M  V30 1524 H 79.192 50.338 42.32 0
M  V30 1525 C 86.253 49.85 43.777 0
M  V30 1526 C 86.468 48.855 42.901 0
M  V30 1527 C 86.512 47.422 43.278 0
M  V30 1528 C 85.556 46.939 44.21 0
M  V30 1529 C 85.543 45.589 44.602 0
M  V30 1530 C 86.49 44.739 44.039 0
M  V30 1531 C 87.408 45.188 43.13 0
M  V30 1532 C 87.451 46.517 42.719 0
M  V30 1533 C 88.182 44.11 42.759 0
M  V30 1534 C 87.68 43.035 43.486 0
M  V30 1535 N 86.646 43.424 44.267 0
M  V30 1536 H 86.116 42.861 44.875 0
M  V30 1537 C 84.837 56.85 45.091 0
M  V30 1538 C 85.302 55.54 44.516 0
M  V30 1539 C 84.491 54.466 44.599 0
M  V30 1540 C 84.888 53.089 44.101 0
M  V30 1541 C 85.989 53.135 42.982 0
M  V30 1542 C 87.115 54.081 43.477 0
M  V30 1543 C 86.61 55.503 43.756 0
M  V30 1544 C 85.414 53.64 41.633 0
M  V30 1545 C 83.655 52.276 43.72 0
M  V30 1546 C 82.698 52.775 42.791 0
M  V30 1547 C 81.574 52.012 42.432 0
M  V30 1548 C 81.421 50.76 43.018 0
M  V30 1549 C 82.328 50.274 43.919 0
M  V30 1550 C 83.452 51 44.3 0
M  V30 1551 C 81.891 49.026 44.31 0
M  V30 1552 C 80.71 48.817 43.605 0
M  V30 1553 N 80.428 49.879 42.817 0
M  V30 1554 H 79.653 49.984 42.218 0
M  V30 1555 C 86.579 51.741 42.788 0
M  V30 1556 C 87.901 51.502 42.772 0
M  V30 1557 C 88.492 50.157 42.574 0
M  V30 1558 C 89.842 50.07 42.144 0
M  V30 1559 C 90.46 48.823 41.945 0
M  V30 1560 C 89.711 47.678 42.194 0
M  V30 1561 C 88.414 47.747 42.622 0
M  V30 1562 C 87.769 48.964 42.83 0
M  V30 1563 C 87.964 46.455 42.788 0
M  V30 1564 C 89.043 45.648 42.439 0
M  V30 1565 N 90.108 46.4 42.077 0
M  V30 1566 H 90.992 46.077 41.788 0
M  V30 1567 C 89.967 52.347 41.196 0
M  V30 1568 C 88.805 51.641 41.838 0
M  V30 1569 C 88.658 50.315 41.644 0
M  V30 1570 C 87.492 49.521 42.2 0
M  V30 1571 C 86.845 50.186 43.467 0
M  V30 1572 C 86.612 51.685 43.138 0
M  V30 1573 C 87.912 52.419 42.781 0
M  V30 1574 C 87.754 50.044 44.716 0
M  V30 1575 C 87.879 48.059 42.401 0
M  V30 1576 C 89.242 47.647 42.388 0
M  V30 1577 C 89.592 46.301 42.591 0
M  V30 1578 C 88.566 45.385 42.797 0
M  V30 1579 C 87.253 45.766 42.802 0
M  V30 1580 C 86.868 47.088 42.603 0
M  V30 1581 C 86.496 44.636 43.025 0
M  V30 1582 C 87.417 43.601 43.147 0
M  V30 1583 N 88.68 44.063 43.008 0
M  V30 1584 H 89.513 43.539 43.051 0
M  V30 1585 C 85.493 49.537 43.752 0
M  V30 1586 C 84.332 50.041 43.303 0
M  V30 1587 C 83.009 49.431 43.578 0
M  V30 1588 C 81.851 50.244 43.448 0
M  V30 1589 C 80.569 49.72 43.689 0
M  V30 1590 C 80.469 48.38 44.047 0
M  V30 1591 C 81.575 47.583 44.162 0
M  V30 1592 C 82.86 48.066 43.931 0
M  V30 1593 C 81.14 46.323 44.512 0
M  V30 1594 C 79.755 46.427 44.595 0
M  V30 1595 N 79.35 47.686 44.31 0
M  V30 1596 H 78.425 48.023 44.298 0
M  V30 1597 C 83.669 55.305 48.817 0
M  V30 1598 C 84.384 54.236 48.037 0
M  V30 1599 C 83.894 53.863 46.838 0
M  V30 1600 C 84.508 52.758 46 0
M  V30 1601 C 86.028 52.521 46.315 0
M  V30 1602 C 86.175 52.431 47.857 0
M  V30 1603 C 85.696 53.703 48.57 0
M  V30 1604 C 86.914 53.665 45.755 0
M  V30 1605 C 84.211 52.973 44.52 0
M  V30 1606 C 83.697 51.921 43.709 0
M  V30 1607 C 83.41 52.132 42.349 0
M  V30 1608 C 83.651 53.395 41.82 0
M  V30 1609 C 84.154 54.411 42.586 0
M  V30 1610 C 84.451 54.239 43.934 0
M  V30 1611 C 84.279 55.517 41.773 0
M  V30 1612 C 83.833 55.101 40.523 0
M  V30 1613 N 83.45 53.805 40.556 0
M  V30 1614 H 83.096 53.271 39.809 0
M  V30 1615 C 86.476 51.194 45.707 0
M  V30 1616 C 87.211 51.116 44.586 0
M  V30 1617 C 87.646 49.837 43.975 0
M  V30 1618 C 86.671 48.829 43.753 0
M  V30 1619 C 87.022 47.598 43.171 0
M  V30 1620 C 88.351 47.404 42.808 0
M  V30 1621 C 89.297 48.372 43.004 0
M  V30 1622 C 88.987 49.602 43.577 0
M  V30 1623 C 90.494 47.879 42.532 0
M  V30 1624 C 90.202 46.602 42.064 0
M  V30 1625 N 88.891 46.316 42.236 0
M  V30 1626 H 88.428 45.483 41.99 0
M  V30 1627 C 86.457 51.717 49.364 0
M  V30 1628 C 85.966 52.184 48.022 0
M  V30 1629 C 86.795 52.111 46.961 0
M  V30 1630 C 86.417 52.607 45.579 0
M  V30 1631 C 84.865 52.632 45.339 0
M  V30 1632 C 84.216 53.329 46.563 0
M  V30 1633 C 84.519 52.605 47.883 0
M  V30 1634 C 84.29 51.201 45.165 0
M  V30 1635 C 87.195 51.857 44.503 0
M  V30 1636 C 87.642 50.52 44.71 0
M  V30 1637 C 88.344 49.83 43.707 0
M  V30 1638 C 88.595 50.494 42.512 0
M  V30 1639 C 88.18 51.781 42.304 0
M  V30 1640 C 87.485 52.497 43.273 0
M  V30 1641 C 88.585 52.145 41.038 0
M  V30 1642 C 89.241 51.028 40.531 0
M  V30 1643 N 89.244 50.022 41.435 0
M  V30 1644 H 89.641 49.128 41.326 0
M  V30 1645 C 84.553 53.454 44.092 0
M  V30 1646 C 83.682 53.053 43.151 0
M  V30 1647 C 83.374 53.833 41.928 0
M  V30 1648 C 82.017 54.145 41.65 0
M  V30 1649 C 81.663 54.887 40.51 0
M  V30 1650 C 82.686 55.316 39.669 0
M  V30 1651 C 83.998 55.034 39.932 0
M  V30 1652 C 84.386 54.301 41.051 0
M  V30 1653 C 84.751 55.604 38.929 0
M  V30 1654 C 83.829 56.216 38.086 0
M  V30 1655 N 82.568 56.037 38.543 0
M  V30 1656 H 81.736 56.368 38.134 0
M  V30 1657 C 88.821 47.639 42.57 0
M  V30 1658 C 88.023 48.724 43.239 0
M  V30 1659 C 86.688 48.762 43.056 0
M  V30 1660 C 85.803 49.846 43.639 0
M  V30 1661 C 86.421 50.523 44.914 0
M  V30 1662 C 87.891 50.889 44.58 0
M  V30 1663 C 88.73 49.662 44.194 0
M  V30 1664 C 86.366 49.582 46.146 0
M  V30 1665 C 84.381 49.332 43.842 0
M  V30 1666 C 83.299 50.226 44.084 0
M  V30 1667 C 81.989 49.745 44.254 0
M  V30 1668 C 81.784 48.372 44.185 0
M  V30 1669 C 82.816 47.502 43.962 0
M  V30 1670 C 84.126 47.94 43.792 0
M  V30 1671 C 82.288 46.229 43.956 0
M  V30 1672 C 80.926 46.399 44.18 0
M  V30 1673 N 80.623 47.71 44.319 0
M  V30 1674 H 79.734 48.1 44.484 0
M  V30 1675 C 85.662 51.809 45.229 0
M  V30 1676 C 86.137 52.754 46.057 0
M  V30 1677 C 85.41 54.004 46.383 0
M  V30 1678 C 84.369 53.948 47.347 0
M  V30 1679 C 83.649 55.101 47.704 0
M  V30 1680 C 83.995 56.301 47.09 0
M  V30 1681 C 85.004 56.372 46.17 0
M  V30 1682 C 85.739 55.251 45.792 0
M  V30 1683 C 85.104 57.686 45.767 0
M  V30 1684 C 84.12 58.36 46.483 0
M  V30 1685 N 83.445 57.51 47.29 0
M  V30 1686 H 82.704 57.731 47.899 0
M  V30 1687 C 84.21 58.877 46.191 0
M  V30 1688 C 84.874 57.715 45.505 0
M  V30 1689 C 85.473 56.768 46.255 0
M  V30 1690 C 86.218 55.588 45.661 0
M  V30 1691 C 85.735 55.226 44.211 0
M  V30 1692 C 85.69 56.543 43.393 0
M  V30 1693 C 84.741 57.584 44.003 0
M  V30 1694 C 84.338 54.551 44.224 0
M  V30 1695 C 86.216 54.406 46.625 0
M  V30 1696 C 85.508 54.46 47.86 0
M  V30 1697 C 85.498 53.36 48.735 0
M  V30 1698 C 86.205 52.222 48.361 0
M  V30 1699 C 86.896 52.162 47.182 0
M  V30 1700 C 86.931 53.23 46.292 0
M  V30 1701 C 87.484 50.917 47.113 0
M  V30 1702 C 87.107 50.271 48.286 0
M  V30 1703 N 86.325 51.073 49.045 0
M  V30 1704 H 85.926 50.858 49.919 0
M  V30 1705 C 86.743 54.284 43.557 0
M  V30 1706 C 86.458 53.006 43.255 0
M  V30 1707 C 87.426 52.073 42.63 0
M  V30 1708 C 87.846 52.329 41.298 0
M  V30 1709 C 88.767 51.484 40.654 0
M  V30 1710 C 89.263 50.397 41.367 0
M  V30 1711 C 88.878 50.148 42.656 0
M  V30 1712 C 87.968 50.961 43.325 0
M  V30 1713 C 89.551 49.022 43.077 0
M  V30 1714 C 90.329 48.636 41.989 0
M  V30 1715 N 90.15 49.48 40.947 0
M  V30 1716 H 90.581 49.432 40.063 0
M  V30 1717 C 86.522 56.699 44.314 0
M  V30 1718 C 86.067 55.273 44.457 0
M  V30 1719 C 86.49 54.358 43.561 0
M  V30 1720 C 86.045 52.909 43.584 0
M  V30 1721 C 85.583 52.431 45.007 0
M  V30 1722 C 84.604 53.5 45.562 0
M  V30 1723 C 85.249 54.889 45.672 0
M  V30 1724 C 86.786 52.251 45.969 0
M  V30 1725 C 87.097 52.01 42.943 0
M  V30 1726 C 88.277 52.553 42.359 0
M  V30 1727 C 89.249 51.716 41.785 0
M  V30 1728 C 89.021 50.344 41.8 0
M  V30 1729 C 87.887 49.811 42.35 0
M  V30 1730 C 86.902 50.607 42.925 0
M  V30 1731 C 87.962 48.443 42.202 0
M  V30 1732 C 89.17 48.213 41.552 0
M  V30 1733 N 89.814 49.378 41.31 0
M  V30 1734 H 90.684 49.493 40.865 0
M  V30 1735 C 84.834 51.107 44.884 0
M  V30 1736 C 83.648 50.993 44.264 0
M  V30 1737 C 82.901 49.719 44.144 0
M  V30 1738 C 83.632 48.531 43.877 0
M  V30 1739 C 82.98 47.291 43.759 0
M  V30 1740 C 81.599 47.262 43.923 0
M  V30 1741 C 80.885 48.397 44.194 0
M  V30 1742 C 81.495 49.642 44.317 0
M  V30 1743 C 79.561 48.033 44.31 0
M  V30 1744 C 79.542 46.658 44.096 0
M  V30 1745 N 80.79 46.192 43.859 0
M  V30 1746 H 81.052 45.26 43.679 0
M  V30 1747 C 91.247 48.927 42.839 0
M  V30 1748 C 89.768 48.793 43.075 0
M  V30 1749 C 89.221 49.393 44.151 0
M  V30 1750 C 87.752 49.273 44.509 0
M  V30 1751 C 86.844 48.943 43.27 0
M  V30 1752 C 87.505 47.763 42.51 0
M  V30 1753 C 88.925 48.093 42.03 0
M  V30 1754 C 86.687 50.168 42.332 0
M  V30 1755 C 87.288 50.487 45.307 0
M  V30 1756 C 87.181 51.772 44.702 0
M  V30 1757 C 86.737 52.883 45.44 0
M  V30 1758 C 86.413 52.689 46.779 0
M  V30 1759 C 86.521 51.462 47.373 0
M  V30 1760 C 86.958 50.34 46.676 0
M  V30 1761 C 86.134 51.606 48.688 0
M  V30 1762 C 85.802 52.95 48.825 0
M  V30 1763 N 85.974 53.607 47.655 0
M  V30 1764 H 85.811 54.563 47.482 0
M  V30 1765 C 85.465 48.497 43.751 0
M  V30 1766 C 84.343 49.187 43.49 0
M  V30 1767 C 82.997 48.776 43.957 0
M  V30 1768 C 82.106 49.782 44.417 0
M  V30 1769 C 80.814 49.455 44.866 0
M  V30 1770 C 80.433 48.117 44.835 0
M  V30 1771 C 81.277 47.141 44.381 0
M  V30 1772 C 82.562 47.427 43.929 0
M  V30 1773 C 80.602 45.942 44.465 0
M  V30 1774 C 79.351 46.265 44.982 0
M  V30 1775 N 79.253 47.596 45.206 0
M  V30 1776 H 78.476 48.081 45.566 0
M  V30 1777 C 86.281 55.719 43.829 0
M  V30 1778 C 86.289 54.215 43.834 0
M  V30 1779 C 85.137 53.556 44.071 0
M  V30 1780 C 85.05 52.044 44.154 0
M  V30 1781 C 86.199 51.319 43.366 0
M  V30 1782 C 87.537 51.993 43.772 0
M  V30 1783 C 87.563 53.493 43.451 0
M  V30 1784 C 85.992 51.415 41.832 0
M  V30 1785 C 83.651 51.562 43.784 0
M  V30 1786 C 82.836 52.288 42.868 0
M  V30 1787 C 81.555 51.828 42.52 0
M  V30 1788 C 81.105 50.648 43.102 0
M  V30 1789 C 81.873 49.947 43.99 0
M  V30 1790 C 83.145 50.371 44.36 0
M  V30 1791 C 81.147 48.843 44.381 0
M  V30 1792 C 79.943 48.936 43.689 0
M  V30 1793 N 79.923 50.04 42.909 0
M  V30 1794 H 79.192 50.338 42.32 0
M  V30 1795 C 86.253 49.85 43.777 0
M  V30 1796 C 86.468 48.855 42.901 0
M  V30 1797 C 86.512 47.422 43.278 0
M  V30 1798 C 85.556 46.939 44.21 0
M  V30 1799 C 85.543 45.589 44.602 0
M  V30 1800 C 86.49 44.739 44.039 0
M  V30 1801 C 87.408 45.188 43.13 0
M  V30 1802 C 87.451 46.517 42.719 0
M  V30 1803 C 88.182 44.11 42.759 0
M  V30 1804 C 87.68 43.035 43.486 0
M  V30 1805 N 86.646 43.424 44.267 0
M  V30 1806 H 86.116 42.861 44.875 0
M  V30 1807 C 84.837 56.85 45.091 0
M  V30 1808 C 85.302 55.54 44.516 0
M  V30 1809 C 84.491 54.466 44.599 0
M  V30 1810 C 84.888 53.089 44.101 0
M  V30 1811 C 85.989 53.135 42.982 0
M  V30 1812 C 87.115 54.081 43.477 0
M  V30 1813 C 86.61 55.503 43.756 0
M  V30 1814 C 85.414 53.64 41.633 0
M  V30 1815 C 83.655 52.276 43.72 0
M  V30 1816 C 82.698 52.775 42.791 0
M  V30 1817 C 81.574 52.012 42.432 0
M  V30 1818 C 81.421 50.76 43.018 0
M  V30 1819 C 82.328 50.274 43.919 0
M  V30 1820 C 83.452 51 44.3 0
M  V30 1821 C 81.891 49.026 44.31 0
M  V30 1822 C 80.71 48.817 43.605 0
M  V30 1823 N 80.428 49.879 42.817 0
M  V30 1824 H 79.653 49.984 42.218 0
M  V30 1825 C 86.579 51.741 42.788 0
M  V30 1826 C 87.901 51.502 42.772 0
M  V30 1827 C 88.492 50.157 42.574 0
M  V30 1828 C 89.842 50.07 42.144 0
M  V30 1829 C 90.46 48.823 41.945 0
M  V30 1830 C 89.711 47.678 42.194 0
M  V30 1831 C 88.414 47.747 42.622 0
M  V30 1832 C 87.769 48.964 42.83 0
M  V30 1833 C 87.964 46.455 42.788 0
M  V30 1834 C 89.043 45.648 42.439 0
M  V30 1835 N 90.108 46.4 42.077 0
M  V30 1836 H 90.992 46.077 41.788 0
M  V30 1837 C 89.967 52.347 41.196 0
M  V30 1838 C 88.805 51.641 41.838 0
M  V30 1839 C 88.658 50.315 41.644 0
M  V30 1840 C 87.492 49.521 42.2 0
M  V30 1841 C 86.845 50.186 43.467 0
M  V30 1842 C 86.612 51.685 43.138 0
M  V30 1843 C 87.912 52.419 42.781 0
M  V30 1844 C 87.754 50.044 44.716 0
M  V30 1845 C 87.879 48.059 42.401 0
M  V30 1846 C 89.242 47.647 42.388 0
M  V30 1847 C 89.592 46.301 42.591 0
M  V30 1848 C 88.566 45.385 42.797 0
M  V30 1849 C 87.253 45.766 42.802 0
M  V30 1850 C 86.868 47.088 42.603 0
M  V30 1851 C 86.496 44.636 43.025 0
M  V30 1852 C 87.417 43.601 43.147 0
M  V30 1853 N 88.68 44.063 43.008 0
M  V30 1854 H 89.513 43.539 43.051 0
M  V30 1855 C 85.493 49.537 43.752 0
M  V30 1856 C 84.332 50.041 43.303 0
M  V30 1857 C 83.009 49.431 43.578 0
M  V30 1858 C 81.851 50.244 43.448 0
M  V30 1859 C 80.569 49.72 43.689 0
M  V30 1860 C 80.469 48.38 44.047 0
M  V30 1861 C 81.575 47.583 44.162 0
M  V30 1862 C 82.86 48.066 43.931 0
M  V30 1863 C 81.14 46.323 44.512 0
M  V30 1864 C 79.755 46.427 44.595 0
M  V30 1865 N 79.35 47.686 44.31 0
M  V30 1866 H 78.425 48.023 44.298 0
M  V30 1867 C 83.669 55.305 48.817 0
M  V30 1868 C 84.384 54.236 48.037 0
M  V30 1869 C 83.894 53.863 46.838 0
M  V30 1870 C 84.508 52.758 46 0
M  V30 1871 C 86.028 52.521 46.315 0
M  V30 1872 C 86.175 52.431 47.857 0
M  V30 1873 C 85.696 53.703 48.57 0
M  V30 1874 C 86.914 53.665 45.755 0
M  V30 1875 C 84.211 52.973 44.52 0
M  V30 1876 C 83.697 51.921 43.709 0
M  V30 1877 C 83.41 52.132 42.349 0
M  V30 1878 C 83.651 53.395 41.82 0
M  V30 1879 C 84.154 54.411 42.586 0
M  V30 1880 C 84.451 54.239 43.934 0
M  V30 1881 C 84.279 55.517 41.773 0
M  V30 1882 C 83.833 55.101 40.523 0
M  V30 1883 N 83.45 53.805 40.556 0
M  V30 1884 H 83.096 53.271 39.809 0
M  V30 1885 C 86.476 51.194 45.707 0
M  V30 1886 C 87.211 51.116 44.586 0
M  V30 1887 C 87.646 49.837 43.975 0
M  V30 1888 C 86.671 48.829 43.753 0
M  V30 1889 C 87.022 47.598 43.171 0
M  V30 1890 C 88.351 47.404 42.808 0
M  V30 1891 C 89.297 48.372 43.004 0
M  V30 1892 C 88.987 49.602 43.577 0
M  V30 1893 C 90.494 47.879 42.532 0
M  V30 1894 C 90.202 46.602 42.064 0
M  V30 1895 N 88.891 46.316 42.236 0
M  V30 1896 H 88.428 45.483 41.99 0
M  V30 1897 C 86.457 51.717 49.364 0
M  V30 1898 C 85.966 52.184 48.022 0
M  V30 1899 C 86.795 52.111 46.961 0
M  V30 1900 C 86.417 52.607 45.579 0
M  V30 1901 C 84.865 52.632 45.339 0
M  V30 1902 C 84.216 53.329 46.563 0
M  V30 1903 C 84.519 52.605 47.883 0
M  V30 1904 C 84.29 51.201 45.165 0
M  V30 1905 C 87.195 51.857 44.503 0
M  V30 1906 C 87.642 50.52 44.71 0
M  V30 1907 C 88.344 49.83 43.707 0
M  V30 1908 C 88.595 50.494 42.512 0
M  V30 1909 C 88.18 51.781 42.304 0
M  V30 1910 C 87.485 52.497 43.273 0
M  V30 1911 C 88.585 52.145 41.038 0
M  V30 1912 C 89.241 51.028 40.531 0
M  V30 1913 N 89.244 50.022 41.435 0
M  V30 1914 H 89.641 49.128 41.326 0
M  V30 1915 C 84.553 53.454 44.092 0
M  V30 1916 C 83.682 53.053 43.151 0
M  V30 1917 C 83.374 53.833 41.928 0
M  V30 1918 C 82.017 54.145 41.65 0
M  V30 1919 C 81.663 54.887 40.51 0
M  V30 1920 C 82.686 55.316 39.669 0
M  V30 1921 C 83.998 55.034 39.932 0
M  V30 1922 C 84.386 54.301 41.051 0
M  V30 1923 C 84.751 55.604 38.929 0
M  V30 1924 C 83.829 56.216 38.086 0
M  V30 1925 N 82.568 56.037 38.543 0
M  V30 1926 H 81.736 56.368 38.134 0
M  V30 1927 C 88.821 47.639 42.57 0
M  V30 1928 C 88.023 48.724 43.239 0
M  V30 1929 C 86.688 48.762 43.056 0
M  V30 1930 C 85.803 49.846 43.639 0
M  V30 1931 C 86.421 50.523 44.914 0
M  V30 1932 C 87.891 50.889 44.58 0
M  V30 1933 C 88.73 49.662 44.194 0
M  V30 1934 C 86.366 49.582 46.146 0
M  V30 1935 C 84.381 49.332 43.842 0
M  V30 1936 C 83.299 50.226 44.084 0
M  V30 1937 C 81.989 49.745 44.254 0
M  V30 1938 C 81.784 48.372 44.185 0
M  V30 1939 C 82.816 47.502 43.962 0
M  V30 1940 C 84.126 47.94 43.792 0
M  V30 1941 C 82.288 46.229 43.956 0
M  V30 1942 C 80.926 46.399 44.18 0
M  V30 1943 N 80.623 47.71 44.319 0
M  V30 1944 H 79.734 48.1 44.484 0
M  V30 1945 C 85.662 51.809 45.229 0
M  V30 1946 C 86.137 52.754 46.057 0
M  V30 1947 C 85.41 54.004 46.383 0
M  V30 1948 C 84.369 53.948 47.347 0
M  V30 1949 C 83.649 55.101 47.704 0
M  V30 1950 C 83.995 56.301 47.09 0
M  V30 1951 C 85.004 56.372 46.17 0
M  V30 1952 C 85.739 55.251 45.792 0
M  V30 1953 C 85.104 57.686 45.767 0
M  V30 1954 C 84.12 58.36 46.483 0
M  V30 1955 N 83.445 57.51 47.29 0
M  V30 1956 H 82.704 57.731 47.899 0
M  V30 1957 C 84.21 58.877 46.191 0
M  V30 1958 C 84.874 57.715 45.505 0
M  V30 1959 C 85.473 56.768 46.255 0
M  V30 1960 C 86.218 55.588 45.661 0
M  V30 1961 C 85.735 55.226 44.211 0
M  V30 1962 C 85.69 56.543 43.393 0
M  V30 1963 C 84.741 57.584 44.003 0
M  V30 1964 C 84.338 54.551 44.224 0
M  V30 1965 C 86.216 54.406 46.625 0
M  V30 1966 C 85.508 54.46 47.86 0
M  V30 1967 C 85.498 53.36 48.735 0
M  V30 1968 C 86.205 52.222 48.361 0
M  V30 1969 C 86.896 52.162 47.182 0
M  V30 1970 C 86.931 53.23 46.292 0
M  V30 1971 C 87.484 50.917 47.113 0
M  V30 1972 C 87.107 50.271 48.286 0
M  V30 1973 N 86.325 51.073 49.045 0
M  V30 1974 H 85.926 50.858 49.919 0
M  V30 1975 C 86.743 54.284 43.557 0
M  V30 1976 C 86.458 53.006 43.255 0
M  V30 1977 C 87.426 52.073 42.63 0
M  V30 1978 C 87.846 52.329 41.298 0
M  V30 1979 C 88.767 51.484 40.654 0
M  V30 1980 C 89.263 50.397 41.367 0
M  V30 1981 C 88.878 50.148 42.656 0
M  V30 1982 C 87.968 50.961 43.325 0
M  V30 1983 C 89.551 49.022 43.077 0
M  V30 1984 C 90.329 48.636 41.989 0
M  V30 1985 N 90.15 49.48 40.947 0
M  V30 1986 H 90.581 49.432 40.063 0
M  V30 1987 C 86.522 56.699 44.314 0
M  V30 1988 C 86.067 55.273 44.457 0
M  V30 1989 C 86.49 54.358 43.561 0
M  V30 1990 C 86.045 52.909 43.584 0
M  V30 1991 C 85.583 52.431 45.007 0
M  V30 1992 C 84.604 53.5 45.562 0
M  V30 1993 C 85.249 54.889 45.672 0
M  V30 1994 C 86.786 52.251 45.969 0
M  V30 1995 C 87.097 52.01 42.943 0
M  V30 1996 C 88.277 52.553 42.359 0
M  V30 1997 C 89.249 51.716 41.785 0
M  V30 1998 C 89.021 50.344 41.8 0
M  V30 1999 C 87.887 49.811 42.35 0
M  V30 2000 C 86.902 50.607 42.925 0
M  V30 2001 C 87.962 48.443 42.202 0
M  V30 2002 C 89.17 48.213 41.552 0
M  V30 2003 N 89.814 49.378 41.31 0
M  V30 2004 H 90.684 49.493 40.865 0
M  V30 2005 C 84.834 51.107 44.884 0
M  V30 2006 C 83.648 50.993 44.264 0
M  V30 2007 C 82.901 49.719 44.144 0
M  V30 2008 C 83.632 48.531 43.877 0
M  V30 2009 C 82.98 47.291 43.759 0
M  V30 2010 C 81.599 47.262 43.923 0
M  V30 2011 C 80.885 48.397 44.194 0
M  V30 2012 C 81.495 49.642 44.317 0
M  V30 2013 C 79.561 48.033 44.31 0
M  V30 2014 C 79.542 46.658 44.096 0
M  V30 2015 N 80.79 46.192 43.859 0
M  V30 2016 H 81.052 45.26 43.679 0
M  V30 2017 C 91.247 48.927 42.839 0
M  V30 2018 C 89.768 48.793 43.075 0
M  V30 2019 C 89.221 49.393 44.151 0
M  V30 2020 C 87.752 49.273 44.509 0
M  V30 2021 C 86.844 48.943 43.27 0
M  V30 2022 C 87.505 47.763 42.51 0
M  V30 2023 C 88.925 48.093 42.03 0
M  V30 2024 C 86.687 50.168 42.332 0
M  V30 2025 C 87.288 50.487 45.307 0
M  V30 2026 C 87.181 51.772 44.702 0
M  V30 2027 C 86.737 52.883 45.44 0
M  V30 2028 C 86.413 52.689 46.779 0
M  V30 2029 C 86.521 51.462 47.373 0
M  V30 2030 C 86.958 50.34 46.676 0
M  V30 2031 C 86.134 51.606 48.688 0
M  V30 2032 C 85.802 52.95 48.825 0
M  V30 2033 N 85.974 53.607 47.655 0
M  V30 2034 H 85.811 54.563 47.482 0
M  V30 2035 C 85.465 48.497 43.751 0
M  V30 2036 C 84.343 49.187 43.49 0
M  V30 2037 C 82.997 48.776 43.957 0
M  V30 2038 C 82.106 49.782 44.417 0
M  V30 2039 C 80.814 49.455 44.866 0
M  V30 2040 C 80.433 48.117 44.835 0
M  V30 2041 C 81.277 47.141 44.381 0
M  V30 2042 C 82.562 47.427 43.929 0
M  V30 2043 C 80.602 45.942 44.465 0
M  V30 2044 C 79.351 46.265 44.982 0
M  V30 2045 N 79.253 47.596 45.206 0
M  V30 2046 H 78.476 48.081 45.566 0
M  V30 2047 C 86.281 55.719 43.829 0
M  V30 2048 C 86.289 54.215 43.834 0
M  V30 2049 C 85.137 53.556 44.071 0
M  V30 2050 C 85.05 52.044 44.154 0
M  V30 2051 C 86.199 51.319 43.366 0
M  V30 2052 C 87.537 51.993 43.772 0
M  V30 2053 C 87.563 53.493 43.451 0
M  V30 2054 C 85.992 51.415 41.832 0
M  V30 2055 C 83.651 51.562 43.784 0
M  V30 2056 C 82.836 52.288 42.868 0
M  V30 2057 C 81.555 51.828 42.52 0
M  V30 2058 C 81.105 50.648 43.102 0
M  V30 2059 C 81.873 49.947 43.99 0
M  V30 2060 C 83.145 50.371 44.36 0
M  V30 2061 C 81.147 48.843 44.381 0
M  V30 2062 C 79.943 48.936 43.689 0
M  V30 2063 N 79.923 50.04 42.909 0
M  V30 2064 H 79.192 50.338 42.32 0
M  V30 2065 C 86.253 49.85 43.777 0
M  V30 2066 C 86.468 48.855 42.901 0
M  V30 2067 C 86.512 47.422 43.278 0
M  V30 2068 C 85.556 46.939 44.21 0
M  V30 2069 C 85.543 45.589 44.602 0
M  V30 2070 C 86.49 44.739 44.039 0
M  V30 2071 C 87.408 45.188 43.13 0
M  V30 2072 C 87.451 46.517 42.719 0
M  V30 2073 C 88.182 44.11 42.759 0
M  V30 2074 C 87.68 43.035 43.486 0
M  V30 2075 N 86.646 43.424 44.267 0
M  V30 2076 H 86.116 42.861 44.875 0
M  V30 2077 C 84.837 56.85 45.091 0
M  V30 2078 C 85.302 55.54 44.516 0
M  V30 2079 C 84.491 54.466 44.599 0
M  V30 2080 C 84.888 53.089 44.101 0
M  V30 2081 C 85.989 53.135 42.982 0
M  V30 2082 C 87.115 54.081 43.477 0
M  V30 2083 C 86.61 55.503 43.756 0
M  V30 2084 C 85.414 53.64 41.633 0
M  V30 2085 C 83.655 52.276 43.72 0
M  V30 2086 C 82.698 52.775 42.791 0
M  V30 2087 C 81.574 52.012 42.432 0
M  V30 2088 C 81.421 50.76 43.018 0
M  V30 2089 C 82.328 50.274 43.919 0
M  V30 2090 C 83.452 51 44.3 0
M  V30 2091 C 81.891 49.026 44.31 0
M  V30 2092 C 80.71 48.817 43.605 0
M  V30 2093 N 80.428 49.879 42.817 0
M  V30 2094 H 79.653 49.984 42.218 0
M  V30 2095 C 86.579 51.741 42.788 0
M  V30 2096 C 87.901 51.502 42.772 0
M  V30 2097 C 88.492 50.157 42.574 0
M  V30 2098 C 89.842 50.07 42.144 0
M  V30 2099 C 90.46 48.823 41.945 0
M  V30 2100 C 89.711 47.678 42.194 0
M  V30 2101 C 88.414 47.747 42.622 0
M  V30 2102 C 87.769 48.964 42.83 0
M  V30 2103 C 87.964 46.455 42.788 0
M  V30 2104 C 89.043 45.648 42.439 0
M  V30 2105 N 90.108 46.4 42.077 0
M  V30 2106 H 90.992 46.077 41.788 0
M  V30 2107 C 89.967 52.347 41.196 0
M  V30 2108 C 88.805 51.641 41.838 0
M  V30 2109 C 88.658 50.315 41.644 0
M  V30 2110 C 87.492 49.521 42.2 0
M  V30 2111 C 86.845 50.186 43.467 0
M  V30 2112 C 86.612 51.685 43.138 0
M  V30 2113 C 87.912 52.419 42.781 0
M  V30 2114 C 87.754 50.044 44.716 0
M  V30 2115 C 87.879 48.059 42.401 0
M  V30 2116 C 89.242 47.647 42.388 0
M  V30 2117 C 89.592 46.301 42.591 0
M  V30 2118 C 88.566 45.385 42.797 0
M  V30 2119 C 87.253 45.766 42.802 0
M  V30 2120 C 86.868 47.088 42.603 0
M  V30 2121 C 86.496 44.636 43.025 0
M  V30 2122 C 87.417 43.601 43.147 0
M  V30 2123 N 88.68 44.063 43.008 0
M  V30 2124 H 89.513 43.539 43.051 0
M  V30 2125 C 85.493 49.537 43.752 0
M  V30 2126 C 84.332 50.041 43.303 0
M  V30 2127 C 83.009 49.431 43.578 0
M  V30 2128 C 81.851 50.244 43.448 0
M  V30 2129 C 80.569 49.72 43.689 0
M  V30 2130 C 80.469 48.38 44.047 0
M  V30 2131 C 81.575 47.583 44.162 0
M  V30 2132 C 82.86 48.066 43.931 0
M  V30 2133 C 81.14 46.323 44.512 0
M  V30 2134 C 79.755 46.427 44.595 0
M  V30 2135 N 79.35 47.686 44.31 0
M  V30 2136 H 78.425 48.023 44.298 0
M  V30 2137 C 83.669 55.305 48.817 0
M  V30 2138 C 84.384 54.236 48.037 0
M  V30 2139 C 83.894 53.863 46.838 0
M  V30 2140 C 84.508 52.758 46 0
M  V30 2141 C 86.028 52.521 46.315 0
M  V30 2142 C 86.175 52.431 47.857 0
M  V30 2143 C 85.696 53.703 48.57 0
M  V30 2144 C 86.914 53.665 45.755 0
M  V30 2145 C 84.211 52.973 44.52 0
M  V30 2146 C 83.697 51.921 43.709 0
M  V30 2147 C 83.41 52.132 42.349 0
M  V30 2148 C 83.651 53.395 41.82 0
M  V30 2149 C 84.154 54.411 42.586 0
M  V30 2150 C 84.451 54.239 43.934 0
M  V30 2151 C 84.279 55.517 41.773 0
M  V30 2152 C 83.833 55.101 40.523 0
M  V30 2153 N 83.45 53.805 40.556 0
M  V30 2154 H 83.096 53.271 39.809 0
M  V30 2155 C 86.476 51.194 45.707 0
M  V30 2156 C 87.211 51.116 44.586 0
M  V30 2157 C 87.646 49.837 43.975 0
M  V30 2158 C 86.671 48.829 43.753 0
M  V30 2159 C 87.022 47.598 43.171 0
M  V30 2160 C 88.351 47.404 42.808 0
M  V30 2161 C 89.297 48.372 43.004 0
M  V30 2162 C 88.987 49.602 43.577 0
M  V30 2163 C 90.494 47.879 42.532 0
M  V30 2164 C 90.202 46.602 42.064 0
M  V30 2165 N 88.891 46.316 42.236 0
M  V30 2166 H 88.428 45.483 41.99 0
M  V30 2167 C 86.457 51.717 49.364 0
M  V30 2168 C 85.966 52.184 48.022 0
M  V30 2169 C 86.795 52.111 46.961 0
M  V30 2170 C 86.417 52.607 45.579 0
M  V30 2171 C 84.865 52.632 45.339 0
M  V30 2172 C 84.216 53.329 46.563 0
M  V30 2173 C 84.519 52.605 47.883 0
M  V30 2174 C 84.29 51.201 45.165 0
M  V30 2175 C 87.195 51.857 44.503 0
M  V30 2176 C 87.642 50.52 44.71 0
M  V30 2177 C 88.344 49.83 43.707 0
M  V30 2178 C 88.595 50.494 42.512 0
M  V30 2179 C 88.18 51.781 42.304 0
M  V30 2180 C 87.485 52.497 43.273 0
M  V30 2181 C 88.585 52.145 41.038 0
M  V30 2182 C 89.241 51.028 40.531 0
M  V30 2183 N 89.244 50.022 41.435 0
M  V30 2184 H 89.641 49.128 41.326 0
M  V30 2185 C 84.553 53.454 44.092 0
M  V30 2186 C 83.682 53.053 43.151 0
M  V30 2187 C 83.374 53.833 41.928 0
M  V30 2188 C 82.017 54.145 41.65 0
M  V30 2189 C 81.663 54.887 40.51 0
M  V30 2190 C 82.686 55.316 39.669 0
M  V30 2191 C 83.998 55.034 39.932 0
M  V30 2192 C 84.386 54.301 41.051 0
M  V30 2193 C 84.751 55.604 38.929 0
M  V30 2194 C 83.829 56.216 38.086 0
M  V30 2195 N 82.568 56.037 38.543 0
M  V30 2196 H 81.736 56.368 38.134 0
M  V30 2197 C 88.821 47.639 42.57 0
M  V30 2198 C 88.023 48.724 43.239 0
M  V30 2199 C 86.688 48.762 43.056 0
M  V30 2200 C 85.803 49.846 43.639 0
M  V30 2201 C 86.421 50.523 44.914 0
M  V30 2202 C 87.891 50.889 44.58 0
M  V30 2203 C 88.73 49.662 44.194 0
M  V30 2204 C 86.366 49.582 46.146 0
M  V30 2205 C 84.381 49.332 43.842 0
M  V30 2206 C 83.299 50.226 44.084 0
M  V30 2207 C 81.989 49.745 44.254 0
M  V30 2208 C 81.784 48.372 44.185 0
M  V30 2209 C 82.816 47.502 43.962 0
M  V30 2210 C 84.126 47.94 43.792 0
M  V30 2211 C 82.288 46.229 43.956 0
M  V30 2212 C 80.926 46.399 44.18 0
M  V30 2213 N 80.623 47.71 44.319 0
M  V30 2214 H 79.734 48.1 44.484 0
M  V30 2215 C 85.662 51.809 45.229 0
M  V30 2216 C 86.137 52.754 46.057 0
M  V30 2217 C 85.41 54.004 46.383 0
M  V30 2218 C 84.369 53.948 47.347 0
M  V30 2219 C 83.649 55.101 47.704 0
M  V30 2220 C 83.995 56.301 47.09 0
M  V30 2221 C 85.004 56.372 46.17 0
M  V30 2222 C 85.739 55.251 45.792 0
M  V30 2223 C 85.104 57.686 45.767 0
M  V30 2224 C 84.12 58.36 46.483 0
M  V30 2225 N 83.445 57.51 47.29 0
M  V30 2226 H 82.704 57.731 47.899 0
M  V30 2227 C 84.21 58.877 46.191 0
M  V30 2228 C 84.874 57.715 45.505 0
M  V30 2229 C 85.473 56.768 46.255 0
M  V30 2230 C 86.218 55.588 45.661 0
M  V30 2231 C 85.735 55.226 44.211 0
M  V30 2232 C 85.69 56.543 43.393 0
M  V30 2233 C 84.741 57.584 44.003 0
M  V30 2234 C 84.338 54.551 44.224 0
M  V30 2235 C 86.216 54.406 46.625 0
M  V30 2236 C 85.508 54.46 47.86 0
M  V30 2237 C 85.498 53.36 48.735 0
M  V30 2238 C 86.205 52.222 48.361 0
M  V30 2239 C 86.896 52.162 47.182 0
M  V30 2240 C 86.931 53.23 46.292 0
M  V30 2241 C 87.484 50.917 47.113 0
M  V30 2242 C 87.107 50.271 48.286 0
M  V30 2243 N 86.325 51.073 49.045 0
M  V30 2244 H 85.926 50.858 49.919 0
M  V30 2245 C 86.743 54.284 43.557 0
M  V30 2246 C 86.458 53.006 43.255 0
M  V30 2247 C 87.426 52.073 42.63 0
M  V30 2248 C 87.846 52.329 41.298 0
M  V30 2249 C 88.767 51.484 40.654 0
M  V30 2250 C 89.263 50.397 41.367 0
M  V30 2251 C 88.878 50.148 42.656 0
M  V30 2252 C 87.968 50.961 43.325 0
M  V30 2253 C 89.551 49.022 43.077 0
M  V30 2254 C 90.329 48.636 41.989 0
M  V30 2255 N 90.15 49.48 40.947 0
M  V30 2256 H 90.581 49.432 40.063 0
M  V30 2257 C 86.522 56.699 44.314 0
M  V30 2258 C 86.067 55.273 44.457 0
M  V30 2259 C 86.49 54.358 43.561 0
M  V30 2260 C 86.045 52.909 43.584 0
M  V30 2261 C 85.583 52.431 45.007 0
M  V30 2262 C 84.604 53.5 45.562 0
M  V30 2263 C 85.249 54.889 45.672 0
M  V30 2264 C 86.786 52.251 45.969 0
M  V30 2265 C 87.097 52.01 42.943 0
M  V30 2266 C 88.277 52.553 42.359 0
M  V30 2267 C 89.249 51.716 41.785 0
M  V30 2268 C 89.021 50.344 41.8 0
M  V30 2269 C 87.887 49.811 42.35 0
M  V30 2270 C 86.902 50.607 42.925 0
M  V30 2271 C 87.962 48.443 42.202 0
M  V30 2272 C 89.17 48.213 41.552 0
M  V30 2273 N 89.814 49.378 41.31 0
M  V30 2274 H 90.684 49.493 40.865 0
M  V30 2275 C 84.834 51.107 44.884 0
M  V30 2276 C 83.648 50.993 44.264 0
M  V30 2277 C 82.901 49.719 44.144 0
M  V30 2278 C 83.632 48.531 43.877 0
M  V30 2279 C 82.98 47.291 43.759 0
M  V30 2280 C 81.599 47.262 43.923 0
M  V30 2281 C 80.885 48.397 44.194 0
M  V30 2282 C 81.495 49.642 44.317 0
M  V30 2283 C 79.561 48.033 44.31 0
M  V30 2284 C 79.542 46.658 44.096 0
M  V30 2285 N 80.79 46.192 43.859 0
M  V30 2286 H 81.052 45.26 43.679 0
M  V30 2287 C 91.247 48.927 42.839 0
M  V30 2288 C 89.768 48.793 43.075 0
M  V30 2289 C 89.221 49.393 44.151 0
M  V30 2290 C 87.752 49.273 44.509 0
M  V30 2291 C 86.844 48.943 43.27 0
M  V30 2292 C 87.505 47.763 42.51 0
M  V30 2293 C 88.925 48.093 42.03 0
M  V30 2294 C 86.687 50.168 42.332 0
M  V30 2295 C 87.288 50.487 45.307 0
M  V30 2296 C 87.181 51.772 44.702 0
M  V30 2297 C 86.737 52.883 45.44 0
M  V30 2298 C 86.413 52.689 46.779 0
M  V30 2299 C 86.521 51.462 47.373 0
M  V30 2300 C 86.958 50.34 46.676 0
M  V30 2301 C 86.134 51.606 48.688 0
M  V30 2302 C 85.802 52.95 48.825 0
M  V30 2303 N 85.974 53.607 47.655 0
M  V30 2304 H 85.811 54.563 47.482 0
M  V30 2305 C 85.465 48.497 43.751 0
M  V30 2306 C 84.343 49.187 43.49 0
M  V30 2307 C 82.997 48.776 43.957 0
M  V30 2308 C 82.106 49.782 44.417 0
M  V30 2309 C 80.814 49.455 44.866 0
M  V30 2310 C 80.433 48.117 44.835 0
M  V30 2311 C 81.277 47.141 44.381 0
M  V30 2312 C 82.562 47.427 43.929 0
M  V30 2313 C 80.602 45.942 44.465 0
M  V30 2314 C 79.351 46.265 44.982 0
M  V30 2315 N 79.253 47.596 45.206 0
M  V30 2316 H 78.476 48.081 45.566 0
M  V30 2317 C 86.281 55.719 43.829 0
M  V30 2318 C 86.289 54.215 43.834 0
M  V30 2319 C 85.137 53.556 44.071 0
M  V30 2320 C 85.05 52.044 44.154 0
M  V30 2321 C 86.199 51.319 43.366 0
M  V30 2322 C 87.537 51.993 43.772 0
M  V30 2323 C 87.563 53.493 43.451 0
M  V30 2324 C 85.992 51.415 41.832 0
M  V30 2325 C 83.651 51.562 43.784 0
M  V30 2326 C 82.836 52.288 42.868 0
M  V30 2327 C 81.555 51.828 42.52 0
M  V30 2328 C 81.105 50.648 43.102 0
M  V30 2329 C 81.873 49.947 43.99 0
M  V30 2330 C 83.145 50.371 44.36 0
M  V30 2331 C 81.147 48.843 44.381 0
M  V30 2332 C 79.943 48.936 43.689 0
M  V30 2333 N 79.923 50.04 42.909 0
M  V30 2334 H 79.192 50.338 42.32 0
M  V30 2335 C 86.253 49.85 43.777 0
M  V30 2336 C 86.468 48.855 42.901 0
M  V30 2337 C 86.512 47.422 43.278 0
M  V30 2338 C 85.556 46.939 44.21 0
M  V30 2339 C 85.543 45.589 44.602 0
M  V30 2340 C 86.49 44.739 44.039 0
M  V30 2341 C 87.408 45.188 43.13 0
M  V30 2342 C 87.451 46.517 42.719 0
M  V30 2343 C 88.182 44.11 42.759 0
M  V30 2344 C 87.68 43.035 43.486 0
M  V30 2345 N 86.646 43.424 44.267 0
M  V30 2346 H 86.116 42.861 44.875 0
M  V30 2347 C 84.837 56.85 45.091 0
M  V30 2348 C 85.302 55.54 44.516 0
M  V30 2349 C 84.491 54.466 44.599 0
M  V30 2350 C 84.888 53.089 44.101 0
M  V30 2351 C 85.989 53.135 42.982 0
M  V30 2352 C 87.115 54.081 43.477 0
M  V30 2353 C 86.61 55.503 43.756 0
M  V30 2354 C 85.414 53.64 41.633 0
M  V30 2355 C 83.655 52.276 43.72 0
M  V30 2356 C 82.698 52.775 42.791 0
M  V30 2357 C 81.574 52.012 42.432 0
M  V30 2358 C 81.421 50.76 43.018 0
M  V30 2359 C 82.328 50.274 43.919 0
M  V30 2360 C 83.452 51 44.3 0
M  V30 2361 C 81.891 49.026 44.31 0
M  V30 2362 C 80.71 48.817 43.605 0
M  V30 2363 N 80.428 49.879 42.817 0
M  V30 2364 H 79.653 49.984 42.218 0
M  V30 2365 C 86.579 51.741 42.788 0
M  V30 2366 C 87.901 51.502 42.772 0
M  V30 2367 C 88.492 50.157 42.574 0
M  V30 2368 C 89.842 50.07 42.144 0
M  V30 2369 C 90.46 48.823 41.945 0
M  V30 2370 C 89.711 47.678 42.194 0
M  V30 2371 C 88.414 47.747 42.622 0
M  V30 2372 C 87.769 48.964 42.83 0
M  V30 2373 C 87.964 46.455 42.788 0
M  V30 2374 C 89.043 45.648 42.439 0
M  V30 2375 N 90.108 46.4 42.077 0
M  V30 2376 H 90.992 46.077 41.788 0
M  V30 2377 C 89.967 52.347 41.196 0
M  V30 2378 C 88.805 51.641 41.838 0
M  V30 2379 C 88.658 50.315 41.644 0
M  V30 2380 C 87.492 49.521 42.2 0
M  V30 2381 C 86.845 50.186 43.467 0
M  V30 2382 C 86.612 51.685 43.138 0
M  V30 2383 C 87.912 52.419 42.781 0
M  V30 2384 C 87.754 50.044 44.716 0
M  V30 2385 C 87.879 48.059 42.401 0
M  V30 2386 C 89.242 47.647 42.388 0
M  V30 2387 C 89.592 46.301 42.591 0
M  V30 2388 C 88.566 45.385 42.797 0
M  V30 2389 C 87.253 45.766 42.802 0
M  V30 2390 C 86.868 47.088 42.603 0
M  V30 2391 C 86.496 44.636 43.025 0
M  V30 2392 C 87.417 43.601 43.147 0
M  V30 2393 N 88.68 44.063 43.008 0
M  V30 2394 H 89.513 43.539 43.051 0
M  V30 2395 C 85.493 49.537 43.752 0
M  V30 2396 C 84.332 50.041 43.303 0
M  V30 2397 C 83.009 49.431 43.578 0
M  V30 2398 C 81.851 50.244 43.448 0
M  V30 2399 C 80.569 49.72 43.689 0
M  V30 2400 C 80.469 48.38 44.047 0
M  V30 2401 C 81.575 47.583 44.162 0
M  V30 2402 C 82.86 48.066 43.931 0
M  V30 2403 C 81.14 46.323 44.512 0
M  V30 2404 C 79.755 46.427 44.595 0
M  V30 2405 N 79.35 47.686 44.31 0
M  V30 2406 H 78.425 48.023 44.298 0
M  V30 2407 C 83.669 55.305 48.817 0
M  V30 2408 C 84.384 54.236 48.037 0
M  V30 2409 C 83.894 53.863 46.838 0
M  V30 2410 C 84.508 52.758 46 0
M  V30 2411 C 86.028 52.521 46.315 0
M  V30 2412 C 86.175 52.431 47.857 0
M  V30 2413 C 85.696 53.703 48.57 0
M  V30 2414 C 86.914 53.665 45.755 0
M  V30 2415 C 84.211 52.973 44.52 0
M  V30 2416 C 83.697 51.921 43.709 0
M  V30 2417 C 83.41 52.132 42.349 0
M  V30 2418 C 83.651 53.395 41.82 0
M  V30 2419 C 84.154 54.411 42.586 0
M  V30 2420 C 84.451 54.239 43.934 0
M  V30 2421 C 84.279 55.517 41.773 0
M  V30 2422 C 83.833 55.101 40.523 0
M  V30 2423 N 83.45 53.805 40.556 0
M  V30 2424 H 83.096 53.271 39.809 0
M  V30 2425 C 86.476 51.194 45.707 0
M  V30 2426 C 87.211 51.116 44.586 0
M  V30 2427 C 87.646 49.837 43.975 0
M  V30 2428 C 86.671 48.829 43.753 0
M  V30 2429 C 87.022 47.598 43.171 0
M  V30 2430 C 88.351 47.404 42.808 0
M  V30 2431 C 89.297 48.372 43.004 0
M  V30 2432 C 88.987 49.602 43.577 0
M  V30 2433 C 90.494 47.879 42.532 0
M  V30 2434 C 90.202 46.602 42.064 0
M  V30 2435 N 88.891 46.316 42.236 0
M  V30 2436 H 88.428 45.483 41.99 0
M  V30 2437 C 86.457 51.717 49.364 0
M  V30 2438 C 85.966 52.184 48.022 0
M  V30 2439 C 86.795 52.111 46.961 0
M  V30 2440 C 86.417 52.607 45.579 0
M  V30 2441 C 84.865 52.632 45.339 0
M  V30 2442 C 84.216 53.329 46.563 0
M  V30 2443 C 84.519 52.605 47.883 0
M  V30 2444 C 84.29 51.201 45.165 0
M  V30 2445 C 87.195 51.857 44.503 0
M  V30 2446 C 87.642 50.52 44.71 0
M  V30 2447 C 88.344 49.83 43.707 0
M  V30 2448 C 88.595 50.494 42.512 0
M  V30 2449 C 88.18 51.781 42.304 0
M  V30 2450 C 87.485 52.497 43.273 0
M  V30 2451 C 88.585 52.145 41.038 0
M  V30 2452 C 89.241 51.028 40.531 0
M  V30 2453 N 89.244 50.022 41.435 0
M  V30 2454 H 89.641 49.128 41.326 0
M  V30 2455 C 84.553 53.454 44.092 0
M  V30 2456 C 83.682 53.053 43.151 0
M  V30 2457 C 83.374 53.833 41.928 0
M  V30 2458 C 82.017 54.145 41.65 0
M  V30 2459 C 81.663 54.887 40.51 0
M  V30 2460 C 82.686 55.316 39.669 0
M  V30 2461 C 83.998 55.034 39.932 0
M  V30 2462 C 84.386 54.301 41.051 0
M  V30 2463 C 84.751 55.604 38.929 0
M  V30 2464 C 83.829 56.216 38.086 0
M  V30 2465 N 82.568 56.037 38.543 0
M  V30 2466 H 81.736 56.368 38.134 0
M  V30 2467 C 88.821 47.639 42.57 0
M  V30 2468 C 88.023 48.724 43.239 0
M  V30 2469 C 86.688 48.762 43.056 0
M  V30 2470 C 85.803 49.846 43.639 0
M  V30 2471 C 86.421 50.523 44.914 0
M  V30 2472 C 87.891 50.889 44.58 0
M  V30 2473 C 88.73 49.662 44.194 0
M  V30 2474 C 86.366 49.582 46.146 0
M  V30 2475 C 84.381 49.332 43.842 0
M  V30 2476 C 83.299 50.226 44.084 0
M  V30 2477 C 81.989 49.745 44.254 0
M  V30 2478 C 81.784 48.372 44.185 0
M  V30 2479 C 82.816 47.502 43.962 0
M  V30 2480 C 84.126 47.94 43.792 0
M  V30 2481 C 82.288 46.229 43.956 0
M  V30 2482 C 80.926 46.399 44.18 0
M  V30 2483 N 80.623 47.71 44.319 0
M  V30 2484 H 79.734 48.1 44.484 0
M  V30 2485 C 85.662 51.809 45.229 0
M  V30 2486 C 86.137 52.754 46.057 0
M  V30 2487 C 85.41 54.004 46.383 0
M  V30 2488 C 84.369 53.948 47.347 0
M  V30 2489 C 83.649 55.101 47.704 0
M  V30 2490 C 83.995 56.301 47.09 0
M  V30 2491 C 85.004 56.372 46.17 0
M  V30 2492 C 85.739 55.251 45.792 0
M  V30 2493 C 85.104 57.686 45.767 0
M  V30 2494 C 84.12 58.36 46.483 0
M  V30 2495 N 83.445 57.51 47.29 0
M  V30 2496 H 82.704 57.731 47.899 0
M  V30 2497 C 84.21 58.877 46.191 0
M  V30 2498 C 84.874 57.715 45.505 0
M  V30 2499 C 85.473 56.768 46.255 0
M  V30 2500 C 86.218 55.588 45.661 0
M  V30 2501 C 85.735 55.226 44.211 0
M  V30 2502 C 85.69 56.543 43.393 0
M  V30 2503 C 84.741 57.584 44.003 0
M  V30 2504 C 84.338 54.551 44.224 0
M  V30 2505 C 86.216 54.406 46.625 0
M  V30 2506 C 85.508 54.46 47.86 0
M  V30 2507 C 85.498 53.36 48.735 0
M  V30 2508 C 86.205 52.222 48.361 0
M  V30 2509 C 86.896 52.162 47.182 0
M  V30 2510 C 86.931 53.23 46.292 0
M  V30 2511 C 87.484 50.917 47.113 0
M  V30 2512 C 87.107 50.271 48.286 0
M  V30 2513 N 86.325 51.073 49.045 0
M  V30 2514 H 85.926 50.858 49.919 0
M  V30 2515 C 86.743 54.284 43.557 0
M  V30 2516 C 86.458 53.006 43.255 0
M  V30 2517 C 87.426 52.073 42.63 0
M  V30 2518 C 87.846 52.329 41.298 0
M  V30 2519 C 88.767 51.484 40.654 0
M  V30 2520 C 89.263 50.397 41.367 0
M  V30 2521 C 88.878 50.148 42.656 0
M  V30 2522 C 87.968 50.961 43.325 0
M  V30 2523 C 89.551 49.022 43.077 0
M  V30 2524 C 90.329 48.636 41.989 0
M  V30 2525 N 90.15 49.48 40.947 0
M  V30 2526 H 90.581 49.432 40.063 0
M  V30 2527 C 86.522 56.699 44.314 0
M  V30 2528 C 86.067 55.273 44.457 0
M  V30 2529 C 86.49 54.358 43.561 0
M  V30 2530 C 86.045 52.909 43.584 0
M  V30 2531 C 85.583 52.431 45.007 0
M  V30 2532 C 84.604 53.5 45.562 0
M  V30 2533 C 85.249 54.889 45.672 0
M  V30 2534 C 86.786 52.251 45.969 0
M  V30 2535 C 87.097 52.01 42.943 0
M  V30 2536 C 88.277 52.553 42.359 0
M  V30 2537 C 89.249 51.716 41.785 0
M  V30 2538 C 89.021 50.344 41.8 0
M  V30 2539 C 87.887 49.811 42.35 0
M  V30 2540 C 86.902 50.607 42.925 0
M  V30 2541 C 87.962 48.443 42.202 0
M  V30 2542 C 89.17 48.213 41.552 0
M  V30 2543 N 89.814 49.378 41.31 0
M  V30 2544 H 90.684 49.493 40.865 0
M  V30 2545 C 84.834 51.107 44.884 0
M  V30 2546 C 83.648 50.993 44.264 0
M  V30 2547 C 82.901 49.719 44.144 0
M  V30 2548 C 83.632 48.531 43.877 0
M  V30 2549 C 82.98 47.291 43.759 0
M  V30 2550 C 81.599 47.262 43.923 0
M  V30 2551 C 80.885 48.397 44.194 0
M  V30 2552 C 81.495 49.642 44.317 0
M  V30 2553 C 79.561 48.033 44.31 0
M  V30 2554 C 79.542 46.658 44.096 0
M  V30 2555 N 80.79 46.192 43.859 0
M  V30 2556 H 81.052 45.26 43.679 0
M  V30 2557 C 91.247 48.927 42.839 0
M  V30 2558 C 89.768 48.793 43.075 0
M  V30 2559 C 89.221 49.393 44.151 0
M  V30 2560 C 87.752 49.273 44.509 0
M  V30 2561 C 86.844 48.943 43.27 0
M  V30 2562 C 87.505 47.763 42.51 0
M  V30 2563 C 88.925 48.093 42.03 0
M  V30 2564 C 86.687 50.168 42.332 0
M  V30 2565 C 87.288 50.487 45.307 0
M  V30 2566 C 87.181 51.772 44.702 0
M  V30 2567 C 86.737 52.883 45.44 0
M  V30 2568 C 86.413 52.689 46.779 0
M  V30 2569 C 86.521 51.462 47.373 0
M  V30 2570 C 86.958 50.34 46.676 0
M  V30 2571 C 86.134 51.606 48.688 0
M  V30 2572 C 85.802 52.95 48.825 0
M  V30 2573 N 85.974 53.607 47.655 0
M  V30 2574 H 85.811 54.563 47.482 0
M  V30 2575 C 85.465 48.497 43.751 0
M  V30 2576 C 84.343 49.187 43.49 0
M  V30 2577 C 82.997 48.776 43.957 0
M  V30 2578 C 82.106 49.782 44.417 0
M  V30 2579 C 80.814 49.455 44.866 0
M  V30 2580 C 80.433 48.117 44.835 0
M  V30 2581 C 81.277 47.141 44.381 0
M  V30 2582 C 82.562 47.427 43.929 0
M  V30 2583 C 80.602 45.942 44.465 0
M  V30 2584 C 79.351 46.265 44.982 0
M  V30 2585 N 79.253 47.596 45.206 0
M  V30 2586 H 78.476 48.081 45.566 0
M  V30 2587 C 86.281 55.719 43.829 0
M  V30 2588 C 86.289 54.215 43.834 0
M  V30 2589 C 85.137 53.556 44.071 0
M  V30 2590 C 85.05 52.044 44.154 0
M  V30 2591 C 86.199 51.319 43.366 0
M  V30 2592 C 87.537 51.993 43.772 0
M  V30 2593 C 87.563 53.493 43.451 0
M  V30 2594 C 85.992 51.415 41.832 0
M  V30 2595 C 83.651 51.562 43.784 0
M  V30 2596 C 82.836 52.288 42.868 0
M  V30 2597 C 81.555 51.828 42.52 0
M  V30 2598 C 81.105 50.648 43.102 0
M  V30 2599 C 81.873 49.947 43.99 0
M  V30 2600 C 83.145 50.371 44.36 0
M  V30 2601 C 81.147 48.843 44.381 0
M  V30 2602 C 79.943 48.936 43.689 0
M  V30 2603 N 79.923 50.04 42.909 0
M  V30 2604 H 79.192 50.338 42.32 0
M  V30 2605 C 86.253 49.85 43.777 0
M  V30 2606 C 86.468 48.855 42.901 0
M  V30 2607 C 86.512 47.422 43.278 0
M  V30 2608 C 85.556 46.939 44.21 0
M  V30 2609 C 85.543 45.589 44.602 0
M  V30 2610 C 86.49 44.739 44.039 0
M  V30 2611 C 87.408 45.188 43.13 0
M  V30 2612 C 87.451 46.517 42.719 0
M  V30 2613 C 88.182 44.11 42.759 0
M  V30 2614 C 87.68 43.035 43.486 0
M  V30 2615 N 86.646 43.424 44.267 0
M  V30 2616 H 86.116 42.861 44.875 0
M  V30 2617 C 84.837 56.85 45.091 0
M  V30 2618 C 85.302 55.54 44.516 0
M  V30 2619 C 84.491 54.466 44.599 0
M  V30 2620 C 84.888 53.089 44.101 0
M  V30 2621 C 85.989 53.135 42.982 0
M  V30 2622 C 87.115 54.081 43.477 0
M  V30 2623 C 86.61 55.503 43.756 0
M  V30 2624 C 85.414 53.64 41.633 0
M  V30 2625 C 83.655 52.276 43.72 0
M  V30 2626 C 82.698 52.775 42.791 0
M  V30 2627 C 81.574 52.012 42.432 0
M  V30 2628 C 81.421 50.76 43.018 0
M  V30 2629 C 82.328 50.274 43.919 0
M  V30 2630 C 83.452 51 44.3 0
M  V30 2631 C 81.891 49.026 44.31 0
M  V30 2632 C 80.71 48.817 43.605 0
M  V30 2633 N 80.428 49.879 42.817 0
M  V30 2634 H 79.653 49.984 42.218 0
M  V30 2635 C 86.579 51.741 42.788 0
M  V30 2636 C 87.901 51.502 42.772 0
M  V30 2637 C 88.492 50.157 42.574 0
M  V30 2638 C 89.842 50.07 42.144 0
M  V30 2639 C 90.46 48.823 41.945 0
M  V30 2640 C 89.711 47.678 42.194 0
M  V30 2641 C 88.414 47.747 42.622 0
M  V30 2642 C 87.769 48.964 42.83 0
M  V30 2643 C 87.964 46.455 42.788 0
M  V30 2644 C 89.043 45.648 42.439 0
M  V30 2645 N 90.108 46.4 42.077 0
M  V30 2646 H 90.992 46.077 41.788 0
M  V30 2647 C 89.967 52.347 41.196 0
M  V30 2648 C 88.805 51.641 41.838 0
M  V30 2649 C 88.658 50.315 41.644 0
M  V30 2650 C 87.492 49.521 42.2 0
M  V30 2651 C 86.845 50.186 43.467 0
M  V30 2652 C 86.612 51.685 43.138 0
M  V30 2653 C 87.912 52.419 42.781 0
M  V30 2654 C 87.754 50.044 44.716 0
M  V30 2655 C 87.879 48.059 42.401 0
M  V30 2656 C 89.242 47.647 42.388 0
M  V30 2657 C 89.592 46.301 42.591 0
M  V30 2658 C 88.566 45.385 42.797 0
M  V30 2659 C 87.253 45.766 42.802 0
M  V30 2660 C 86.868 47.088 42.603 0
M  V30 2661 C 86.496 44.636 43.025 0
M  V30 2662 C 87.417 43.601 43.147 0
M  V30 2663 N 88.68 44.063 43.008 0
M  V30 2664 H 89.513 43.539 43.051 0
M  V30 2665 C 85.493 49.537 43.752 0
M  V30 2666 C 84.332 50.041 43.303 0
M  V30 2667 C 83.009 49.431 43.578 0
M  V30 2668 C 81.851 50.244 43.448 0
M  V30 2669 C 80.569 49.72 43.689 0
M  V30 2670 C 80.469 48.38 44.047 0
M  V30 2671 C 81.575 47.583 44.162 0
M  V30 2672 C 82.86 48.066 43.931 0
M  V30 2673 C 81.14 46.323 44.512 0
M  V30 2674 C 79.755 46.427 44.595 0
M  V30 2675 N 79.35 47.686 44.31 0
M  V30 2676 H 78.425 48.023 44.298 0
M  V30 2677 C 83.669 55.305 48.817 0
M  V30 2678 C 84.384 54.236 48.037 0
M  V30 2679 C 83.894 53.863 46.838 0
M  V30 2680 C 84.508 52.758 46 0
M  V30 2681 C 86.028 52.521 46.315 0
M  V30 2682 C 86.175 52.431 47.857 0
M  V30 2683 C 85.696 53.703 48.57 0
M  V30 2684 C 86.914 53.665 45.755 0
M  V30 2685 C 84.211 52.973 44.52 0
M  V30 2686 C 83.697 51.921 43.709 0
M  V30 2687 C 83.41 52.132 42.349 0
M  V30 2688 C 83.651 53.395 41.82 0
M  V30 2689 C 84.154 54.411 42.586 0
M  V30 2690 C 84.451 54.239 43.934 0
M  V30 2691 C 84.279 55.517 41.773 0
M  V30 2692 C 83.833 55.101 40.523 0
M  V30 2693 N 83.45 53.805 40.556 0
M  V30 2694 H 83.096 53.271 39.809 0
M  V30 2695 C 86.476 51.194 45.707 0
M  V30 2696 C 87.211 51.116 44.586 0
M  V30 2697 C 87.646 49.837 43.975 0
M  V30 2698 C 86.671 48.829 43.753 0
M  V30 2699 C 87.022 47.598 43.171 0
M  V30 2700 C 88.351 47.404 42.808 0
M  V30 2701 C 89.297 48.372 43.004 0
M  V30 2702 C 88.987 49.602 43.577 0
M  V30 2703 C 90.494 47.879 42.532 0
M  V30 2704 C 90.202 46.602 42.064 0
M  V30 2705 N 88.891 46.316 42.236 0
M  V30 2706 H 88.428 45.483 41.99 0
M  V30 2707 C 86.457 51.717 49.364 0
M  V30 2708 C 85.966 52.184 48.022 0
M  V30 2709 C 86.795 52.111 46.961 0
M  V30 2710 C 86.417 52.607 45.579 0
M  V30 2711 C 84.865 52.632 45.339 0
M  V30 2712 C 84.216 53.329 46.563 0
M  V30 2713 C 84.519 52.605 47.883 0
M  V30 2714 C 84.29 51.201 45.165 0
M  V30 2715 C 87.195 51.857 44.503 0
M  V30 2716 C 87.642 50.52 44.71 0
M  V30 2717 C 88.344 49.83 43.707 0
M  V30 2718 C 88.595 50.494 42.512 0
M  V30 2719 C 88.18 51.781 42.304 0
M  V30 2720 C 87.485 52.497 43.273 0
M  V30 2721 C 88.585 52.145 41.038 0
M  V30 2722 C 89.241 51.028 40.531 0
M  V30 2723 N 89.244 50.022 41.435 0
M  V30 2724 H 89.641 49.128 41.326 0
M  V30 2725 C 84.553 53.454 44.092 0
M  V30 2726 C 83.682 53.053 43.151 0
M  V30 2727 C 83.374 53.833 41.928 0
M  V30 2728 C 82.017 54.145 41.65 0
M  V30 2729 C 81.663 54.887 40.51 0
M  V30 2730 C 82.686 55.316 39.669 0
M  V30 2731 C 83.998 55.034 39.932 0
M  V30 2732 C 84.386 54.301 41.051 0
M  V30 2733 C 84.751 55.604 38.929 0
M  V30 2734 C 83.829 56.216 38.086 0
M  V30 2735 N 82.568 56.037 38.543 0
M  V30 2736 H 81.736 56.368 38.134 0
M  V30 2737 C 88.821 47.639 42.57 0
M  V30 2738 C 88.023 48.724 43.239 0
M  V30 2739 C 86.688 48.762 43.056 0
M  V30 2740 C 85.803 49.846 43.639 0
M  V30 2741 C 86.421 50.523 44.914 0
M  V30 2742 C 87.891 50.889 44.58 0
M  V30 2743 C 88.73 49.662 44.194 0
M  V30 2744 C 86.366 49.582 46.146 0
M  V30 2745 C 84.381 49.332 43.842 0
M  V30 2746 C 83.299 50.226 44.084 0
M  V30 2747 C 81.989 49.745 44.254 0
M  V30 2748 C 81.784 48.372 44.185 0
M  V30 2749 C 82.816 47.502 43.962 0
M  V30 2750 C 84.126 47.94 43.792 0
M  V30 2751 C 82.288 46.229 43.956 0
M  V30 2752 C 80.926 46.399 44.18 0
M  V30 2753 N 80.623 47.71 44.319 0
M  V30 2754 H 79.734 48.1 44.484 0
M  V30 2755 C 85.662 51.809 45.229 0
M  V30 2756 C 86.137 52.754 46.057 0
M  V30 2757 C 85.41 54.004 46.383 0
M  V30 2758 C 84.369 53.948 47.347 0
M  V30 2759 C 83.649 55.101 47.704 0
M  V30 2760 C 83.995 56.301 47.09 0
M  V30 2761 C 85.004 56.372 46.17 0
M  V30 2762 C 85.739 55.251 45.792 0
M  V30 2763 C 85.104 57.686 45.767 0
M  V30 2764 C 84.12 58.36 46.483 0
M  V30 2765 N 83.445 57.51 47.29 0
M  V30 2766 H 82.704 57.731 47.899 0
M  V30 2767 C 84.21 58.877 46.191 0
M  V30 2768 C 84.874 57.715 45.505 0
M  V30 2769 C 85.473 56.768 46.255 0
M  V30 2770 C 86.218 55.588 45.661 0
M  V30 2771 C 85.735 55.226 44.211 0
M  V30 2772 C 85.69 56.543 43.393 0
M  V30 2773 C 84.741 57.584 44.003 0
M  V30 2774 C 84.338 54.551 44.224 0
M  V30 2775 C 86.216 54.406 46.625 0
M  V30 2776 C 85.508 54.46 47.86 0
M  V30 2777 C 85.498 53.36 48.735 0
M  V30 2778 C 86.205 52.222 48.361 0
M  V30 2779 C 86.896 52.162 47.182 0
M  V30 2780 C 86.931 53.23 46.292 0
M  V30 2781 C 87.484 50.917 47.113 0
M  V30 2782 C 87.107 50.271 48.286 0
M  V30 2783 N 86.325 51.073 49.045 0
M  V30 2784 H 85.926 50.858 49.919 0
M  V30 2785 C 86.743 54.284 43.557 0
M  V30 2786 C 86.458 53.006 43.255 0
M  V30 2787 C 87.426 52.073 42.63 0
M  V30 2788 C 87.846 52.329 41.298 0
M  V30 2789 C 88.767 51.484 40.654 0
M  V30 2790 C 89.263 50.397 41.367 0
M  V30 2791 C 88.878 50.148 42.656 0
M  V30 2792 C 87.968 50.961 43.325 0
M  V30 2793 C 89.551 49.022 43.077 0
M  V30 2794 C 90.329 48.636 41.989 0
M  V30 2795 N 90.15 49.48 40.947 0
M  V30 2796 H 90.581 49.432 40.063 0
M  V30 2797 C 86.522 56.699 44.314 0
M  V30 2798 C 86.067 55.273 44.457 0
M  V30 2799 C 86.49 54.358 43.561 0
M  V30 2800 C 86.045 52.909 43.584 0
M  V30 2801 C 85.583 52.431 45.007 0
M  V30 2802 C 84.604 53.5 45.562 0
M  V30 2803 C 85.249 54.889 45.672 0
M  V30 2804 C 86.786 52.251 45.969 0
M  V30 2805 C 87.097 52.01 42.943 0
M  V30 2806 C 88.277 52.553 42.359 0
M  V30 2807 C 89.249 51.716 41.785 0
M  V30 2808 C 89.021 50.344 41.8 0
M  V30 2809 C 87.887 49.811 42.35 0
M  V30 2810 C 86.902 50.607 42.925 0
M  V30 2811 C 87.962 48.443 42.202 0
M  V30 2812 C 89.17 48.213 41.552 0
M  V30 2813 N 89.814 49.378 41.31 0
M  V30 2814 H 90.684 49.493 40.865 0
M  V30 2815 C 84.834 51.107 44.884 0
M  V30 2816 C 83.648 50.993 44.264 0
M  V30 2817 C 82.901 49.719 44.144 0
M  V30 2818 C 83.632 48.531 43.877 0
M  V30 2819 C 82.98 47.291 43.759 0
M  V30 2820 C 81.599 47.262 43.923 0
M  V30 2821 C 80.885 48.397 44.194 0
M  V30 2822 C 81.495 49.642 44.317 0
M  V30 2823 C 79.561 48.033 44.31 0
M  V30 2824 C 79.542 46.658 44.096 0
M  V30 2825 N 80.79 46.192 43.859 0
M  V30 2826 H 81.052 45.26 43.679 0
M  V30 2827 C 91.247 48.927 42.839 0
M  V30 2828 C 89.768 48.793 43.075 0
M  V30 2829 C 89.221 49.393 44.151 0
M  V30 2830 C 87.752 49.273 44.509 0
M  V30 2831 C 86.844 48.943 43.27 0
M  V30 2832 C 87.505 47.763 42.51 0
M  V30 2833 C 88.925 48.093 42.03 0
M  V30 2834 C 86.687 50.168 42.332 0
M  V30 2835 C 87.288 50.487 45.307 0
M  V30 2836 C 87.181 51.772 44.702 0
M  V30 2837 C 86.737 52.883 45.44 0
M  V30 2838 C 86.413 52.689 46.779 0
M  V30 2839 C 86.521 51.462 47.373 0
M  V30 2840 C 86.958 50.34 46.676 0
M  V30 2841 C 86.134 51.606 48.688 0
M  V30 2842 C 85.802 52.95 48.825 0
M  V30 2843 N 85.974 53.607 47.655 0
M  V30 2844 H 85.811 54.563 47.482 0
M  V30 2845 C 85.465 48.497 43.751 0
M  V30 2846 C 84.343 49.187 43.49 0
M  V30 2847 C 82.997 48.776 43.957 0
M  V30 2848 C 82.106 49.782 44.417 0
M  V30 2849 C 80.814 49.455 44.866 0
M  V30 2850 C 80.433 48.117 44.835 0
M  V30 2851 C 81.277 47.141 44.381 0
M  V30 2852 C 82.562 47.427 43.929 0
M  V30 2853 C 80.602 45.942 44.465 0
M  V30 2854 C 79.351 46.265 44.982 0
M  V30 2855 N 79.253 47.596 45.206 0
M  V30 2856 H 78.476 48.081 45.566 0
M  V30 2857 C 86.281 55.719 43.829 0
M  V30 2858 C 86.289 54.215 43.834 0
M  V30 2859 C 85.137 53.556 44.071 0
M  V30 2860 C 85.05 52.044 44.154 0
M  V30 2861 C 86.199 51.319 43.366 0
M  V30 2862 C 87.537 51.993 43.772 0
M  V30 2863 C 87.563 53.493 43.451 0
M  V30 2864 C 85.992 51.415 41.832 0
M  V30 2865 C 83.651 51.562 43.784 0
M  V30 2866 C 82.836 52.288 42.868 0
M  V30 2867 C 81.555 51.828 42.52 0
M  V30 2868 C 81.105 50.648 43.102 0
M  V30 2869 C 81.873 49.947 43.99 0
M  V30 2870 C 83.145 50.371 44.36 0
M  V30 2871 C 81.147 48.843 44.381 0
M  V30 2872 C 79.943 48.936 43.689 0
M  V30 2873 N 79.923 50.04 42.909 0
M  V30 2874 H 79.192 50.338 42.32 0
M  V30 2875 C 86.253 49.85 43.777 0
M  V30 2876 C 86.468 48.855 42.901 0
M  V30 2877 C 86.512 47.422 43.278 0
M  V30 2878 C 85.556 46.939 44.21 0
M  V30 2879 C 85.543 45.589 44.602 0
M  V30 2880 C 86.49 44.739 44.039 0
M  V30 2881 C 87.408 45.188 43.13 0
M  V30 2882 C 87.451 46.517 42.719 0
M  V30 2883 C 88.182 44.11 42.759 0
M  V30 2884 C 87.68 43.035 43.486 0
M  V30 2885 N 86.646 43.424 44.267 0
M  V30 2886 H 86.116 42.861 44.875 0
M  V30 2887 C 84.837 56.85 45.091 0
M  V30 2888 C 85.302 55.54 44.516 0
M  V30 2889 C 84.491 54.466 44.599 0
M  V30 2890 C 84.888 53.089 44.101 0
M  V30 2891 C 85.989 53.135 42.982 0
M  V30 2892 C 87.115 54.081 43.477 0
M  V30 2893 C 86.61 55.503 43.756 0
M  V30 2894 C 85.414 53.64 41.633 0
M  V30 2895 C 83.655 52.276 43.72 0
M  V30 2896 C 82.698 52.775 42.791 0
M  V30 2897 C 81.574 52.012 42.432 0
M  V30 2898 C 81.421 50.76 43.018 0
M  V30 2899 C 82.328 50.274 43.919 0
M  V30 2900 C 83.452 51 44.3 0
M  V30 2901 C 81.891 49.026 44.31 0
M  V30 2902 C 80.71 48.817 43.605 0
M  V30 2903 N 80.428 49.879 42.817 0
M  V30 2904 H 79.653 49.984 42.218 0
M  V30 2905 C 86.579 51.741 42.788 0
M  V30 2906 C 87.901 51.502 42.772 0
M  V30 2907 C 88.492 50.157 42.574 0
M  V30 2908 C 89.842 50.07 42.144 0
M  V30 2909 C 90.46 48.823 41.945 0
M  V30 2910 C 89.711 47.678 42.194 0
M  V30 2911 C 88.414 47.747 42.622 0
M  V30 2912 C 87.769 48.964 42.83 0
M  V30 2913 C 87.964 46.455 42.788 0
M  V30 2914 C 89.043 45.648 42.439 0
M  V30 2915 N 90.108 46.4 42.077 0
M  V30 2916 H 90.992 46.077 41.788 0
M  V30 2917 C 89.967 52.347 41.196 0
M  V30 2918 C 88.805 51.641 41.838 0
M  V30 2919 C 88.658 50.315 41.644 0
M  V30 2920 C 87.492 49.521 42.2 0
M  V30 2921 C 86.845 50.186 43.467 0
M  V30 2922 C 86.612 51.685 43.138 0
M  V30 2923 C 87.912 52.419 42.781 0
M  V30 2924 C 87.754 50.044 44.716 0
M  V30 2925 C 87.879 48.059 42.401 0
M  V30 2926 C 89.242 47.647 42.388 0
M  V30 2927 C 89.592 46.301 42.591 0
M  V30 2928 C 88.566 45.385 42.797 0
M  V30 2929 C 87.253 45.766 42.802 0
M  V30 2930 C 86.868 47.088 42.603 0
M  V30 2931 C 86.496 44.636 43.025 0
M  V30 2932 C 87.417 43.601 43.147 0
M  V30 2933 N 88.68 44.063 43.008 0
M  V30 2934 H 89.513 43.539 43.051 0
M  V30 2935 C 85.493 49.537 43.752 0
M  V30 2936 C 84.332 50.041 43.303 0
M  V30 2937 C 83.009 49.431 43.578 0
M  V30 2938 C 81.851 50.244 43.448 0
M  V30 2939 C 80.569 49.72 43.689 0
M  V30 2940 C 80.469 48.38 44.047 0
M  V30 2941 C 81.575 47.583 44.162 0
M  V30 2942 C 82.86 48.066 43.931 0
M  V30 2943 C 81.14 46.323 44.512 0
M  V30 2944 C 79.755 46.427 44.595 0
M  V30 2945 N 79.35 47.686 44.31 0
M  V30 2946 H 78.425 48.023 44.298 0
M  V30 2947 C 83.669 55.305 48.817 0
M  V30 2948 C 84.384 54.236 48.037 0
M  V30 2949 C 83.894 53.863 46.838 0
M  V30 2950 C 84.508 52.758 46 0
M  V30 2951 C 86.028 52.521 46.315 0
M  V30 2952 C 86.175 52.431 47.857 0
M  V30 2953 C 85.696 53.703 48.57 0
M  V30 2954 C 86.914 53.665 45.755 0
M  V30 2955 C 84.211 52.973 44.52 0
M  V30 2956 C 83.697 51.921 43.709 0
M  V30 2957 C 83.41 52.132 42.349 0
M  V30 2958 C 83.651 53.395 41.82 0
M  V30 2959 C 84.154 54.411 42.586 0
M  V30 2960 C 84.451 54.239 43.934 0
M  V30 2961 C 84.279 55.517 41.773 0
M  V30 2962 C 83.833 55.101 40.523 0
M  V30 2963 N 83.45 53.805 40.556 0
M  V30 2964 H 83.096 53.271 39.809 0
M  V30 2965 C 86.476 51.194 45.707 0
M  V30 2966 C 87.211 51.116 44.586 0
M  V30 2967 C 87.646 49.837 43.975 0
M  V30 2968 C 86.671 48.829 43.753 0
M  V30 2969 C 87.022 47.598 43.171 0
M  V30 2970 C 88.351 47.404 42.808 0
M  V30 2971 C 89.297 48.372 43.004 0
M  V30 2972 C 88.987 49.602 43.577 0
M  V30 2973 C 90.494 47.879 42.532 0
M  V30 2974 C 90.202 46.602 42.064 0
M  V30 2975 N 88.891 46.316 42.236 0
M  V30 2976 H 88.428 45.483 41.99 0
M  V30 2977 C 86.457 51.717 49.364 0
M  V30 2978 C 85.966 52.184 48.022 0
M  V30 2979 C 86.795 52.111 46.961 0
M  V30 2980 C 86.417 52.607 45.579 0
M  V30 2981 C 84.865 52.632 45.339 0
M  V30 2982 C 84.216 53.329 46.563 0
M  V30 2983 C 84.519 52.605 47.883 0
M  V30 2984 C 84.29 51.201 45.165 0
M  V30 2985 C 87.195 51.857 44.503 0
M  V30 2986 C 87.642 50.52 44.71 0
M  V30 2987 C 88.344 49.83 43.707 0
M  V30 2988 C 88.595 50.494 42.512 0
M  V30 2989 C 88.18 51.781 42.304 0
M  V30 2990 C 87.485 52.497 43.273 0
M  V30 2991 C 88.585 52.145 41.038 0
M  V30 2992 C 89.241 51.028 40.531 0
M  V30 2993 N 89.244 50.022 41.435 0
M  V30 2994 H 89.641 49.128 41.326 0
M  V30 2995 C 84.553 53.454 44.092 0
M  V30 2996 C 83.682 53.053 43.151 0
M  V30 2997 C 83.374 53.833 41.928 0
M  V30 2998 C 82.017 54.145 41.65 0
M  V30 2999 C 81.663 54.887 40.51 0
M  V30 3000 C 82.686 55.316 39.669 0
M  V30 3001 C 83.998 55.034 39.932 0
M  V30 3002 C 84.386 54.301 41.051 0
M  V30 3003 C 84.751 55.604 38.929 0
M  V30 3004 C 83.829 56.216 38.086 0
M  V30 3005 N 82.568 56.037 38.543 0
M  V30 3006 H 81.736 56.368 38.134 0
M  V30 3007 C 88.821 47.639 42.57 0
M  V30 3008 C 88.023 48.724 43.239 0
M  V30 3009 C 86.688 48.762 43.056 0
M  V30 3010 C 85.803 49.846 43.639 0
M  V30 3011 C 86.421 50.523 44.914 0
M  V30 3012 C 87.891 50.889 44.58 0
M  V30 3013 C 88.73 49.662 44.194 0
M  V30 3014 C 86.366 49.582 46.146 0
M  V30 3015 C 84.381 49.332 43.842 0
M  V30 3016 C 83.299 50.226 44.084 0
M  V30 3017 C 81.989 49.745 44.254 0
M  V30 3018 C 81.784 48.372 44.185 0
M  V30 3019 C 82.816 47.502 43.962 0
M  V30 3020 C 84.126 47.94 43.792 0
M  V30 3021 C 82.288 46.229 43.956 0
M  V30 3022 C 80.926 46.399 44.18 0
M  V30 3023 N 80.623 47.71 44.319 0
M  V30 3024 H 79.734 48.1 44.484 0
M  V30 3025 C 85.662 51.809 45.229 0
M  V30 3026 C 86.137 52.754 46.057 0
M  V30 3027 C 85.41 54.004 46.383 0
M  V30 3028 C 84.369 53.948 47.347 0
M  V30 3029 C 83.649 55.101 47.704 0
M  V30 3030 C 83.995 56.301 47.09 0
M  V30 3031 C 85.004 56.372 46.17 0
M  V30 3032 C 85.739 55.251 45.792 0
M  V30 3033 C 85.104 57.686 45.767 0
M  V30 3034 C 84.12 58.36 46.483 0
M  V30 3035 N 83.445 57.51 47.29 0
M  V30 3036 H 82.704 57.731 47.899 0
M  V30 3037 C 84.21 58.877 46.191 0
M  V30 3038 C 84.874 57.715 45.505 0
M  V30 3039 C 85.473 56.768 46.255 0
M  V30 3040 C 86.218 55.588 45.661 0
M  V30 3041 C 85.735 55.226 44.211 0
M  V30 3042 C 85.69 56.543 43.393 0
M  V30 3043 C 84.741 57.584 44.003 0
M  V30 3044 C 84.338 54.551 44.224 0
M  V30 3045 C 86.216 54.406 46.625 0
M  V30 3046 C 85.508 54.46 47.86 0
M  V30 3047 C 85.498 53.36 48.735 0
M  V30 3048 C 86.205 52.222 48.361 0
M  V30 3049 C 86.896 52.162 47.182 0
M  V30 3050 C 86.931 53.23 46.292 0
M  V30 3051 C 87.484 50.917 47.113 0
M  V30 3052 C 87.107 50.271 48.286 0
M  V30 3053 N 86.325 51.073 49.045 0
M  V30 3054 H 85.926 50.858 49.919 0
M  V30 3055 C 86.743 54.284 43.557 0
M  V30 3056 C 86.458 53.006 43.255 0
M  V30 3057 C 87.426 52.073 42.63 0
M  V30 3058 C 87.846 52.329 41.298 0
M  V30 3059 C 88.767 51.484 40.654 0
M  V30 3060 C 89.263 50.397 41.367 0
M  V30 3061 C 88.878 50.148 42.656 0
M  V30 3062 C 87.968 50.961 43.325 0
M  V30 3063 C 89.551 49.022 43.077 0
M  V30 3064 C 90.329 48.636 41.989 0
M  V30 3065 N 90.15 49.48 40.947 0
M  V30 3066 H 90.581 49.432 40.063 0
M  V30 3067 C 86.522 56.699 44.314 0
M  V30 3068 C 86.067 55.273 44.457 0
M  V30 3069 C 86.49 54.358 43.561 0
M  V30 3070 C 86.045 52.909 43.584 0
M  V30 3071 C 85.583 52.431 45.007 0
M  V30 3072 C 84.604 53.5 45.562 0
M  V30 3073 C 85.249 54.889 45.672 0
M  V30 3074 C 86.786 52.251 45.969 0
M  V30 3075 C 87.097 52.01 42.943 0
M  V30 3076 C 88.277 52.553 42.359 0
M  V30 3077 C 89.249 51.716 41.785 0
M  V30 3078 C 89.021 50.344 41.8 0
M  V30 3079 C 87.887 49.811 42.35 0
M  V30 3080 C 86.902 50.607 42.925 0
M  V30 3081 C 87.962 48.443 42.202 0
M  V30 3082 C 89.17 48.213 41.552 0
M  V30 3083 N 89.814 49.378 41.31 0
M  V30 3084 H 90.684 49.493 40.865 0
M  V30 3085 C 84.834 51.107 44.884 0
M  V30 3086 C 83.648 50.993 44.264 0
M  V30 3087 C 82.901 49.719 44.144 0
M  V30 3088 C 83.632 48.531 43.877 0
M  V30 3089 C 82.98 47.291 43.759 0
M  V30 3090 C 81.599 47.262 43.923 0
M  V30 3091 C 80.885 48.397 44.194 0
M  V30 3092 C 81.495 49.642 44.317 0
M  V30 3093 C 79.561 48.033 44.31 0
M  V30 3094 C 79.542 46.658 44.096 0
M  V30 3095 N 80.79 46.192 43.859 0
M  V30 3096 H 81.052 45.26 43.679 0
M  V30 3097 C 91.247 48.927 42.839 0
M  V30 3098 C 89.768 48.793 43.075 0
M  V30 3099 C 89.221 49.393 44.151 0
M  V30 3100 C 87.752 49.273 44.509 0
M  V30 3101 C 86.844 48.943 43.27 0
M  V30 3102 C 87.505 47.763 42.51 0
M  V30 3103 C 88.925 48.093 42.03 0
M  V30 3104 C 86.687 50.168 42.332 0
M  V30 3105 C 87.288 50.487 45.307 0
M  V30 3106 C 87.181 51.772 44.702 0
M  V30 3107 C 86.737 52.883 45.44 0
M  V30 3108 C 86.413 52.689 46.779 0
M  V30 3109 C 86.521 51.462 47.373 0
M  V30 3110 C 86.958 50.34 46.676 0
M  V30 3111 C 86.134 51.606 48.688 0
M  V30 3112 C 85.802 52.95 48.825 0
M  V30 3113 N 85.974 53.607 47.655 0
M  V30 3114 H 85.811 54.563 47.482 0
M  V30 3115 C 85.465 48.497 43.751 0
M  V30 3116 C 84.343 49.187 43.49 0
M  V30 3117 C 82.997 48.776 43.957 0
M  V30 3118 C 82.106 49.782 44.417 0
M  V30 3119 C 80.814 49.455 44.866 0
M  V30 3120 C 80.433 48.117 44.835 0
M  V30 3121 C 81.277 47.141 44.381 0
M  V30 3122 C 82.562 47.427 43.929 0
M  V30 3123 C 80.602 45.942 44.465 0
M  V30 3124 C 79.351 46.265 44.982 0
M  V30 3125 N 79.253 47.596 45.206 0
M  V30 3126 H 78.476 48.081 45.566 0
M  V30 3127 C 86.281 55.719 43.829 0
M  V30 3128 C 86.289 54.215 43.834 0
M  V30 3129 C 85.137 53.556 44.071 0
M  V30 3130 C 85.05 52.044 44.154 0
M  V30 3131 C 86.199 51.319 43.366 0
M  V30 3132 C 87.537 51.993 43.772 0
M  V30 3133 C 87.563 53.493 43.451 0
M  V30 3134 C 85.992 51.415 41.832 0
M  V30 3135 C 83.651 51.562 43.784 0
M  V30 3136 C 82.836 52.288 42.868 0
M  V30 3137 C 81.555 51.828 42.52 0
M  V30 3138 C 81.105 50.648 43.102 0
M  V30 3139 C 81.873 49.947 43.99 0
M  V30 3140 C 83.145 50.371 44.36 0
M  V30 3141 C 81.147 48.843 44.381 0
M  V30 3142 C 79.943 48.936 43.689 0
M  V30 3143 N 79.923 50.04 42.909 0
M  V30 3144 H 79.192 50.338 42.32 0
M  V30 3145 C 86.253 49.85 43.777 0
M  V30 3146 C 86.468 48.855 42.901 0
M  V30 3147 C 86.512 47.422 43.278 0
M  V30 3148 C 85.556 46.939 44.21 0
M  V30 3149 C 85.543 45.589 44.602 0
M  V30 3150 C 86.49 44.739 44.039 0
M  V30 3151 C 87.408 45.188 43.13 0
M  V30 3152 C 87.451 46.517 42.719 0
M  V30 3153 C 88.182 44.11 42.759 0
M  V30 3154 C 87.68 43.035 43.486 0
M  V30 3155 N 86.646 43.424 44.267 0
M  V30 3156 H 86.116 42.861 44.875 0
M  V30 3157 C 84.837 56.85 45.091 0
M  V30 3158 C 85.302 55.54 44.516 0
M  V30 3159 C 84.491 54.466 44.599 0
M  V30 3160 C 84.888 53.089 44.101 0
M  V30 3161 C 85.989 53.135 42.982 0
M  V30 3162 C 87.115 54.081 43.477 0
M  V30 3163 C 86.61 55.503 43.756 0
M  V30 3164 C 85.414 53.64 41.633 0
M  V30 3165 C 83.655 52.276 43.72 0
M  V30 3166 C 82.698 52.775 42.791 0
M  V30 3167 C 81.574 52.012 42.432 0
M  V30 3168 C 81.421 50.76 43.018 0
M  V30 3169 C 82.328 50.274 43.919 0
M  V30 3170 C 83.452 51 44.3 0
M  V30 3171 C 81.891 49.026 44.31 0
M  V30 3172 C 80.71 48.817 43.605 0
M  V30 3173 N 80.428 49.879 42.817 0
M  V30 3174 H 79.653 49.984 42.218 0
M  V30 3175 C 86.579 51.741 42.788 0
M  V30 3176 C 87.901 51.502 42.772 0
M  V30 3177 C 88.492 50.157 42.574 0
M  V30 3178 C 89.842 50.07 42.144 0
M  V30 3179 C 90.46 48.823 41.945 0
M  V30 3180 C 89.711 47.678 42.194 0
M  V30 3181 C 88.414 47.747 42.622 0
M  V30 3182 C 87.769 48.964 42.83 0
M  V30 3183 C 87.964 46.455 42.788 0
M  V30 3184 C 89.043 45.648 42.439 0
M  V30 3185 N 90.108 46.4 42.077 0
M  V30 3186 H 90.992 46.077 41.788 0
M  V30 3187 C 89.967 52.347 41.196 0
M  V30 3188 C 88.805 51.641 41.838 0
M  V30 3189 C 88.658 50.315 41.644 0
M  V30 3190 C 87.492 49.521 42.2 0
M  V30 3191 C 86.845 50.186 43.467 0
M  V30 3192 C 86.612 51.685 43.138 0
M  V30 3193 C 87.912 52.419 42.781 0
M  V30 3194 C 87.754 50.044 44.716 0
M  V30 3195 C 87.879 48.059 42.401 0
M  V30 3196 C 89.242 47.647 42.388 0
M  V30 3197 C 89.592 46.301 42.591 0
M  V30 3198 C 88.566 45.385 42.797 0
M  V30 3199 C 87.253 45.766 42.802 0
M  V30 3200 C 86.868 47.088 42.603 0
M  V30 3201 C 86.496 44.636 43.025 0
M  V30 3202 C 87.417 43.601 43.147 0
M  V30 3203 N 88.68 44.063 43.008 0
M  V30 3204 H 89.513 43.539 43.051 0
M  V30 3205 C 85.493 49.537 43.752 0
M  V30 3206 C 84.332 50.041 43.303 0
M  V30 3207 C 83.009 49.431 43.578 0
M  V30 3208 C 81.851 50.244 43.448 0
M  V30 3209 C 80.569 49.72 43.689 0
M  V30 3210 C 80.469 48.38 44.047 0
M  V30 3211 C 81.575 47.583 44.162 0
M  V30 3212 C 82.86 48.066 43.931 0
M  V30 3213 C 81.14 46.323 44.512 0
M  V30 3214 C 79.755 46.427 44.595 0
M  V30 3215 N 79.35 47.686 44.31 0
M  V30 3216 H 78.425 48.023 44.298 0
M  V30 3217 C 83.669 55.305 48.817 0
M  V30 3218 C 84.384 54.236 48.037 0
M  V30 3219 C 83.894 53.863 46.838 0
M  V30 3220 C 84.508 52.758 46 0
M  V30 3221 C 86.028 52.521 46.315 0
M  V30 3222 C 86.175 52.431 47.857 0
M  V30 3223 C 85.696 53.703 48.57 0
M  V30 3224 C 86.914 53.665 45.755 0
M  V30 3225 C 84.211 52.973 44.52 0
M  V30 3226 C 83.697 51.921 43.709 0
M  V30 3227 C 83.41 52.132 42.349 0
M  V30 3228 C 83.651 53.395 41.82 0
M  V30 3229 C 84.154 54.411 42.586 0
M  V30 3230 C 84.451 54.239 43.934 0
M  V30 3231 C 84.279 55.517 41.773 0
M  V30 3232 C 83.833 55.101 40.523 0
M  V30 3233 N 83.45 53.805 40.556 0
M  V30 3234 H 83.096 53.271 39.809 0
M  V30 3235 C 86.476 51.194 45.707 0
M  V30 3236 C 87.211 51.116 44.586 0
M  V30 3237 C 87.646 49.837 43.975 0
M  V30 3238 C 86.671 48.829 43.753 0
M  V30 3239 C 87.022 47.598 43.171 0
M  V30 3240 C 88.351 47.404 42.808 0
M  V30 3241 C 89.297 48.372 43.004 0
M  V30 3242 C 88.987 49.602 43.577 0
M  V30 3243 C 90.494 47.879 42.532 0
M  V30 3244 C 90.202 46.602 42.064 0
M  V30 3245 N 88.891 46.316 42.236 0
M  V30 3246 H 88.428 45.483 41.99 0
M  V30 3247 C 86.457 51.717 49.364 0
M  V30 3248 C 85.966 52.184 48.022 0
M  V30 3249 C 86.795 52.111 46.961 0
M  V30 3250 C 86.417 52.607 45.579 0
M  V30 3251 C 84.865 52.632 45.339 0
M  V30 3252 C 84.216 53.329 46.563 0
M  V30 3253 C 84.519 52.605 47.883 0
M  V30 3254 C 84.29 51.201 45.165 0
M  V30 3255 C 87.195 51.857 44.503 0
M  V30 3256 C 87.642 50.52 44.71 0
M  V30 3257 C 88.344 49.83 43.707 0
M  V30 3258 C 88.595 50.494 42.512 0
M  V30 3259 C 88.18 51.781 42.304 0
M  V30 3260 C 87.485 52.497 43.273 0
M  V30 3261 C 88.585 52.145 41.038 0
M  V30 3262 C 89.241 51.028 40.531 0
M  V30 3263 N 89.244 50.022 41.435 0
M  V30 3264 H 89.641 49.128 41.326 0
M  V30 3265 C 84.553 53.454 44.092 0
M  V30 3266 C 83.682 53.053 43.151 0
M  V30 3267 C 83.374 53.833 41.928 0
M  V30 3268 C 82.017 54.145 41.65 0
M  V30 3269 C 81.663 54.887 40.51 0
M  V30 3270 C 82.686 55.316 39.669 0
M  V30 3271 C 83.998 55.034 39.932 0
M  V30 3272 C 84.386 54.301 41.051 0
M  V30 3273 C 84.751 55.604 38.929 0
M  V30 3274 C 83.829 56.216 38.086 0
M  V30 3275 N 82.568 56.037 38.543 0
M  V30 3276 H 81.736 56.368 38.134 0
M  V30 3277 C 88.821 47.639 42.57 0
M  V30 3278 C 88.023 48.724 43.239 0
M  V30 3279 C 86.688 48.762 43.056 0
M  V30 3280 C 85.803 49.846 43.639 0
M  V30 3281 C 86.421 50.523 44.914 0
M  V30 3282 C 87.891 50.889 44.58 0
M  V30 3283 C 88.73 49.662 44.194 0
M  V30 3284 C 86.366 49.582 46.146 0
M  V30 3285 C 84.381 49.332 43.842 0
M  V30 3286 C 83.299 50.226 44.084 0
M  V30 3287 C 81.989 49.745 44.254 0
M  V30 3288 C 81.784 48.372 44.185 0
M  V30 3289 C 82.816 47.502 43.962 0
M  V30 3290 C 84.126 47.94 43.792 0
M  V30 3291 C 82.288 46.229 43.956 0
M  V30 3292 C 80.926 46.399 44.18 0
M  V30 3293 N 80.623 47.71 44.319 0
M  V30 3294 H 79.734 48.1 44.484 0
M  V30 3295 C 85.662 51.809 45.229 0
M  V30 3296 C 86.137 52.754 46.057 0
M  V30 3297 C 85.41 54.004 46.383 0
M  V30 3298 C 84.369 53.948 47.347 0
M  V30 3299 C 83.649 55.101 47.704 0
M  V30 3300 C 83.995 56.301 47.09 0
M  V30 3301 C 85.004 56.372 46.17 0
M  V30 3302 C 85.739 55.251 45.792 0
M  V30 3303 C 85.104 57.686 45.767 0
M  V30 3304 C 84.12 58.36 46.483 0
M  V30 3305 N 83.445 57.51 47.29 0
M  V30 3306 H 82.704 57.731 47.899 0
M  V30 3307 C 84.21 58.877 46.191 0
M  V30 3308 C 84.874 57.715 45.505 0
M  V30 3309 C 85.473 56.768 46.255 0
M  V30 3310 C 86.218 55.588 45.661 0
M  V30 3311 C 85.735 55.226 44.211 0
M  V30 3312 C 85.69 56.543 43.393 0
M  V30 3313 C 84.741 57.584 44.003 0
M  V30 3314 C 84.338 54.551 44.224 0
M  V30 3315 C 86.216 54.406 46.625 0
M  V30 3316 C 85.508 54.46 47.86 0
M  V30 3317 C 85.498 53.36 48.735 0
M  V30 3318 C 86.205 52.222 48.361 0
M  V30 3319 C 86.896 52.162 47.182 0
M  V30 3320 C 86.931 53.23 46.292 0
M  V30 3321 C 87.484 50.917 47.113 0
M  V30 3322 C 87.107 50.271 48.286 0
M  V30 3323 N 86.325 51.073 49.045 0
M  V30 3324 H 85.926 50.858 49.919 0
M  V30 3325 C 86.743 54.284 43.557 0
M  V30 3326 C 86.458 53.006 43.255 0
M  V30 3327 C 87.426 52.073 42.63 0
M  V30 3328 C 87.846 52.329 41.298 0
M  V30 3329 C 88.767 51.484 40.654 0
M  V30 3330 C 89.263 50.397 41.367 0
M  V30 3331 C 88.878 50.148 42.656 0
M  V30 3332 C 87.968 50.961 43.325 0
M  V30 3333 C 89.551 49.022 43.077 0
M  V30 3334 C 90.329 48.636 41.989 0
M  V30 3335 N 90.15 49.48 40.947 0
M  V30 3336 H 90.581 49.432 40.063 0
M  V30 3337 C 86.522 56.699 44.314 0
M  V30 3338 C 86.067 55.273 44.457 0
M  V30 3339 C 86.49 54.358 43.561 0
M  V30 3340 C 86.045 52.909 43.584 0
M  V30 3341 C 85.583 52.431 45.007 0
M  V30 3342 C 84.604 53.5 45.562 0
M  V30 3343 C 85.249 54.889 45.672 0
M  V30 3344 C 86.786 52.251 45.969 0
M  V30 3345 C 87.097 52.01 42.943 0
M  V30 3346 C 88.277 52.553 42.359 0
M  V30 3347 C 89.249 51.716 41.785 0
M  V30 3348 C 89.021 50.344 41.8 0
M  V30 3349 C 87.887 49.811 42.35 0
M  V30 3350 C 86.902 50.607 42.925 0
M  V30 3351 C 87.962 48.443 42.202 0
M  V30 3352 C 89.17 48.213 41.552 0
M  V30 3353 N 89.814 49.378 41.31 0
M  V30 3354 H 90.684 49.493 40.865 0
M  V30 3355 C 84.834 51.107 44.884 0
M  V30 3356 C 83.648 50.993 44.264 0
M  V30 3357 C 82.901 49.719 44.144 0
M  V30 3358 C 83.632 48.531 43.877 0
M  V30 3359 C 82.98 47.291 43.759 0
M  V30 3360 C 81.599 47.262 43.923 0
M  V30 3361 C 80.885 48.397 44.194 0
M  V30 3362 C 81.495 49.642 44.317 0
M  V30 3363 C 79.561 48.033 44.31 0
M  V30 3364 C 79.542 46.658 44.096 0
M  V30 3365 N 80.79 46.192 43.859 0
M  V30 3366 H 81.052 45.26 43.679 0
M  V30 3367 C 91.247 48.927 42.839 0
M  V30 3368 C 89.768 48.793 43.075 0
M  V30 3369 C 89.221 49.393 44.151 0
M  V30 3370 C 87.752 49.273 44.509 0
M  V30 3371 C 86.844 48.943 43.27 0
M  V30 3372 C 87.505 47.763 42.51 0
M  V30 3373 C 88.925 48.093 42.03 0
M  V30 3374 C 86.687 50.168 42.332 0
M  V30 3375 C 87.288 50.487 45.307 0
M  V30 3376 C 87.181 51.772 44.702 0
M  V30 3377 C 86.737 52.883 45.44 0
M  V30 3378 C 86.413 52.689 46.779 0
M  V30 3379 C 86.521 51.462 47.373 0
M  V30 3380 C 86.958 50.34 46.676 0
M  V30 3381 C 86.134 51.606 48.688 0
M  V30 3382 C 85.802 52.95 48.825 0
M  V30 3383 N 85.974 53.607 47.655 0
M  V30 3384 H 85.811 54.563 47.482 0
M  V30 3385 C 85.465 48.497 43.751 0
M  V30 3386 C 84.343 49.187 43.49 0
M  V30 3387 C 82.997 48.776 43.957 0
M  V30 3388 C 82.106 49.782 44.417 0
M  V30 3389 C 80.814 49.455 44.866 0
M  V30 3390 C 80.433 48.117 44.835 0
M  V30 3391 C 81.277 47.141 44.381 0
M  V30 3392 C 82.562 47.427 43.929 0
M  V30 3393 C 80.602 45.942 44.465 0
M  V30 3394 C 79.351 46.265 44.982 0
M  V30 3395 N 79.253 47.596 45.206 0
M  V30 3396 H 78.476 48.081 45.566 0
M  V30 3397 C 86.281 55.719 43.829 0
M  V30 3398 C 86.289 54.215 43.834 0
M  V30 3399 C 85.137 53.556 44.071 0
M  V30 3400 C 85.05 52.044 44.154 0
M  V30 3401 C 86.199 51.319 43.366 0
M  V30 3402 C 87.537 51.993 43.772 0
M  V30 3403 C 87.563 53.493 43.451 0
M  V30 3404 C 85.992 51.415 41.832 0
M  V30 3405 C 83.651 51.562 43.784 0
M  V30 3406 C 82.836 52.288 42.868 0
M  V30 3407 C 81.555 51.828 42.52 0
M  V30 3408 C 81.105 50.648 43.102 0
M  V30 3409 C 81.873 49.947 43.99 0
M  V30 3410 C 83.145 50.371 44.36 0
M  V30 3411 C 81.147 48.843 44.381 0
M  V30 3412 C 79.943 48.936 43.689 0
M  V30 3413 N 79.923 50.04 42.909 0
M  V30 3414 H 79.192 50.338 42.32 0
M  V30 3415 C 86.253 49.85 43.777 0
M  V30 3416 C 86.468 48.855 42.901 0
M  V30 3417 C 86.512 47.422 43.278 0
M  V30 3418 C 85.556 46.939 44.21 0
M  V30 3419 C 85.543 45.589 44.602 0
M  V30 3420 C 86.49 44.739 44.039 0
M  V30 3421 C 87.408 45.188 43.13 0
M  V30 3422 C 87.451 46.517 42.719 0
M  V30 3423 C 88.182 44.11 42.759 0
M  V30 3424 C 87.68 43.035 43.486 0
M  V30 3425 N 86.646 43.424 44.267 0
M  V30 3426 H 86.116 42.861 44.875 0
M  V30 3427 C 84.837 56.85 45.091 0
M  V30 3428 C 85.302 55.54 44.516 0
M  V30 3429 C 84.491 54.466 44.599 0
M  V30 3430 C 84.888 53.089 44.101 0
M  V30 3431 C 85.989 53.135 42.982 0
M  V30 3432 C 87.115 54.081 43.477 0
M  V30 3433 C 86.61 55.503 43.756 0
M  V30 3434 C 85.414 53.64 41.633 0
M  V30 3435 C 83.655 52.276 43.72 0
M  V30 3436 C 82.698 52.775 42.791 0
M  V30 3437 C 81.574 52.012 42.432 0
M  V30 3438 C 81.421 50.76 43.018 0
M  V30 3439 C 82.328 50.274 43.919 0
M  V30 3440 C 83.452 51 44.3 0
M  V30 3441 C 81.891 49.026 44.31 0
M  V30 3442 C 80.71 48.817 43.605 0
M  V30 3443 N 80.428 49.879 42.817 0
M  V30 3444 H 79.653 49.984 42.218 0
M  V30 3445 C 86.579 51.741 42.788 0
M  V30 3446 C 87.901 51.502 42.772 0
M  V30 3447 C 88.492 50.157 42.574 0
M  V30 3448 C 89.842 50.07 42.144 0
M  V30 3449 C 90.46 48.823 41.945 0
M  V30 3450 C 89.711 47.678 42.194 0
M  V30 3451 C 88.414 47.747 42.622 0
M  V30 3452 C 87.769 48.964 42.83 0
M  V30 3453 C 87.964 46.455 42.788 0
M  V30 3454 C 89.043 45.648 42.439 0
M  V30 3455 N 90.108 46.4 42.077 0
M  V30 3456 H 90.992 46.077 41.788 0
M  V30 3457 C 87.251 50.807 45.275 0
M  V30 3458 C 87.093 52.153 45.631 0
M  V30 3459 C 86.779 53.121 44.669 0
M  V30 3460 C 86.659 54.553 45.131 0
M  V30 3461 C 86.577 55.527 43.947 0
M  V30 3462 C 86.27 56.962 44.402 0
M  V30 3463 N 85.621 55.044 42.924 0
M  V30 3464 C 86.162 53.814 42.282 0
M  V30 3465 C 86.546 52.739 43.32 0
M  V30 3466 C 86.818 51.398 42.949 0
M  V30 3467 C 87.137 50.436 43.928 0
M  V30 3468 C 85.208 53.324 41.17 0
M  V30 3469 C 84.243 54.858 43.446 0
M  V30 3470 H 85.526 55.77 42.213 0
M  V30 3471 C 87.353 49.021 43.535 0
M  V30 3472 C 88.648 48.576 43.182 0
M  V30 3473 C 89.841 49.499 43.218 0
M  V30 3474 C 88.844 47.238 42.825 0
M  V30 3475 C 87.772 46.341 42.776 0
M  V30 3476 C 86.461 46.771 43.11 0
M  V30 3477 C 86.261 48.12 43.504 0
M  V30 3478 C 85.393 45.835 43.046 0
M  V30 3479 C 85.659 44.507 42.658 0
M  V30 3480 C 86.953 44.104 42.336 0
M  V30 3481 C 88.004 45.013 42.394 0
M  V30 3482 O 84.982 48.551 43.876 0
M  V30 3483 H 84.752 48.609 44.782 0
M  V30 3484 O 84.085 46.239 43.367 0
M  V30 3485 C 83.201 45.532 44.233 0
M  V30 3486 C 87.566 50.03 47.637 0
M  V30 3487 O 87.529 49.814 46.23 0
M  V30 3488 O 86.776 51.006 41.609 0
M  V30 3489 C 87.893 51.178 40.746 0
M  V30 3490 C 86.246 51.876 45.826 0
M  V30 3491 C 86.328 53.247 46.1 0
M  V30 3492 C 86.12 54.197 45.092 0
M  V30 3493 C 86.26 55.654 45.465 0
M  V30 3494 C 86.269 56.559 44.225 0
M  V30 3495 C 86.225 58.049 44.598 0
M  V30 3496 N 85.191 56.183 43.281 0
M  V30 3497 C 85.489 54.845 42.696 0
M  V30 3498 C 85.753 53.783 43.784 0
M  V30 3499 C 85.783 52.397 43.489 0
M  V30 3500 C 85.997 51.452 44.513 0
M  V30 3501 C 84.407 54.456 41.665 0
M  V30 3502 C 83.834 56.256 43.878 0
M  V30 3503 H 85.175 56.872 42.529 0
M  V30 3504 C 85.96 50.001 44.204 0
M  V30 3505 C 87.148 49.324 43.845 0
M  V30 3506 C 88.479 50.033 43.79 0
M  V30 3507 C 87.104 47.954 43.567 0
M  V30 3508 C 85.897 47.25 43.603 0
M  V30 3509 C 84.689 47.914 43.945 0
M  V30 3510 C 84.732 49.297 44.26 0
M  V30 3511 C 83.478 47.169 43.969 0
M  V30 3512 C 83.504 45.795 43.659 0
M  V30 3513 C 84.7 45.162 43.328 0
M  V30 3514 C 85.889 45.882 43.3 0
M  V30 3515 O 83.558 49.959 44.638 0
M  V30 3516 H 83.277 50.719 44.169 0
M  V30 3517 O 82.269 47.806 44.301 0
M  V30 3518 C 80.997 47.167 44.354 0
M  V30 3519 C 87.658 50.581 47.442 0
M  V30 3520 O 86.414 50.907 46.831 0
M  V30 3521 O 85.602 51.941 42.181 0
M  V30 3522 C 86.685 51.858 41.263 0
M  V30 3523 C 86.411 51.706 45.618 0
M  V30 3524 C 86.421 53.069 45.942 0
M  V30 3525 C 86.19 54.044 44.963 0
M  V30 3526 C 86.252 55.491 45.39 0
M  V30 3527 C 86.246 56.439 44.182 0
M  V30 3528 C 86.121 57.911 44.606 0
M  V30 3529 N 85.209 56.047 43.2 0
M  V30 3530 C 85.584 54.747 42.577 0
M  V30 3531 C 85.873 53.66 43.632 0
M  V30 3532 C 85.976 52.288 43.29 0
M  V30 3533 C 86.212 51.319 44.286 0
M  V30 3534 C 84.545 54.345 41.506 0
M  V30 3535 C 83.836 56.034 43.766 0
M  V30 3536 H 85.176 56.761 42.473 0
M  V30 3537 C 86.252 49.879 43.925 0
M  V30 3538 C 85.072 49.102 43.989 0
M  V30 3539 C 83.748 49.704 44.391 0
M  V30 3540 C 85.117 47.75 43.637 0
M  V30 3541 C 86.319 47.144 43.257 0
M  V30 3542 C 87.519 47.901 43.202 0
M  V30 3543 C 87.473 49.282 43.528 0
M  V30 3544 C 88.724 47.254 42.816 0
M  V30 3545 C 88.7 45.882 42.494 0
M  V30 3546 C 87.512 45.158 42.551 0
M  V30 3547 C 86.328 45.781 42.93 0
M  V30 3548 O 88.638 50.053 43.441 0
M  V30 3549 H 88.583 50.96 43.212 0
M  V30 3550 O 89.925 47.983 42.759 0
M  V30 3551 C 91.071 47.732 43.568 0
M  V30 3552 C 87.834 50.455 47.259 0
M  V30 3553 O 86.603 50.71 46.592 0
M  V30 3554 O 85.847 51.872 41.963 0
M  V30 3555 C 86.951 51.882 41.067 0
M  V30 3556 C 88.397 48.799 43.016 0
M  V30 3557 C 88.669 47.448 42.758 0
M  V30 3558 C 87.799 46.442 43.196 0
M  V30 3559 C 88.184 45.011 42.905 0
M  V30 3560 C 87.291 44.018 43.664 0
M  V30 3561 C 87.55 42.566 43.234 0
M  V30 3562 N 85.862 44.391 43.551 0
M  V30 3563 C 85.622 45.66 44.293 0
M  V30 3564 C 86.586 46.781 43.853 0
M  V30 3565 C 86.375 48.137 44.208 0
M  V30 3566 C 87.261 49.139 43.763 0
M  V30 3567 C 84.125 46.04 44.238 0
M  V30 3568 C 85.377 44.449 42.149 0
M  V30 3569 H 85.307 43.651 43.981 0
M  V30 3570 C 86.994 50.563 44.085 0
M  V30 3571 C 87.258 51.056 45.384 0
M  V30 3572 C 87.839 50.175 46.463 0
M  V30 3573 C 87.014 52.402 45.673 0
M  V30 3574 C 86.476 53.26 44.709 0
M  V30 3575 C 86.187 52.782 43.404 0
M  V30 3576 C 86.463 51.425 43.094 0
M  V30 3577 C 85.638 53.681 42.448 0
M  V30 3578 C 85.398 55.019 42.815 0
M  V30 3579 C 85.691 55.47 44.1 0
M  V30 3580 C 86.227 54.598 45.042 0
M  V30 3581 O 86.222 50.946 41.801 0
M  V30 3582 H 85.495 50.379 41.639 0
M  V30 3583 O 85.339 53.228 41.15 0
M  V30 3584 C 84.618 53.972 40.172 0
M  V30 3585 C 89.477 50.121 41.181 0
M  V30 3586 O 89.237 49.826 42.553 0
M  V30 3587 O 85.289 48.506 45.004 0
M  V30 3588 C 84.146 49.152 44.456 0
M  V30 3589 C 85.214 48.508 44.268 0
M  V30 3590 C 85.167 47.133 44 0
M  V30 3591 C 86.242 46.482 43.382 0
M  V30 3592 C 86.096 45.006 43.1 0
M  V30 3593 C 87.222 44.488 42.193 0
M  V30 3594 C 87.189 42.958 42.051 0
M  V30 3595 N 88.543 44.983 42.645 0
M  V30 3596 C 88.619 46.455 42.431 0
M  V30 3597 C 87.431 47.197 43.076 0
M  V30 3598 C 87.426 48.605 43.246 0
M  V30 3599 C 86.336 49.246 43.867 0
M  V30 3600 C 90.01 46.986 42.842 0
M  V30 3601 C 88.874 44.59 44.038 0
M  V30 3602 H 89.26 44.532 42.077 0
M  V30 3603 C 86.371 50.712 44.1 0
M  V30 3604 C 86.959 51.226 45.278 0
M  V30 3605 C 87.586 50.322 46.311 0
M  V30 3606 C 86.998 52.609 45.483 0
M  V30 3607 C 86.431 53.49 44.557 0
M  V30 3608 C 85.82 52.995 43.375 0
M  V30 3609 C 85.806 51.594 43.147 0
M  V30 3610 C 85.25 53.918 42.456 0
M  V30 3611 C 85.307 55.297 42.736 0
M  V30 3612 C 85.913 55.764 43.9 0
M  V30 3613 C 86.472 54.869 44.806 0
M  V30 3614 O 85.244 51.09 41.967 0
M  V30 3615 H 85.316 50.177 41.768 0
M  V30 3616 O 84.635 53.45 41.281 0
M  V30 3617 C 84.546 54.178 40.06 0
M  V30 3618 C 82.906 49.483 44.327 0
M  V30 3619 O 84.162 49.173 44.921 0
M  V30 3620 O 88.499 49.381 42.802 0
M  V30 3621 C 88.555 49.886 41.473 0
M  V30 3622 C 86.695 50.798 43.819 0
M  V30 3623 C 86.869 49.412 43.931 0
M  V30 3624 C 85.77 48.557 44.08 0
M  V30 3625 C 86.047 47.08 44.227 0
M  V30 3626 C 84.79 46.305 44.645 0
M  V30 3627 C 85.014 44.785 44.617 0
M  V30 3628 N 83.616 46.716 43.839 0
M  V30 3629 C 83.249 48.119 44.179 0
M  V30 3630 C 84.449 49.08 44.052 0
M  V30 3631 C 84.287 50.488 44.053 0
M  V30 3632 C 85.404 51.336 43.905 0
M  V30 3633 C 81.992 48.551 43.393 0
M  V30 3634 C 83.804 46.512 42.38 0
M  V30 3635 H 82.837 46.105 44.082 0
M  V30 3636 C 85.215 52.807 43.84 0
M  V30 3637 C 85.181 53.46 42.586 0
M  V30 3638 C 85.304 52.696 41.291 0
M  V30 3639 C 84.992 54.844 42.535 0
M  V30 3640 C 84.872 55.599 43.707 0
M  V30 3641 C 84.921 54.966 44.976 0
M  V30 3642 C 85.08 53.557 45.034 0
M  V30 3643 C 84.799 55.763 46.148 0
M  V30 3644 C 84.631 57.156 46.022 0
M  V30 3645 C 84.583 57.758 44.767 0
M  V30 3646 C 84.703 56.987 43.615 0
M  V30 3647 O 85.09 52.911 46.276 0
M  V30 3648 H 85.883 52.534 46.601 0
M  V30 3649 O 84.849 55.158 47.416 0
M  V30 3650 C 83.841 55.274 48.417 0
M  V30 3651 C 88.606 51.698 42.471 0
M  V30 3652 O 87.782 51.669 43.631 0
M  V30 3653 O 83.022 51.062 44.2 0
M  V30 3654 C 82.301 51.574 43.087 0
M  V30 3655 C 85.591 52.194 43.146 0
M  V30 3656 C 85.199 53.493 43.494 0
M  V30 3657 C 85.007 53.854 44.833 0
M  V30 3658 C 84.552 55.265 45.118 0
M  V30 3659 C 84.13 55.44 46.584 0
M  V30 3660 C 83.843 56.909 46.93 0
M  V30 3661 N 85.119 54.828 47.502 0
M  V30 3662 C 85.093 53.348 47.342 0
M  V30 3663 C 85.274 52.921 45.87 0
M  V30 3664 C 85.559 51.58 45.506 0
M  V30 3665 C 85.746 51.231 44.153 0
M  V30 3666 C 86.077 52.683 48.33 0
M  V30 3667 C 86.484 55.395 47.359 0
M  V30 3668 H 84.847 55.059 48.458 0
M  V30 3669 C 86.111 49.839 43.789 0
M  V30 3670 C 85.121 48.83 43.777 0
M  V30 3671 C 83.678 49.131 44.1 0
M  V30 3672 C 85.472 47.524 43.421 0
M  V30 3673 C 86.795 47.192 43.113 0
M  V30 3674 C 87.808 48.187 43.136 0
M  V30 3675 C 87.452 49.521 43.465 0
M  V30 3676 C 89.144 47.815 42.821 0
M  V30 3677 C 89.43 46.476 42.492 0
M  V30 3678 C 88.422 45.515 42.472 0
M  V30 3679 C 87.112 45.869 42.78 0
M  V30 3680 O 88.43 50.522 43.453 0
M  V30 3681 H 88.826 50.8 44.256 0
M  V30 3682 O 90.165 48.782 42.842 0
M  V30 3683 C 91.383 48.669 43.573 0
M  V30 3684 C 86.82 52.4 40.971 0
M  V30 3685 O 85.826 51.821 41.811 0
M  V30 3686 O 85.658 50.582 46.478 0
M  V30 3687 C 86.918 50.066 46.891 0
M  V30 3688 C 87.043 51.485 41.853 0
M  V30 3689 C 86.511 52.78 41.911 0
M  V30 3690 C 86.011 53.3 43.111 0
M  V30 3691 C 85.425 54.692 43.079 0
M  V30 3692 C 84.684 55.026 44.381 0
M  V30 3693 C 84.246 56.497 44.434 0
M  V30 3694 N 85.482 54.634 45.566 0
M  V30 3695 C 85.576 53.148 45.63 0
M  V30 3696 C 86.097 52.543 44.31 0
M  V30 3697 C 86.531 51.196 44.22 0
M  V30 3698 C 87.029 50.685 43.004 0
M  V30 3699 C 86.356 52.713 46.89 0
M  V30 3700 C 86.811 55.294 45.626 0
M  V30 3701 H 84.996 54.967 46.398 0
M  V30 3702 C 87.543 49.294 42.939 0
M  V30 3703 C 88.93 49.059 42.793 0
M  V30 3704 C 89.923 50.193 42.727 0
M  V30 3705 C 89.404 47.745 42.743 0
M  V30 3706 C 88.526 46.659 42.8 0
M  V30 3707 C 87.128 46.872 42.93 0
M  V30 3708 C 86.643 48.203 43.012 0
M  V30 3709 C 86.262 45.746 42.981 0
M  V30 3710 C 86.808 44.449 42.906 0
M  V30 3711 C 88.182 44.261 42.781 0
M  V30 3712 C 89.038 45.356 42.728 0
M  V30 3713 O 85.272 48.432 43.181 0
M  V30 3714 H 84.949 48.756 43.999 0
M  V30 3715 O 84.874 45.933 43.105 0
M  V30 3716 C 84.017 45.165 43.945 0
M  V30 3717 C 88.471 51.656 39.801 0
M  V30 3718 O 87.585 50.957 40.668 0
M  V30 3719 O 86.473 50.352 45.331 0
M  V30 3720 C 87.635 50.027 46.083 0
M  V30 3721 C 85.078 52.864 43.291 0
M  V30 3722 C 84.797 54.218 43.519 0
M  V30 3723 C 84.705 54.725 44.821 0
M  V30 3724 C 84.366 56.188 44.979 0
M  V30 3725 C 84.039 56.541 46.437 0
M  V30 3726 C 83.875 58.055 46.64 0
M  V30 3727 N 85.032 55.953 47.365 0
M  V30 3728 C 84.895 54.47 47.362 0
M  V30 3729 C 84.963 53.884 45.937 0
M  V30 3730 C 85.134 52.496 45.702 0
M  V30 3731 C 85.222 52 44.385 0
M  V30 3732 C 85.883 53.836 48.367 0
M  V30 3733 C 86.424 56.399 47.098 0
M  V30 3734 H 84.831 56.298 48.303 0
M  V30 3735 C 85.468 50.554 44.152 0
M  V30 3736 C 86.775 50.096 43.87 0
M  V30 3737 C 87.952 51.04 43.824 0
M  V30 3738 C 86.998 48.732 43.663 0
M  V30 3739 C 85.942 47.816 43.694 0
M  V30 3740 C 84.618 48.256 43.959 0
M  V30 3741 C 84.391 49.636 44.202 0
M  V30 3742 C 83.567 47.3 43.981 0
M  V30 3743 C 83.861 45.942 43.744 0
M  V30 3744 C 85.166 45.53 43.488 0
M  V30 3745 C 86.202 46.459 43.463 0
M  V30 3746 O 83.099 50.082 44.505 0
M  V30 3747 H 82.883 50.99 44.414 0
M  V30 3748 O 82.247 47.713 44.236 0
M  V30 3749 C 81.141 46.838 44.438 0
M  V30 3750 C 86.222 52.726 41.065 0
M  V30 3751 O 85.212 52.342 41.992 0
M  V30 3752 O 85.218 51.597 46.767 0
M  V30 3753 C 86.47 51.122 47.247 0
M  V30 3754 O 81.957 52.872 41.312 0
M  V30 3755 C 82.278 52.079 42.235 0
M  V30 3756 C 81.55 50.765 42.322 0
M  V30 3757 C 81.659 50.169 43.736 0
M  V30 3758 O 83.027 50.18 44.145 0
M  V30 3759 C 83.833 51.312 43.992 0
M  V30 3760 C 83.448 52.348 43.121 0
M  V30 3761 C 84.232 53.532 43.07 0
M  V30 3762 C 85.454 53.599 43.781 0
M  V30 3763 C 85.841 52.521 44.604 0
M  V30 3764 C 85.023 51.396 44.711 0
M  V30 3765 C 81.103 48.761 43.886 0
M  V30 3766 C 82.007 47.683 43.883 0
M  V30 3767 C 81.554 46.37 44.044 0
M  V30 3768 C 80.193 46.116 44.222 0
M  V30 3769 C 79.284 47.175 44.246 0
M  V30 3770 C 79.731 48.49 44.087 0
M  V30 3771 O 83.826 54.665 42.358 0
M  V30 3772 H 83.036 54.643 41.855 0
M  V30 3773 O 87.032 52.577 45.329 0
M  V30 3774 H 87.017 52.801 46.238 0
M  V30 3775 C 86.331 54.83 43.664 0
M  V30 3776 C 85.888 55.909 44.624 0
M  V30 3777 C 86.135 55.766 46.001 0
M  V30 3778 C 85.714 56.748 46.902 0
M  V30 3779 C 85.043 57.881 46.44 0
M  V30 3780 C 84.795 58.039 45.075 0
M  V30 3781 C 85.214 57.06 44.162 0
M  V30 3782 O 84.966 57.23 42.801 0
M  V30 3783 H 84.734 56.492 42.271 0
M  V30 3784 O 85.239 50.889 44.419 0
M  V30 3785 C 85.725 52.005 44.099 0
M  V30 3786 C 85.278 53.217 44.872 0
M  V30 3787 C 85.522 54.504 44.066 0
M  V30 3788 O 86.863 54.505 43.578 0
M  V30 3789 C 87.422 53.385 42.954 0
M  V30 3790 C 86.825 52.118 43.099 0
M  V30 3791 C 87.352 51.021 42.365 0
M  V30 3792 C 88.543 51.181 41.618 0
M  V30 3793 C 89.15 52.452 41.536 0
M  V30 3794 C 88.578 53.542 42.194 0
M  V30 3795 C 85.263 55.797 44.824 0
M  V30 3796 C 85.632 57.012 44.215 0
M  V30 3797 C 85.394 58.232 44.855 0
M  V30 3798 C 84.772 58.259 46.104 0
M  V30 3799 C 84.383 57.065 46.713 0
M  V30 3800 C 84.617 55.841 46.079 0
M  V30 3801 O 86.718 49.776 42.327 0
M  V30 3802 H 86.508 49.382 41.504 0
M  V30 3803 O 90.312 52.634 40.786 0
M  V30 3804 H 91.046 52.067 40.913 0
M  V30 3805 C 89.151 49.993 40.9 0
M  V30 3806 C 89.807 49.042 41.874 0
M  V30 3807 C 90.875 49.486 42.674 0
M  V30 3808 C 91.503 48.613 43.566 0
M  V30 3809 C 91.073 47.289 43.669 0
M  V30 3810 C 90.011 46.835 42.884 0
M  V30 3811 C 89.374 47.704 41.986 0
M  V30 3812 O 88.311 47.243 41.211 0
M  V30 3813 H 88.026 46.353 41.289 0
M  V30 3814 O 86.216 53.327 40.959 0
M  V30 3815 C 86.103 53.42 42.21 0
M  V30 3816 C 85.67 54.742 42.783 0
M  V30 3817 C 86.08 54.861 44.261 0
M  V30 3818 O 85.666 53.686 44.958 0
M  V30 3819 C 85.907 52.405 44.452 0
M  V30 3820 C 86.235 52.227 43.095 0
M  V30 3821 C 86.581 50.926 42.636 0
M  V30 3822 C 86.453 49.816 43.503 0
M  V30 3823 C 86.068 50.02 44.844 0
M  V30 3824 C 85.81 51.311 45.308 0
M  V30 3825 C 85.54 56.087 44.982 0
M  V30 3826 C 85.801 57.355 44.427 0
M  V30 3827 C 85.308 58.514 45.032 0
M  V30 3828 C 84.536 58.425 46.192 0
M  V30 3829 C 84.252 57.176 46.744 0
M  V30 3830 C 84.742 56.012 46.144 0
M  V30 3831 O 87.076 50.698 41.348 0
M  V30 3832 H 87.54 49.906 41.159 0
M  V30 3833 O 85.958 48.94 45.721 0
M  V30 3834 H 85.861 48.072 45.386 0
M  V30 3835 C 86.744 48.419 42.992 0
M  V30 3836 C 88.217 48.097 43.087 0
M  V30 3837 C 89.076 48.953 43.8 0
M  V30 3838 C 90.444 48.678 43.88 0
M  V30 3839 C 90.969 47.548 43.251 0
M  V30 3840 C 90.128 46.688 42.542 0
M  V30 3841 C 88.753 46.955 42.456 0
M  V30 3842 O 87.921 46.086 41.752 0
M  V30 3843 H 87.792 45.21 42.058 0
M  V30 3844 O 85.698 50.109 44.144 0
M  V30 3845 C 84.486 50.138 43.807 0
M  V30 3846 C 83.586 49.044 44.313 0
M  V30 3847 C 82.332 48.911 43.431 0
M  V30 3848 O 81.746 50.201 43.252 0
M  V30 3849 C 82.514 51.317 42.903 0
M  V30 3850 C 83.912 51.298 43.065 0
M  V30 3851 C 84.673 52.405 42.601 0
M  V30 3852 C 84.014 53.56 42.119 0
M  V30 3853 C 82.608 53.571 42.02 0
M  V30 3854 C 81.873 52.447 42.402 0
M  V30 3855 C 81.276 47.95 43.954 0
M  V30 3856 C 79.987 48.452 44.216 0
M  V30 3857 C 78.971 47.608 44.673 0
M  V30 3858 C 79.221 46.249 44.862 0
M  V30 3859 C 80.488 45.73 44.589 0
M  V30 3860 C 81.509 46.568 44.131 0
M  V30 3861 O 86.071 52.389 42.575 0
M  V30 3862 H 86.555 53.024 43.066 0
M  V30 3863 O 81.941 54.692 41.526 0
M  V30 3864 H 82.083 55.532 41.916 0
M  V30 3865 C 84.822 54.772 41.698 0
M  V30 3866 C 85.131 55.66 42.881 0
M  V30 3867 C 84.158 56.556 43.358 0
M  V30 3868 C 84.436 57.396 44.439 0
M  V30 3869 C 85.688 57.352 45.055 0
M  V30 3870 C 86.663 56.465 44.596 0
M  V30 3871 C 86.393 55.616 43.511 0
M  V30 3872 O 87.372 54.73 43.064 0
M  V30 3873 H 87.217 54.207 42.302 0
M  V30 3874 O 86.46 51.665 48.057 0
M  V30 3875 C 86.118 52.366 47.07 0
M  V30 3876 C 85.855 53.83 47.301 0
M  V30 3877 C 84.969 54.412 46.185 0
M  V30 3878 O 85.51 54.043 44.917 0
M  V30 3879 C 85.905 52.731 44.637 0
M  V30 3880 C 86.122 51.815 45.684 0
M  V30 3881 C 86.417 50.462 45.364 0
M  V30 3882 C 86.627 50.087 44.016 0
M  V30 3883 C 86.457 51.041 42.992 0
M  V30 3884 C 86.087 52.348 43.311 0
M  V30 3885 C 84.785 55.921 46.232 0
M  V30 3886 C 85.534 56.712 45.341 0
M  V30 3887 C 85.386 58.102 45.321 0
M  V30 3888 C 84.478 58.721 46.182 0
M  V30 3889 C 83.713 57.951 47.058 0
M  V30 3890 C 83.856 56.56 47.083 0
M  V30 3891 O 86.482 49.462 46.34 0
M  V30 3892 H 86.773 48.602 46.11 0
M  V30 3893 O 86.638 50.685 41.655 0
M  V30 3894 H 85.996 50.162 41.218 0
M  V30 3895 C 87.021 48.661 43.68 0
M  V30 3896 C 88.468 48.58 43.254 0
M  V30 3897 C 89.489 48.791 44.197 0
M  V30 3898 C 90.831 48.738 43.813 0
M  V30 3899 C 91.169 48.472 42.485 0
M  V30 3900 C 90.167 48.256 41.538 0
M  V30 3901 C 88.816 48.307 41.914 0
M  V30 3902 O 87.822 48.084 40.961 0
M  V30 3903 H 86.919 48.168 41.198 0
M  V30 3904 O 89.73 51.536 42.006 0
M  V30 3905 C 88.715 50.84 42.268 0
M  V30 3906 C 88.892 49.35 42.386 0
M  V30 3907 C 87.554 48.619 42.179 0
M  V30 3908 O 86.558 49.221 43.006 0
M  V30 3909 C 86.391 50.608 43.068 0
M  V30 3910 C 87.406 51.468 42.61 0
M  V30 3911 C 87.162 52.868 42.585 0
M  V30 3912 C 85.971 53.386 43.147 0
M  V30 3913 C 84.995 52.501 43.649 0
M  V30 3914 C 85.209 51.123 43.594 0
M  V30 3915 C 87.591 47.122 42.447 0
M  V30 3916 C 88.831 46.462 42.375 0
M  V30 3917 C 88.928 45.092 42.637 0
M  V30 3918 C 87.79 44.364 42.988 0
M  V30 3919 C 86.555 45.007 43.083 0
M  V30 3920 C 86.451 46.376 42.822 0
M  V30 3921 O 88.053 53.77 41.993 0
M  V30 3922 H 88.809 54.058 42.466 0
M  V30 3923 O 83.805 52.991 44.187 0
M  V30 3924 H 83.139 52.397 44.471 0
M  V30 3925 C 85.746 54.884 43.194 0
M  V30 3926 C 85.663 55.381 44.618 0
M  V30 3927 C 86.6 54.94 45.57 0
M  V30 3928 C 86.524 55.376 46.895 0
M  V30 3929 C 85.513 56.255 47.285 0
M  V30 3930 C 84.578 56.705 46.351 0
M  V30 3931 C 84.646 56.273 45.018 0
M  V30 3932 O 83.711 56.733 44.092 0
M  V30 3933 H 82.97 56.202 43.871 0
M  V30 3934 O 88.235 49.935 40.872 0
M  V30 3935 C 87.609 49.313 41.769 0
M  V30 3936 C 87.983 47.878 42.025 0
M  V30 3937 C 86.837 47.128 42.727 0
M  V30 3938 O 86.394 47.892 43.848 0
M  V30 3939 C 86.138 49.264 43.751 0
M  V30 3940 C 86.639 50.006 42.665 0
M  V30 3941 C 86.27 51.373 42.538 0
M  V30 3942 C 85.53 52.001 43.567 0
M  V30 3943 C 85.088 51.243 44.67 0
M  V30 3944 C 85.385 49.882 44.746 0
M  V30 3945 C 87.176 45.717 43.184 0
M  V30 3946 C 86.218 45.012 43.936 0
M  V30 3947 C 86.465 43.703 44.36 0
M  V30 3948 C 87.666 43.074 44.028 0
M  V30 3949 C 88.62 43.752 43.267 0
M  V30 3950 C 88.379 45.061 42.839 0
M  V30 3951 O 86.59 52.128 41.405 0
M  V30 3952 H 86.978 52.976 41.503 0
M  V30 3953 O 84.338 51.84 45.684 0
M  V30 3954 H 84.091 52.741 45.617 0
M  V30 3955 C 85.204 53.479 43.47 0
M  V30 3956 C 83.965 53.713 42.638 0
M  V30 3957 C 82.867 52.842 42.757 0
M  V30 3958 C 81.722 53.035 41.981 0
M  V30 3959 C 81.659 54.098 41.078 0
M  V30 3960 C 82.739 54.973 40.952 0
M  V30 3961 C 83.894 54.788 41.728 0
M  V30 3962 O 84.965 55.671 41.598 0
M  V30 3963 H 85.493 55.879 42.344 0
M  V30 3964 O 88.643 50.521 42.424 0
M  V30 3965 C 87.817 50.525 43.373 0
M  V30 3966 C 87.578 51.823 44.096 0
M  V30 3967 C 86.992 51.573 45.496 0
M  V30 3968 O 85.885 50.678 45.388 0
M  V30 3969 C 85.959 49.501 44.636 0
M  V30 3970 C 86.978 49.331 43.681 0
M  V30 3971 C 87.091 48.082 43.011 0
M  V30 3972 C 86.104 47.087 43.205 0
M  V30 3973 C 85.062 47.309 44.129 0
M  V30 3974 C 85.006 48.507 44.843 0
M  V30 3975 C 86.554 52.824 46.243 0
M  V30 3976 C 86.078 52.681 47.56 0
M  V30 3977 C 85.687 53.799 48.303 0
M  V30 3978 C 85.778 55.076 47.748 0
M  V30 3979 C 86.266 55.238 46.45 0
M  V30 3980 C 86.659 54.124 45.702 0
M  V30 3981 O 88.171 47.779 42.175 0
M  V30 3982 H 88.937 47.373 42.529 0
M  V30 3983 O 84.092 46.331 44.35 0
M  V30 3984 H 83.941 46.007 45.216 0
M  V30 3985 C 86.179 45.786 42.431 0
M  V30 3986 C 87.046 44.775 43.144 0
M  V30 3987 C 88.435 44.76 42.918 0
M  V30 3988 C 89.246 43.818 43.556 0
M  V30 3989 C 88.683 42.882 44.425 0
M  V30 3990 C 87.307 42.887 44.662 0
M  V30 3991 C 86.483 43.829 44.026 0
M  V30 3992 O 85.111 43.829 44.274 0
M  V30 3993 H 84.532 44.293 43.702 0
M  V30 3994 O 89.07 49.828 40.552 0
M  V30 3995 C 88.372 49.415 41.514 0
M  V30 3996 C 88.332 47.933 41.773 0
M  V30 3997 C 87.083 47.551 42.588 0
M  V30 3998 O 86.984 48.41 43.723 0
M  V30 3999 C 87.131 49.797 43.615 0
M  V30 4000 C 87.729 50.361 42.472 0
M  V30 4001 C 87.766 51.776 42.342 0
M  V30 4002 C 87.335 52.593 43.415 0
M  V30 4003 C 86.791 51.996 44.571 0
M  V30 4004 C 86.684 50.607 44.655 0
M  V30 4005 C 87.035 46.103 43.049 0
M  V30 4006 C 88.107 45.257 42.706 0
M  V30 4007 C 88.127 43.924 43.126 0
M  V30 4008 C 87.085 43.419 43.905 0
M  V30 4009 C 86.024 44.248 44.27 0
M  V30 4010 C 85.997 45.582 43.854 0
M  V30 4011 O 88.191 52.406 41.169 0
M  V30 4012 H 89.05 52.777 41.122 0
M  V30 4013 O 86.341 52.786 45.63 0
M  V30 4014 H 86.022 53.651 45.467 0
M  V30 4015 C 87.449 54.101 43.31 0
M  V30 4016 C 86.087 54.744 43.185 0
M  V30 4017 C 85.564 55.49 44.257 0
M  V30 4018 C 84.299 56.074 44.162 0
M  V30 4019 C 83.541 55.921 43 0
M  V30 4020 C 84.049 55.187 41.926 0
M  V30 4021 C 85.319 54.597 42.011 0
M  V30 4022 O 85.819 53.87 40.931 0
M  V30 4023 H 86.734 53.901 40.729 0
M  V30 4024 C 89.604 51.201 40.178 0
M  V30 4025 C 89.803 52.569 40.828 0
M  V30 4026 C 88.54 53.015 41.575 0
M  V30 4027 C 87.878 51.921 42.498 0
M  V30 4028 C 88.654 50.594 42.473 0
M  V30 4029 C 88.55 49.735 43.499 0
M  V30 4030 C 87.88 50.1 44.754 0
M  V30 4031 C 87.484 51.357 44.991 0
M  V30 4032 C 87.808 52.462 43.985 0
M  V30 4033 C 86.875 53.713 44.155 0
M  V30 4034 C 86.566 54.089 45.623 0
M  V30 4035 C 86.039 52.865 46.416 0
M  V30 4036 C 87.151 51.811 46.393 0
M  V30 4037 C 86.753 50.803 47.467 0
M  V30 4038 C 86.096 51.662 48.561 0
M  V30 4039 C 85.899 53.075 47.951 0
M  V30 4040 C 84.721 52.331 45.783 0
M  V30 4041 C 89.436 50.13 41.259 0
M  V30 4042 C 86.459 51.588 41.962 0
M  V30 4043 O 88.488 51.21 39.324 0
M  V30 4044 H 88.405 50.345 38.891 0
M  V30 4045 C 84.706 53.902 48.548 0
M  V30 4046 C 83.408 53.139 48.877 0
M  V30 4047 C 84.385 55.1 47.684 0
M  V30 4048 C 85.243 56.122 47.549 0
M  V30 4049 C 84.953 57.277 46.616 0
M  V30 4050 C 83.503 57.754 46.81 0
M  V30 4051 C 85.3 56.911 45.141 0
M  V30 4052 C 84.076 56.474 44.32 0
M  V30 4053 C 86.045 58.046 44.426 0
M  V30 4054 C 85.021 56.26 46.977 0
M  V30 4055 C 86.078 55.409 47.679 0
M  V30 4056 C 85.984 53.941 47.246 0
M  V30 4057 C 85.85 53.702 45.692 0
M  V30 4058 C 85.849 55.02 44.9 0
M  V30 4059 C 86.214 55.027 43.609 0
M  V30 4060 C 86.816 53.853 42.964 0
M  V30 4061 C 87.176 52.777 43.674 0
M  V30 4062 C 87.046 52.79 45.197 0
M  V30 4063 C 87.026 51.342 45.805 0
M  V30 4064 C 88.005 50.351 45.134 0
M  V30 4065 C 87.817 50.333 43.595 0
M  V30 4066 C 88.12 51.749 43.095 0
M  V30 4067 C 88.286 51.602 41.586 0
M  V30 4068 C 88.953 50.226 41.415 0
M  V30 4069 C 88.89 49.533 42.801 0
M  V30 4070 C 86.373 49.885 43.227 0
M  V30 4071 C 85.312 56.316 45.475 0
M  V30 4072 C 84.482 53.031 45.393 0
M  V30 4073 O 83.733 55.747 47.205 0
M  V30 4074 H 83.729 55.238 48.032 0
M  V30 4075 C 88.865 47.964 42.765 0
M  V30 4076 C 89.937 47.257 41.912 0
M  V30 4077 C 87.496 47.447 42.389 0
M  V30 4078 C 86.907 46.451 43.068 0
M  V30 4079 C 85.502 45.997 42.741 0
M  V30 4080 C 84.488 46.772 43.6 0
M  V30 4081 C 85.368 44.449 42.858 0
M  V30 4082 C 86.628 43.694 42.401 0
M  V30 4083 C 84.968 44.01 44.274 0
M  V30 4084 C 84.947 58.292 45.123 0
M  V30 4085 C 83.829 57.428 44.542 0
M  V30 4086 C 84.397 56.203 43.817 0
M  V30 4087 C 85.52 55.415 44.597 0
M  V30 4088 C 85.823 56.044 45.967 0
M  V30 4089 C 86.365 55.298 46.943 0
M  V30 4090 C 86.495 53.84 46.826 0
M  V30 4091 C 85.934 53.17 45.812 0
M  V30 4092 C 85.065 53.912 44.796 0
M  V30 4093 C 84.913 53.117 43.451 0
M  V30 4094 C 84.747 51.59 43.622 0
M  V30 4095 C 85.867 51.001 44.516 0
M  V30 4096 C 85.741 51.674 45.886 0
M  V30 4097 C 86.594 50.821 46.819 0
M  V30 4098 C 86.405 49.387 46.294 0
M  V30 4099 C 85.678 49.512 44.929 0
M  V30 4100 C 87.264 51.249 43.875 0
M  V30 4101 C 85.671 57.528 46.235 0
M  V30 4102 C 86.849 55.49 43.797 0
M  V30 4103 O 85.857 58.673 44.122 0
M  V30 4104 H 86.686 58.181 44.235 0
M  V30 4105 C 85.957 48.35 43.913 0
M  V30 4106 C 85.527 46.928 44.325 0
M  V30 4107 C 87.406 48.335 43.482 0
M  V30 4108 C 87.779 47.879 42.277 0
M  V30 4109 C 89.219 47.947 41.819 0
M  V30 4110 C 89.954 46.653 42.212 0
M  V30 4111 C 89.914 49.243 42.335 0
M  V30 4112 C 91.364 49.015 42.791 0
M  V30 4113 C 89.85 50.379 41.305 0
M  V30 4114 C 84.816 58.211 44.974 0
M  V30 4115 C 83.896 57.274 44.194 0
M  V30 4116 C 84.687 56.126 43.557 0
M  V30 4117 C 85.726 55.412 44.505 0
M  V30 4118 C 85.734 56.019 45.918 0
M  V30 4119 C 86.165 55.29 46.959 0
M  V30 4120 C 86.443 53.854 46.842 0
M  V30 4121 C 86.126 53.172 45.733 0
M  V30 4122 C 85.38 53.87 44.596 0
M  V30 4123 C 85.532 53.11 43.231 0
M  V30 4124 C 85.476 51.569 43.344 0
M  V30 4125 C 86.476 51.048 44.408 0
M  V30 4126 C 86.058 51.663 45.747 0
M  V30 4127 C 86.812 50.856 46.799 0
M  V30 4128 C 86.844 49.429 46.224 0
M  V30 4129 C 86.353 49.536 44.756 0
M  V30 4130 C 87.934 51.435 44.023 0
M  V30 4131 C 85.405 57.476 46.181 0
M  V30 4132 C 87.16 55.626 43.948 0
M  V30 4133 O 85.846 58.7 44.153 0
M  V30 4134 H 86.353 59.373 44.635 0
M  V30 4135 C 86.905 48.435 43.783 0
M  V30 4136 C 87.44 48.902 42.415 0
M  V30 4137 C 85.896 47.328 43.582 0
M  V30 4138 C 84.626 47.446 44 0
M  V30 4139 C 83.601 46.37 43.719 0
M  V30 4140 C 84.157 45.376 42.686 0
M  V30 4141 C 82.229 46.99 43.317 0
M  V30 4142 C 81.03 46.294 43.982 0
M  V30 4143 C 82.181 48.502 43.579 0
M  V30 4144 C 85.093 57.912 44.806 0
M  V30 4145 C 83.792 57.133 44.623 0
M  V30 4146 C 84.022 55.858 43.803 0
M  V30 4147 C 85.269 54.994 44.233 0
M  V30 4148 C 86.021 55.612 45.423 0
M  V30 4149 C 86.78 54.836 46.213 0
M  V30 4150 C 86.762 53.372 46.115 0
M  V30 4151 C 85.872 52.737 45.342 0
M  V30 4152 C 84.79 53.533 44.613 0
M  V30 4153 C 84.178 52.738 43.406 0
M  V30 4154 C 83.962 51.231 43.674 0
M  V30 4155 C 85.256 50.564 44.206 0
M  V30 4156 C 85.603 51.261 45.525 0
M  V30 4157 C 86.637 50.354 46.184 0
M  V30 4158 C 86.193 48.934 45.793 0
M  V30 4159 C 85.096 49.101 44.709 0
M  V30 4160 C 86.405 50.693 43.163 0
M  V30 4161 C 86.065 57.107 45.672 0
M  V30 4162 C 86.292 54.953 43.064 0
M  V30 4163 O 85.679 58.208 43.563 0
M  V30 4164 H 86.371 57.556 43.368 0
M  V30 4165 C 84.966 47.908 43.698 0
M  V30 4166 C 83.604 47.191 43.616 0
M  V30 4167 C 86.063 46.889 43.91 0
M  V30 4168 C 86.853 46.483 42.903 0
M  V30 4169 C 88.002 45.529 43.14 0
M  V30 4170 C 89.2 45.925 42.259 0
M  V30 4171 C 87.552 44.049 42.956 0
M  V30 4172 C 87.648 43.22 44.248 0
M  V30 4173 C 86.142 43.945 42.359 0
M  V30 4174 C 89.743 47.976 42.01 0
M  V30 4175 C 90.151 49.369 41.534 0
M  V30 4176 C 88.956 50.329 41.545 0
M  V30 4177 C 88.074 50.296 42.853 0
M  V30 4178 C 88.605 49.289 43.886 0
M  V30 4179 C 88.309 49.441 45.186 0
M  V30 4180 C 87.662 50.654 45.699 0
M  V30 4181 C 87.483 51.73 44.922 0
M  V30 4182 C 88.037 51.742 43.497 0
M  V30 4183 C 87.332 52.815 42.594 0
M  V30 4184 C 87.032 54.155 43.304 0
M  V30 4185 C 86.266 53.927 44.632 0
M  V30 4186 C 87.175 53.079 45.528 0
M  V30 4187 C 86.562 53.19 46.92 0
M  V30 4188 C 86.02 54.628 46.978 0
M  V30 4189 C 86.1 55.186 45.532 0
M  V30 4190 C 84.902 53.226 44.362 0
M  V30 4191 C 89.345 48.026 43.488 0
M  V30 4192 C 86.642 49.814 42.493 0
M  V30 4193 O 88.683 47.473 41.237 0
M  V30 4194 H 88.044 47.026 41.815 0
M  V30 4195 C 85.047 56.296 45.183 0
M  V30 4196 C 84.175 56.833 46.334 0
M  V30 4197 C 84.163 55.869 44.034 0
M  V30 4198 C 84.427 56.232 42.769 0
M  V30 4199 C 83.588 55.731 41.614 0
M  V30 4200 C 82.473 54.81 42.139 0
M  V30 4201 C 84.476 55.076 40.515 0
M  V30 4202 C 84.425 53.539 40.528 0
M  V30 4203 C 84.146 55.609 39.114 0
M  V30 4204 C 90.242 46.634 42.435 0
M  V30 4205 C 88.741 46.351 42.449 0
M  V30 4206 C 87.975 47.463 43.174 0
M  V30 4207 C 88.378 48.935 42.772 0
M  V30 4208 C 89.481 48.961 41.7 0
M  V30 4209 C 89.621 50.036 40.908 0
M  V30 4210 C 88.63 51.118 40.882 0
M  V30 4211 C 87.461 51.007 41.526 0
M  V30 4212 C 87.101 49.7 42.233 0
M  V30 4213 C 85.984 49.899 43.317 0
M  V30 4214 C 84.858 50.876 42.908 0
M  V30 4215 C 85.439 52.23 42.424 0
M  V30 4216 C 86.307 51.926 41.199 0
M  V30 4217 C 86.55 53.284 40.548 0
M  V30 4218 C 85.238 54.052 40.783 0
M  V30 4219 C 84.41 53.209 41.788 0
M  V30 4220 C 86.257 52.91 43.56 0
M  V30 4221 C 90.53 47.873 41.582 0
M  V30 4222 C 88.977 49.659 44.008 0
M  V30 4223 O 90.73 46.817 43.74 0
M  V30 4224 H 90.036 47.212 44.292 0
M  V30 4225 C 83.41 54.024 42.682 0
M  V30 4226 C 82.025 54.343 42.087 0
M  V30 4227 C 84.047 55.295 43.196 0
M  V30 4228 C 84.314 55.473 44.499 0
M  V30 4229 C 85.029 56.711 44.994 0
M  V30 4230 C 86.389 56.845 44.29 0
M  V30 4231 C 85.124 56.721 46.55 0
M  V30 4232 C 83.77 56.499 47.243 0
M  V30 4233 C 86.161 55.716 47.07 0
M  V30 4234 C 86.059 45.096 43.231 0
M  V30 4235 C 84.707 45.688 42.838 0
M  V30 4236 C 84.406 46.959 43.64 0
M  V30 4237 C 85.592 47.995 43.735 0
M  V30 4238 C 86.843 47.516 42.98 0
M  V30 4239 C 87.749 48.408 42.549 0
M  V30 4240 C 87.497 49.853 42.586 0
M  V30 4241 C 86.291 50.342 42.903 0
M  V30 4242 C 85.122 49.388 43.146 0
M  V30 4243 C 83.966 50.061 43.968 0
M  V30 4244 C 83.681 51.532 43.589 0
M  V30 4245 C 84.978 52.38 43.617 0
M  V30 4246 C 85.927 51.772 42.58 0
M  V30 4247 C 87.01 52.827 42.377 0
M  V30 4248 C 86.259 54.164 42.507 0
M  V30 4249 C 84.845 53.822 43.047 0
M  V30 4250 C 85.6 52.378 45.044 0
M  V30 4251 C 87.185 46.048 42.818 0
M  V30 4252 C 86.027 48.141 45.219 0
M  V30 4253 O 86.114 44.848 44.614 0
M  V30 4254 H 86.011 43.896 44.776 0
M  V30 4255 C 84.152 54.959 43.878 0
M  V30 4256 C 83.891 56.301 43.165 0
M  V30 4257 C 84.883 55.209 45.178 0
M  V30 4258 C 84.243 55.65 46.272 0
M  V30 4259 C 84.964 55.816 47.592 0
M  V30 4260 C 86.479 55.918 47.351 0
M  V30 4261 C 84.563 54.696 48.597 0
M  V30 4262 C 83.132 54.173 48.387 0
M  V30 4263 C 85.563 53.531 48.591 0
M  V30 4264 C 90.575 46.449 42.704 0
M  V30 4265 C 90.921 47.658 43.571 0
M  V30 4266 C 90.255 48.931 43.036 0
M  V30 4267 C 88.73 48.788 42.659 0
M  V30 4268 C 88.199 47.368 42.915 0
M  V30 4269 C 86.886 47.167 43.111 0
M  V30 4270 C 85.948 48.28 43.296 0
M  V30 4271 C 86.381 49.54 43.438 0
M  V30 4272 C 87.881 49.828 43.499 0
M  V30 4273 C 88.213 51.325 43.166 0
M  V30 4274 C 87.218 52.35 43.757 0
M  V30 4275 C 85.756 51.989 43.389 0
M  V30 4276 C 85.474 50.611 43.996 0
M  V30 4277 C 83.958 50.461 43.935 0
M  V30 4278 C 83.43 51.885 44.185 0
M  V30 4279 C 84.659 52.828 44.105 0
M  V30 4280 C 85.566 51.99 41.843 0
M  V30 4281 C 89.08 46.138 42.816 0
M  V30 4282 C 88.554 49.033 41.135 0
M  V30 4283 O 90.925 46.679 41.362 0
M  V30 4284 H 90.204 46.38 40.784 0
M  V30 4285 C 84.347 54.3 43.658 0
M  V30 4286 C 85.156 54.868 42.475 0
M  V30 4287 C 84.42 55.254 44.828 0
M  V30 4288 C 85.595 55.685 45.313 0
M  V30 4289 C 85.659 56.706 46.428 0
M  V30 4290 C 84.607 56.376 47.5 0
M  V30 4291 C 85.55 58.157 45.869 0
M  V30 4292 C 85.938 58.267 44.385 0
M  V30 4293 C 84.159 58.762 46.104 0
M  V30 4294 C 86.629 51.967 45.559 0
M  V30 4295 O 86.006 50.679 45.6 0
M  V30 4296 C 86.302 49.671 44.672 0
M  V30 4297 C 85.861 48.369 44.921 0
M  V30 4298 C 86.149 47.343 44.022 0
M  V30 4299 C 86.86 47.625 42.849 0
M  V30 4300 C 87.277 48.93 42.561 0
M  V30 4301 C 87.026 49.965 43.498 0
M  V30 4302 C 87.478 51.368 43.327 0
M  V30 4303 O 88.464 51.662 42.6 0
M  V30 4304 C 86.782 52.452 44.104 0
M  V30 4305 C 84.419 54.747 48.025 0
M  V30 4306 C 85.722 55.054 47.624 0
M  V30 4307 C 86.437 54.166 46.813 0
M  V30 4308 C 85.85 52.96 46.391 0
M  V30 4309 C 84.545 52.652 46.81 0
M  V30 4310 C 83.831 53.544 47.614 0
M  V30 4311 O 83.721 55.641 48.835 0
M  V30 4312 H 82.959 55.356 49.299 0
M  V30 4313 O 85.72 46.046 44.297 0
M  V30 4314 H 85.512 45.463 43.594 0
M  V30 4315 O 87.896 49.151 41.329 0
M  V30 4316 H 88.824 49.056 41.246 0
M  V30 4317 O 85.498 52.678 43.545 0
M  V30 4318 C 85.556 53.614 42.482 0
M  V30 4319 O 86.322 54.753 42.867 0
M  V30 4320 C 85.559 55.646 43.658 0
M  V30 4321 C 86.502 56.651 44.32 0
M  V30 4322 C 84.497 56.367 42.786 0
M  V30 4323 C 84.017 55.457 41.624 0
M  V30 4324 C 84.106 53.979 42.045 0
M  V30 4325 O 83.637 53.121 41.032 0
M  V30 4326 H 84.214 53.192 40.256 0
M  V30 4327 O 84.819 55.672 40.488 0
M  V30 4328 H 84.793 56.612 40.247 0
M  V30 4329 O 83.408 56.722 43.6 0
M  V30 4330 H 82.58 56.536 43.13 0
M  V30 4331 C 87.25 52.523 44.61 0
M  V30 4332 O 86.877 51.144 44.516 0
M  V30 4333 C 87.389 50.292 43.528 0
M  V30 4334 C 87.189 48.914 43.651 0
M  V30 4335 C 87.696 48.041 42.69 0
M  V30 4336 C 88.385 48.549 41.582 0
M  V30 4337 C 88.561 49.928 41.42 0
M  V30 4338 C 88.089 50.815 42.421 0
M  V30 4339 C 88.277 52.286 42.384 0
M  V30 4340 O 89.217 52.817 41.736 0
M  V30 4341 C 87.363 53.153 43.207 0
M  V30 4342 C 84.49 54.646 47.172 0
M  V30 4343 C 85.588 55.315 46.624 0
M  V30 4344 C 86.475 54.638 45.781 0
M  V30 4345 C 86.27 53.281 45.475 0
M  V30 4346 C 85.173 52.611 46.043 0
M  V30 4347 C 84.283 53.292 46.878 0
M  V30 4348 O 83.616 55.333 48.013 0
M  V30 4349 H 83.074 56.014 47.669 0
M  V30 4350 O 87.506 46.668 42.839 0
M  V30 4351 H 88.243 46.09 42.826 0
M  V30 4352 O 89.173 50.365 40.242 0
M  V30 4353 H 90.052 50.689 40.262 0
M  V30 4354 O 86.081 53.188 42.602 0
M  V30 4355 C 85.979 54.255 41.673 0
M  V30 4356 O 85.22 55.325 42.232 0
M  V30 4357 C 83.829 55.072 42.147 0
M  V30 4358 C 83.091 56.06 43.05 0
M  V30 4359 C 83.347 55.19 40.677 0
M  V30 4360 C 84.466 54.77 39.687 0
M  V30 4361 C 85.376 53.715 40.342 0
M  V30 4362 O 86.38 53.274 39.459 0
M  V30 4363 H 86.493 53.924 38.748 0
M  V30 4364 O 85.231 55.894 39.326 0
M  V30 4365 H 85.502 55.816 38.398 0
M  V30 4366 O 82.219 54.371 40.503 0
M  V30 4367 H 81.864 54.496 39.609 0
M  V30 4368 C 85.097 52.773 44.932 0
M  V30 4369 O 83.959 52.228 44.256 0
M  V30 4370 C 83.719 50.849 44.181 0
M  V30 4371 C 82.47 50.401 43.741 0
M  V30 4372 C 82.198 49.035 43.666 0
M  V30 4373 C 83.19 48.108 44.008 0
M  V30 4374 C 84.46 48.536 44.414 0
M  V30 4375 C 84.723 49.924 44.536 0
M  V30 4376 C 86.008 50.487 45.018 0
M  V30 4377 O 86.785 49.826 45.757 0
M  V30 4378 C 86.349 51.911 44.672 0
M  V30 4379 C 85.656 56.909 43.801 0
M  V30 4380 C 86.454 56.345 44.801 0
M  V30 4381 C 86.288 55.003 45.16 0
M  V30 4382 C 85.323 54.209 44.517 0
M  V30 4383 C 84.514 54.787 43.523 0
M  V30 4384 C 84.686 56.126 43.161 0
M  V30 4385 O 85.829 58.248 43.456 0
M  V30 4386 H 85.165 58.697 42.973 0
M  V30 4387 O 80.941 48.607 43.245 0
M  V30 4388 H 80.863 48.043 42.501 0
M  V30 4389 O 85.426 47.554 44.645 0
M  V30 4390 H 85.278 46.674 44.361 0
M  V30 4391 O 86.698 51.989 43.3 0
M  V30 4392 C 87.899 51.282 43.033 0
M  V30 4393 O 88.928 52.188 42.642 0
M  V30 4394 C 88.802 52.557 41.281 0
M  V30 4395 C 89.697 53.767 41.011 0
M  V30 4396 C 89.18 51.366 40.361 0
M  V30 4397 C 88.828 50.01 41.029 0
M  V30 4398 C 87.617 50.186 41.964 0
M  V30 4399 O 87.237 48.967 42.556 0
M  V30 4400 H 87.659 48.233 42.084 0
M  V30 4401 O 89.929 49.542 41.767 0
M  V30 4402 H 90.751 49.796 41.319 0
M  V30 4403 O 88.49 51.496 39.144 0
M  V30 4404 H 87.988 50.685 38.969 0
M  V30 4405 C 84.166 51.317 43.853 0
M  V30 4406 O 84.664 51.805 45.104 0
M  V30 4407 C 85.185 53.097 45.254 0
M  V30 4408 C 85.407 53.594 46.54 0
M  V30 4409 C 85.915 54.881 46.721 0
M  V30 4410 C 86.23 55.667 45.606 0
M  V30 4411 C 86.052 55.173 44.308 0
M  V30 4412 C 85.491 53.884 44.123 0
M  V30 4413 C 85.198 53.288 42.797 0
M  V30 4414 O 85.003 54.002 41.778 0
M  V30 4415 C 85.059 51.793 42.69 0
M  V30 4416 C 83.847 47.006 43.82 0
M  V30 4417 C 85.065 47.612 44.139 0
M  V30 4418 C 85.171 49.007 44.166 0
M  V30 4419 C 84.053 49.81 43.879 0
M  V30 4420 C 82.836 49.193 43.545 0
M  V30 4421 C 82.731 47.799 43.525 0
M  V30 4422 O 83.758 45.615 43.792 0
M  V30 4423 H 83.453 45.15 44.546 0
M  V30 4424 O 86.11 55.368 48.011 0
M  V30 4425 H 85.782 56.213 48.247 0
M  V30 4426 O 86.478 55.978 43.249 0
M  V30 4427 H 86.122 55.852 42.392 0
M  V30 4428 O 86.339 51.195 42.804 0
M  V30 4429 C 86.99 51.125 41.546 0
M  V30 4430 O 87.201 49.765 41.173 0
M  V30 4431 C 88.333 49.22 41.826 0
M  V30 4432 C 88.311 47.7 41.667 0
M  V30 4433 C 89.637 49.825 41.243 0
M  V30 4434 C 89.411 51.283 40.762 0
M  V30 4435 C 88.31 51.948 41.609 0
M  V30 4436 O 88.105 53.289 41.233 0
M  V30 4437 H 88.108 53.85 42.024 0
M  V30 4438 O 89.03 51.285 39.408 0
M  V30 4439 H 89.701 51.749 38.884 0
M  V30 4440 O 90.634 49.794 42.233 0
M  V30 4441 H 90.219 49.709 43.105 0
M  V30 4442 C 85.367 52.652 45.469 0
M  V30 4443 O 85.644 54.029 45.742 0
M  V30 4444 C 85.273 55.059 44.867 0
M  V30 4445 C 85.338 56.383 45.31 0
M  V30 4446 C 84.964 57.428 44.465 0
M  V30 4447 C 84.549 57.151 43.157 0
M  V30 4448 C 84.515 55.834 42.681 0
M  V30 4449 C 84.848 54.767 43.554 0
M  V30 4450 C 84.784 53.334 43.176 0
M  V30 4451 O 84.034 52.926 42.25 0
M  V30 4452 C 85.582 52.339 43.975 0
M  V30 4453 C 87.871 50.154 47.956 0
M  V30 4454 C 86.986 51.062 48.545 0
M  V30 4455 C 86.163 51.861 47.747 0
M  V30 4456 C 86.213 51.756 46.345 0
M  V30 4457 C 87.115 50.852 45.759 0
M  V30 4458 C 87.932 50.049 46.561 0
M  V30 4459 O 88.687 49.366 48.765 0
M  V30 4460 H 88.682 48.435 48.67 0
M  V30 4461 O 85.015 58.74 44.931 0
M  V30 4462 H 84.243 59.27 44.921 0
M  V30 4463 O 84.183 55.645 41.337 0
M  V30 4464 H 84.785 55.896 40.665 0
M  V30 4465 O 86.956 52.479 43.657 0
M  V30 4466 C 87.215 52.109 42.313 0
M  V30 4467 O 86.838 50.752 42.092 0
M  V30 4468 C 87.828 49.857 42.565 0
M  V30 4469 C 87.236 48.449 42.621 0
M  V30 4470 C 89.079 49.901 41.647 0
M  V30 4471 C 89.27 51.312 41.031 0
M  V30 4472 C 88.714 52.382 41.989 0
M  V30 4473 O 88.908 53.682 41.485 0
M  V30 4474 H 89.62 54.116 41.979 0
M  V30 4475 O 88.598 51.389 39.798 0
M  V30 4476 H 88.441 52.319 39.572 0
M  V30 4477 O 90.209 49.55 42.404 0
M  V30 4478 H 90.017 48.752 42.92 0
M  V30 4479 C 87.298 53.128 44.33 0
M  V30 4480 O 86.224 54.072 44.41 0
M  V30 4481 C 85.543 54.336 45.605 0
M  V30 4482 C 84.693 55.444 45.671 0
M  V30 4483 C 84.01 55.739 46.851 0
M  V30 4484 C 84.155 54.905 47.966 0
M  V30 4485 C 84.971 53.769 47.909 0
M  V30 4486 C 85.704 53.494 46.726 0
M  V30 4487 C 86.645 52.358 46.576 0
M  V30 4488 O 87.202 51.825 47.572 0
M  V30 4489 C 86.995 51.886 45.191 0
M  V30 4490 C 88.082 52.146 40.193 0
M  V30 4491 C 89.057 51.902 41.165 0
M  V30 4492 C 88.804 52.204 42.507 0
M  V30 4493 C 87.566 52.749 42.892 0
M  V30 4494 C 86.596 53.005 41.907 0
M  V30 4495 C 86.85 52.696 40.568 0
M  V30 4496 O 88.35 51.844 38.86 0
M  V30 4497 H 87.839 52.234 38.179 0
M  V30 4498 O 83.183 56.859 46.904 0
M  V30 4499 H 82.315 56.784 47.249 0
M  V30 4500 O 84.99 52.933 49.028 0
M  V30 4501 H 85.179 53.288 49.874 0
M  V30 4502 O 85.889 51.19 44.641 0
M  V30 4503 C 85.903 49.822 45.014 0
M  V30 4504 O 87.238 49.322 45.011 0
M  V30 4505 C 87.668 49.004 43.7 0
M  V30 4506 C 89.184 48.809 43.709 0
M  V30 4507 C 86.943 47.73 43.188 0
M  V30 4508 C 85.517 47.619 43.789 0
M  V30 4509 C 84.956 49.026 44.068 0
M  V30 4510 O 83.643 48.97 44.574 0
M  V30 4511 H 83.046 49.448 43.976 0
M  V30 4512 O 85.559 46.883 44.986 0
M  V30 4513 H 84.987 47.305 45.646 0
M  V30 4514 O 86.872 47.782 41.786 0
M  V30 4515 H 87.509 48.434 41.454 0
M  V30 4516 C 86.746 49.116 42.358 0
M  V30 4517 O 87.588 47.96 42.418 0
M  V30 4518 C 87.185 46.767 43.032 0
M  V30 4519 C 87.941 45.609 42.829 0
M  V30 4520 C 87.558 44.405 43.418 0
M  V30 4521 C 86.426 44.361 44.239 0
M  V30 4522 C 85.676 45.518 44.488 0
M  V30 4523 C 86.036 46.732 43.851 0
M  V30 4524 C 85.278 48 43.99 0
M  V30 4525 O 84.057 48.011 44.298 0
M  V30 4526 C 85.975 49.297 43.68 0
M  V30 4527 C 89.079 52.597 41.294 0
M  V30 4528 C 87.685 52.681 41.347 0
M  V30 4529 C 86.925 51.563 41.706 0
M  V30 4530 C 87.556 50.346 42.02 0
M  V30 4531 C 88.957 50.265 41.95 0
M  V30 4532 C 89.714 51.386 41.598 0
M  V30 4533 O 89.822 53.719 40.932 0
M  V30 4534 H 89.41 54.427 40.478 0
M  V30 4535 O 88.312 43.256 43.187 0
M  V30 4536 H 89.081 43.091 43.697 0
M  V30 4537 O 84.617 45.417 45.393 0
M  V30 4538 H 84.03 44.688 45.349 0
M  V30 4539 O 86.89 49.597 44.721 0
M  V30 4540 C 86.233 50.193 45.829 0
M  V30 4541 O 85.088 50.921 45.392 0
M  V30 4542 C 85.448 52.19 44.879 0
M  V30 4543 C 84.255 52.774 44.121 0
M  V30 4544 C 85.894 53.131 46.029 0
M  V30 4545 C 86.563 52.331 47.178 0
M  V30 4546 C 87.251 51.075 46.609 0
M  V30 4547 O 87.909 50.343 47.616 0
M  V30 4548 H 87.351 50.308 48.407 0
M  V30 4549 O 85.593 51.949 48.122 0
M  V30 4550 H 85.133 51.154 47.81 0
M  V30 4551 O 86.795 54.079 45.516 0
M  V30 4552 H 87.389 54.376 46.222 0
M  V30 4553 C 85.694 50.941 44.024 0
M  V30 4554 O 84.326 50.591 44.263 0
M  V30 4555 C 83.29 50.973 43.4 0
M  V30 4556 C 82.032 50.385 43.548 0
M  V30 4557 C 80.984 50.737 42.697 0
M  V30 4558 C 81.188 51.705 41.707 0
M  V30 4559 C 82.431 52.336 41.567 0
M  V30 4560 C 83.51 51.944 42.4 0
M  V30 4561 C 84.882 52.497 42.296 0
M  V30 4562 O 85.314 53.001 41.226 0
M  V30 4563 C 85.8 52.381 43.483 0
M  V30 4564 C 87.973 50.357 47.651 0
M  V30 4565 C 88.432 49.821 46.445 0
M  V30 4566 C 87.707 50.019 45.265 0
M  V30 4567 C 86.514 50.764 45.281 0
M  V30 4568 C 86.051 51.288 46.5 0
M  V30 4569 C 86.781 51.093 47.676 0
M  V30 4570 O 88.704 50.148 48.819 0
M  V30 4571 H 89.535 50.565 48.932 0
M  V30 4572 O 79.742 50.124 42.846 0
M  V30 4573 H 79.353 50.056 43.695 0
M  V30 4574 O 82.53 53.359 40.621 0
M  V30 4575 H 82.627 54.248 40.901 0
M  V30 4576 O 85.386 53.293 44.486 0
M  V30 4577 C 86.106 54.512 44.403 0
M  V30 4578 O 86.584 54.892 45.692 0
M  V30 4579 C 85.566 55.505 46.461 0
M  V30 4580 C 86.022 55.574 47.919 0
M  V30 4581 C 85.248 56.919 45.907 0
M  V30 4582 C 85.465 56.98 44.372 0
M  V30 4583 C 85.198 55.596 43.751 0
M  V30 4584 O 85.341 55.619 42.35 0
M  V30 4585 H 85.962 54.926 42.078 0
M  V30 4586 O 86.785 57.375 44.091 0
M  V30 4587 H 86.777 58.233 43.639 0
M  V30 4588 O 83.916 57.238 46.217 0
M  V30 4589 H 83.41 57.347 45.397 0
M  V30 4590 C 86.889 52.287 42.773 0
M  V30 4591 O 86.573 52.649 41.424 0
M  V30 4592 C 85.482 53.468 41.101 0
M  V30 4593 C 85.386 53.991 39.809 0
M  V30 4594 C 84.318 54.817 39.461 0
M  V30 4595 C 83.323 55.101 40.403 0
M  V30 4596 C 83.38 54.556 41.691 0
M  V30 4597 C 84.49 53.755 42.061 0
M  V30 4598 C 84.686 53.18 43.415 0
M  V30 4599 O 84.155 53.693 44.435 0
M  V30 4600 C 85.603 51.998 43.573 0
M  V30 4601 C 89.664 48.973 42.855 0
M  V30 4602 C 88.926 49.293 43.998 0
M  V30 4603 C 88.015 50.354 43.973 0
M  V30 4604 C 87.83 51.105 42.798 0
M  V30 4605 C 88.586 50.786 41.658 0
M  V30 4606 C 89.49 49.721 41.684 0
M  V30 4607 O 90.57 47.915 42.896 0
M  V30 4608 H 90.567 47.269 42.218 0
M  V30 4609 O 84.25 55.347 38.174 0
M  V30 4610 H 83.814 54.871 37.494 0
M  V30 4611 O 82.302 54.806 42.545 0
M  V30 4612 H 81.827 55.61 42.477 0
M  V30 4613 O 84.972 50.842 43.049 0
M  V30 4614 C 84.025 50.313 43.963 0
M  V30 4615 O 84.577 49.195 44.655 0
M  V30 4616 C 84.523 48.021 43.866 0
M  V30 4617 C 85.42 46.958 44.5 0
M  V30 4618 C 83.06 47.518 43.745 0
M  V30 4619 C 82.057 48.701 43.781 0
M  V30 4620 C 82.716 49.964 43.194 0
M  V30 4621 O 81.823 51.051 43.168 0
M  V30 4622 H 81.011 50.791 42.707 0
M  V30 4623 O 81.661 48.95 45.107 0
M  V30 4624 H 82.374 49.41 45.577 0
M  V30 4625 O 82.923 46.808 42.54 0
M  V30 4626 H 83.131 45.873 42.69 0
M  V30 4627 C 85.529 49.452 44.931 0
M  V30 4628 C 86.74 49.547 45.647 0
M  V30 4629 C 87.42 50.755 45.749 0
M  V30 4630 C 86.937 51.888 45.109 0
M  V30 4631 C 85.72 51.842 44.415 0
M  V30 4632 C 84.929 50.631 44.402 0
M  V30 4633 C 83.609 50.664 43.793 0
M  V30 4634 C 82.589 49.688 43.908 0
M  V30 4635 O 82.537 48.548 44.69 0
M  V30 4636 C 81.28 47.894 44.489 0
M  V30 4637 O 80.574 48.733 43.572 0
M  V30 4638 C 81.384 49.808 43.261 0
M  V30 4639 C 81.051 50.909 42.474 0
M  V30 4640 C 81.977 51.961 42.393 0
M  V30 4641 C 83.226 51.821 43.061 0
M  V30 4642 C 84.071 52.893 43.034 0
M  V30 4643 C 85.251 52.958 43.699 0
M  V30 4644 C 85.728 54.251 43.451 0
M  V30 4645 O 86.805 54.748 43.87 0
M  V30 4646 C 84.789 54.91 42.649 0
M  V30 4647 O 84.879 56.098 42.239 0
M  V30 4648 N 83.753 54.092 42.382 0
M  V30 4649 C 82.584 54.25 41.711 0
M  V30 4650 C 81.672 53.17 41.704 0
M  V30 4651 C 85.7 47.027 44.3 0
M  V30 4652 O 84.97 48.193 44.668 0
M  V30 4653 C 84.869 55.397 45.016 0
M  V30 4654 C 84.179 56.323 44.208 0
M  V30 4655 C 84.157 56.191 42.824 0
M  V30 4656 C 84.852 55.161 42.206 0
M  V30 4657 C 85.523 54.201 42.976 0
M  V30 4658 C 85.454 54.242 44.421 0
M  V30 4659 C 86.044 53.15 45.18 0
M  V30 4660 C 85.857 52.867 46.555 0
M  V30 4661 O 85.01 53.458 47.476 0
M  V30 4662 C 85.155 52.803 48.74 0
M  V30 4663 O 86.106 51.762 48.506 0
M  V30 4664 C 86.49 51.821 47.18 0
M  V30 4665 C 87.333 50.935 46.511 0
M  V30 4666 C 87.489 51.097 45.125 0
M  V30 4667 C 86.834 52.19 44.491 0
M  V30 4668 C 86.934 52.274 43.132 0
M  V30 4669 C 86.293 53.193 42.369 0
M  V30 4670 C 86.622 52.852 41.051 0
M  V30 4671 O 86.249 53.446 40.006 0
M  V30 4672 C 87.445 51.721 41.091 0
M  V30 4673 O 87.923 51.126 40.089 0
M  V30 4674 N 87.649 51.342 42.367 0
M  V30 4675 C 88.309 50.304 42.941 0
M  V30 4676 C 88.24 50.171 44.347 0
M  V30 4677 C 85.724 56.794 46.92 0
M  V30 4678 O 85.052 55.66 46.381 0
M  V30 4679 C 85.25 54.678 42.211 0
M  V30 4680 C 84.54 55.872 42.452 0
M  V30 4681 C 84.256 56.289 43.747 0
M  V30 4682 C 84.634 55.511 44.834 0
M  V30 4683 C 85.371 54.335 44.637 0
M  V30 4684 C 85.79 53.946 43.308 0
M  V30 4685 C 86.67 52.798 43.161 0
M  V30 4686 C 87.396 52.42 42.005 0
M  V30 4687 O 87.545 53.078 40.796 0
M  V30 4688 C 88.405 52.313 39.945 0
M  V30 4689 O 88.79 51.185 40.733 0
M  V30 4690 C 88.179 51.293 41.967 0
M  V30 4691 C 88.355 50.454 43.066 0
M  V30 4692 C 87.742 50.819 44.275 0
M  V30 4693 C 86.926 51.985 44.299 0
M  V30 4694 C 86.412 52.363 45.506 0
M  V30 4695 C 85.699 53.496 45.717 0
M  V30 4696 C 85.453 53.51 47.096 0
M  V30 4697 O 84.813 54.383 47.736 0
M  V30 4698 C 86.052 52.374 47.651 0
M  V30 4699 O 86.047 52.064 48.872 0
M  V30 4700 N 86.656 51.651 46.688 0
M  V30 4701 C 87.405 50.519 46.697 0
M  V30 4702 C 87.96 50.081 45.473 0
M  V30 4703 C 84.522 54.557 39.81 0
M  V30 4704 O 85.346 54.173 40.907 0
M  V30 4705 C 86.766 52.633 42.828 0
M  V30 4706 C 87.987 52.003 43.145 0
M  V30 4707 C 88.021 50.681 43.574 0
M  V30 4708 C 86.843 49.965 43.736 0
M  V30 4709 C 85.612 50.545 43.399 0
M  V30 4710 C 85.56 51.875 42.83 0
M  V30 4711 C 84.281 52.386 42.364 0
M  V30 4712 C 84.061 53.525 41.551 0
M  V30 4713 O 84.971 54.351 40.916 0
M  V30 4714 C 84.265 55.354 40.179 0
M  V30 4715 O 82.883 55.05 40.379 0
M  V30 4716 C 82.801 53.936 41.193 0
M  V30 4717 C 81.645 53.251 41.564 0
M  V30 4718 C 81.793 52.059 42.29 0
M  V30 4719 C 83.103 51.648 42.662 0
M  V30 4720 C 83.223 50.443 43.293 0
M  V30 4721 C 84.403 49.864 43.626 0
M  V30 4722 C 84.049 48.623 44.169 0
M  V30 4723 O 84.833 47.749 44.621 0
M  V30 4724 C 82.655 48.514 44.122 0
M  V30 4725 O 81.982 47.524 44.514 0
M  V30 4726 N 82.122 49.625 43.579 0
M  V30 4727 C 80.855 49.999 43.264 0
M  V30 4728 C 80.673 51.24 42.611 0
M  V30 4729 C 86.792 55.021 43.607 0
M  V30 4730 O 86.733 54.016 42.599 0
M  V30 4731 C 81.165 48.34 44.155 0
M  V30 4732 C 79.854 48.724 43.808 0
M  V30 4733 C 79.604 49.938 43.178 0
M  V30 4734 C 80.645 50.818 42.913 0
M  V30 4735 C 81.967 50.459 43.212 0
M  V30 4736 C 82.266 49.149 43.75 0
M  V30 4737 C 83.658 48.763 43.914 0
M  V30 4738 C 84.161 47.463 44.164 0
M  V30 4739 O 83.5 46.248 44.202 0
M  V30 4740 C 84.444 45.203 44.46 0
M  V30 4741 O 85.709 45.864 44.533 0
M  V30 4742 C 85.501 47.215 44.332 0
M  V30 4743 C 86.475 48.208 44.234 0
M  V30 4744 C 86.058 49.504 43.893 0
M  V30 4745 C 84.666 49.749 43.73 0
M  V30 4746 C 84.297 50.997 43.316 0
M  V30 4747 C 83.026 51.364 43.02 0
M  V30 4748 C 83.133 52.686 42.569 0
M  V30 4749 O 82.191 53.43 42.192 0
M  V30 4750 C 84.485 53.045 42.605 0
M  V30 4751 O 84.958 54.159 42.257 0
M  V30 4752 N 85.225 52.015 43.059 0
M  V30 4753 C 86.558 51.824 43.232 0
M  V30 4754 C 86.996 50.551 43.662 0
M  V30 4755 C 80.363 46.306 45.39 0
M  V30 4756 O 81.373 47.217 44.968 0
M  V30 4757 C 87.975 51.751 41.96 0
M  V30 4758 C 88.726 50.561 41.865 0
M  V30 4759 C 88.879 49.72 42.961 0
M  V30 4760 C 88.326 50.058 44.188 0
M  V30 4761 C 87.545 51.215 44.315 0
M  V30 4762 C 87.263 52.04 43.16 0
M  V30 4763 C 86.336 53.151 43.303 0
M  V30 4764 C 85.73 53.899 42.264 0
M  V30 4765 O 85.769 53.706 40.894 0
M  V30 4766 C 84.97 54.707 40.254 0
M  V30 4767 O 84.423 55.479 41.325 0
M  V30 4768 C 84.888 54.953 42.515 0
M  V30 4769 C 84.529 55.348 43.803 0
M  V30 4770 C 85.016 54.591 44.881 0
M  V30 4771 C 85.895 53.506 44.607 0
M  V30 4772 C 86.284 52.737 45.666 0
M  V30 4773 C 87.037 51.614 45.564 0
M  V30 4774 C 87.117 51.12 46.872 0
M  V30 4775 O 87.73 50.089 47.25 0
M  V30 4776 C 86.385 51.977 47.702 0
M  V30 4777 O 86.225 51.837 48.943 0
M  V30 4778 N 85.856 52.983 46.978 0
M  V30 4779 C 85.041 54.025 47.278 0
M  V30 4780 C 84.609 54.856 46.219 0
M  V30 4781 C 88.89 52.642 39.797 0
M  V30 4782 O 88.004 52.681 40.912 0
M  V30 4783 C 88.582 47.253 42.446 0
M  V30 4784 C 89.96 47.316 42.156 0
M  V30 4785 C 90.616 48.537 42.047 0
M  V30 4786 C 89.912 49.726 42.185 0
M  V30 4787 C 88.547 49.705 42.507 0
M  V30 4788 C 87.871 48.449 42.751 0
M  V30 4789 C 86.495 48.476 43.219 0
M  V30 4790 C 85.755 47.397 43.762 0
M  V30 4791 O 86.163 46.115 44.084 0
M  V30 4792 C 85.059 45.393 44.638 0
M  V30 4793 O 83.983 46.333 44.664 0
M  V30 4794 C 84.444 47.529 44.147 0
M  V30 4795 C 83.747 48.734 44.073 0
M  V30 4796 C 84.447 49.87 43.635 0
M  V30 4797 C 85.803 49.718 43.231 0
M  V30 4798 C 86.482 50.853 42.89 0
M  V30 4799 C 87.801 50.894 42.577 0
M  V30 4800 C 88.076 52.253 42.38 0
M  V30 4801 O 89.185 52.757 42.064 0
M  V30 4802 C 86.895 52.969 42.601 0
M  V30 4803 O 86.77 54.22 42.526 0
M  V30 4804 N 85.895 52.125 42.922 0
M  V30 4805 C 84.597 52.302 43.275 0
M  V30 4806 C 83.845 51.16 43.636 0
M  V30 4807 C 88.48 44.745 42.556 0
M  V30 4808 O 87.902 46.03 42.347 0
M  V30 4809 C 85.804 52.484 47.75 0
M  V30 4810 C 86.455 51.548 48.579 0
M  V30 4811 C 87.261 50.551 48.042 0
M  V30 4812 C 87.409 50.434 46.666 0
M  V30 4813 C 86.805 51.365 45.81 0
M  V30 4814 C 86.067 52.487 46.349 0
M  V30 4815 C 85.577 53.506 45.435 0
M  V30 4816 C 85.078 54.788 45.772 0
M  V30 4817 O 85.033 55.429 46.998 0
M  V30 4818 C 84.466 56.732 46.83 0
M  V30 4819 O 84.214 56.843 45.428 0
M  V30 4820 C 84.611 55.664 44.825 0
M  V30 4821 C 84.623 55.384 43.459 0
M  V30 4822 C 85.193 54.17 43.044 0
M  V30 4823 C 85.666 53.267 44.037 0
M  V30 4824 C 86.291 52.133 43.602 0
M  V30 4825 C 86.882 51.222 44.413 0
M  V30 4826 C 87.453 50.287 43.54 0
M  V30 4827 O 88.101 49.257 43.861 0
M  V30 4828 C 87.184 50.699 42.231 0
M  V30 4829 O 87.557 50.107 41.183 0
M  V30 4830 N 86.47 51.842 42.242 0
M  V30 4831 C 86.006 52.667 41.269 0
M  V30 4832 C 85.349 53.854 41.664 0
M  V30 4833 C 83.809 52.965 49.197 0
M  V30 4834 O 84.839 53.346 48.291 0
M  V30 4835 C 82.978 53.931 42.422 0
M  V30 4836 C 81.901 53.409 41.676 0
M  V30 4837 C 81.582 52.057 41.725 0
M  V30 4838 C 82.347 51.183 42.485 0
M  V30 4839 C 83.405 51.668 43.267 0
M  V30 4840 C 83.677 53.088 43.332 0
M  V30 4841 C 84.69 53.563 44.262 0
M  V30 4842 C 84.917 54.901 44.668 0
M  V30 4843 O 84.194 56.048 44.389 0
M  V30 4844 C 84.8 57.161 45.054 0
M  V30 4845 O 85.899 56.602 45.775 0
M  V30 4846 C 85.926 55.242 45.533 0
M  V30 4847 C 86.781 54.304 46.11 0
M  V30 4848 C 86.553 52.948 45.828 0
M  V30 4849 C 85.509 52.608 44.923 0
M  V30 4850 C 85.256 51.28 44.734 0
M  V30 4851 C 84.238 50.791 43.984 0
M  V30 4852 C 84.317 49.401 44.141 0
M  V30 4853 O 83.565 48.542 43.613 0
M  V30 4854 C 85.385 49.125 45.001 0
M  V30 4855 O 85.745 47.978 45.38 0
M  V30 4856 N 85.979 50.271 45.385 0
M  V30 4857 C 87 50.559 46.232 0
M  V30 4858 C 87.306 51.92 46.463 0
M  V30 4859 C 84.17 55.688 41.08 0
M  V30 4860 O 83.409 55.247 42.2 0
M  V30 4861 C 86.256 48.746 44.212 0
M  V30 4862 C 86.446 47.454 43.681 0
M  V30 4863 C 87.611 47.16 42.954 0
M  V30 4864 C 87.75 45.827 42.265 0
M  V30 4865 C 87.108 44.643 43.044 0
M  V30 4866 N 86.134 45.079 44.084 0
M  V30 4867 C 85.424 46.36 43.869 0
M  V30 4868 C 84.443 46.327 42.688 0
M  V30 4869 C 85.309 44.016 44.682 0
M  V30 4870 C 86.532 43.605 42.058 0
M  V30 4871 C 88.57 48.158 42.742 0
M  V30 4872 C 88.393 49.441 43.262 0
M  V30 4873 C 87.236 49.742 44.012 0
M  V30 4874 H 86.786 45.333 44.826 0
M  V30 4875 C 87.026 51.106 44.555 0
M  V30 4876 C 87.221 51.353 45.932 0
M  V30 4877 C 87.652 50.256 46.873 0
M  V30 4878 C 87.031 52.643 46.435 0
M  V30 4879 C 86.624 53.689 45.6 0
M  V30 4880 C 86.409 53.459 44.215 0
M  V30 4881 C 86.625 52.157 43.694 0
M  V30 4882 C 85.992 54.544 43.395 0
M  V30 4883 C 85.805 55.815 43.972 0
M  V30 4884 C 86.024 56.021 45.331 0
M  V30 4885 C 86.43 54.967 46.142 0
M  V30 4886 O 86.45 51.919 42.327 0
M  V30 4887 H 86.956 51.258 41.898 0
M  V30 4888 O 85.769 54.34 42.021 0
M  V30 4889 C 84.638 54.815 41.298 0
M  V30 4890 C 83.943 49.609 44.259 0
M  V30 4891 O 85.076 49.04 44.905 0
M  V30 4892 O 89.371 50.402 42.999 0
M  V30 4893 H 89.314 51.25 43.393 0
M  V30 4894 C 86.387 51.391 44.032 0
M  V30 4895 C 86.212 52.645 44.65 0
M  V30 4896 C 86.738 52.874 45.932 0
M  V30 4897 C 86.429 54.161 46.652 0
M  V30 4898 C 86.331 55.401 45.716 0
M  V30 4899 N 86.143 55.045 44.281 0
M  V30 4900 C 85.464 53.767 43.972 0
M  V30 4901 C 83.981 53.748 44.372 0
M  V30 4902 C 85.794 56.156 43.381 0
M  V30 4903 C 85.273 56.389 46.249 0
M  V30 4904 C 87.419 51.848 46.599 0
M  V30 4905 C 87.598 50.602 45.997 0
M  V30 4906 C 87.091 50.367 44.701 0
M  V30 4907 H 87.109 54.824 44.038 0
M  V30 4908 C 87.259 49.041 44.058 0
M  V30 4909 C 88.389 48.79 43.248 0
M  V30 4910 C 89.446 49.843 43.026 0
M  V30 4911 C 88.545 47.535 42.652 0
M  V30 4912 C 87.586 46.532 42.824 0
M  V30 4913 C 86.436 46.768 43.623 0
M  V30 4914 C 86.284 48.031 44.25 0
M  V30 4915 C 85.478 45.727 43.773 0
M  V30 4916 C 85.692 44.492 43.132 0
M  V30 4917 C 86.827 44.279 42.355 0
M  V30 4918 C 87.769 45.29 42.199 0
M  V30 4919 O 85.174 48.272 45.067 0
M  V30 4920 H 85.295 48.477 45.973 0
M  V30 4921 O 84.328 45.939 44.556 0
M  V30 4922 C 82.989 45.757 44.107 0
M  V30 4923 C 86.472 51.573 41.571 0
M  V30 4924 O 85.828 51.159 42.77 0
M  V30 4925 O 88.264 49.609 46.719 0
M  V30 4926 H 88.143 49.541 47.646 0
M  V30 4927 C 85.067 52.868 45.133 0
M  V30 4928 C 85.092 54.276 45.068 0
M  V30 4929 C 85.261 54.917 43.83 0
M  V30 4930 C 85.433 56.413 43.776 0
M  V30 4931 C 84.603 57.183 44.843 0
M  V30 4932 N 84.133 56.32 45.963 0
M  V30 4933 C 84.945 55.13 46.303 0
M  V30 4934 C 86.323 55.475 46.89 0
M  V30 4935 C 83.562 57.022 47.124 0
M  V30 4936 C 85.369 58.437 45.313 0
M  V30 4937 C 85.423 54.154 42.667 0
M  V30 4938 C 85.399 52.76 42.718 0
M  V30 4939 C 85.21 52.105 43.954 0
M  V30 4940 H 83.325 55.889 45.512 0
M  V30 4941 C 85.202 50.624 44.026 0
M  V30 4942 C 86.417 49.919 44.18 0
M  V30 4943 C 87.736 50.643 44.285 0
M  V30 4944 C 86.4 48.524 44.257 0
M  V30 4945 C 85.201 47.811 44.157 0
M  V30 4946 C 83.969 48.499 43.988 0
M  V30 4947 C 83.978 49.917 43.934 0
M  V30 4948 C 82.768 47.744 43.886 0
M  V30 4949 C 82.828 46.338 43.956 0
M  V30 4950 C 84.044 45.683 44.125 0
M  V30 4951 C 85.224 46.411 44.224 0
M  V30 4952 O 82.772 50.613 43.801 0
M  V30 4953 H 82.742 51.535 43.967 0
M  V30 4954 O 81.537 48.402 43.714 0
M  V30 4955 C 80.315 48.026 44.341 0
M  V30 4956 C 86.057 51.952 47.201 0
M  V30 4957 O 84.935 52.237 46.375 0
M  V30 4958 O 85.589 52.051 41.53 0
M  V30 4959 H 85.414 51.131 41.499 0
M  V30 4960 C 85.256 53.683 44.875 0
M  V30 4961 C 85.033 55.021 45.261 0
M  V30 4962 C 84.696 55.319 46.591 0
M  V30 4963 C 84.317 56.727 46.972 0
M  V30 4964 C 85.103 57.825 46.197 0
M  V30 4965 N 85.761 57.319 44.96 0
M  V30 4966 C 85.143 56.159 44.277 0
M  V30 4967 C 83.774 56.472 43.654 0
M  V30 4968 C 86.306 58.343 44.054 0
M  V30 4969 C 84.204 59.056 45.958 0
M  V30 4970 C 84.563 54.285 47.525 0
M  V30 4971 C 84.782 52.957 47.155 0
M  V30 4972 C 85.14 52.647 45.826 0
M  V30 4973 H 86.588 56.89 45.376 0
M  V30 4974 C 85.357 51.239 45.415 0
M  V30 4975 C 86.626 50.641 45.59 0
M  V30 4976 C 87.776 51.405 46.199 0
M  V30 4977 C 86.82 49.31 45.21 0
M  V30 4978 C 85.784 48.567 44.633 0
M  V30 4979 C 84.505 49.153 44.437 0
M  V30 4980 C 84.295 50.496 44.844 0
M  V30 4981 C 83.475 48.371 43.844 0
M  V30 4982 C 83.746 47.04 43.471 0
M  V30 4983 C 85.005 46.484 43.675 0
M  V30 4984 C 86.02 47.24 44.251 0
M  V30 4985 O 83.033 51.079 44.688 0
M  V30 4986 H 82.877 51.677 43.984 0
M  V30 4987 O 82.201 48.929 43.635 0
M  V30 4988 C 80.967 48.277 43.916 0
M  V30 4989 C 86.889 53.409 43.044 0
M  V30 4990 O 85.556 53.391 43.54 0
M  V30 4991 O 84.612 51.965 48.123 0
M  V30 4992 H 83.798 51.892 48.583 0
M  V30 4993 C 87.301 51.011 43.266 0
M  V30 4994 C 87.651 49.661 43.06 0
M  V30 4995 C 86.679 48.657 43.196 0
M  V30 4996 C 87.081 47.207 43.118 0
M  V30 4997 C 88.228 46.922 42.106 0
M  V30 4998 N 88.991 48.143 41.719 0
M  V30 4999 C 89.057 49.253 42.696 0
M  V30 5000 C 89.866 48.912 43.957 0
M  V30 5001 C 90.236 47.914 40.968 0
M  V30 5002 C 89.122 45.776 42.622 0
M  V30 5003 C 85.369 49 43.554 0
M  V30 5004 C 85.01 50.332 43.76 0
M  V30 5005 C 85.974 51.352 43.608 0
M  V30 5006 H 88.349 48.525 41.024 0
M  V30 5007 C 85.611 52.77 43.842 0
M  V30 5008 C 85.144 53.564 42.77 0
M  V30 5009 C 84.994 52.996 41.38 0
M  V30 5010 C 84.795 54.897 43.001 0
M  V30 5011 C 84.925 55.467 44.272 0
M  V30 5012 C 85.406 54.691 45.36 0
M  V30 5013 C 85.739 53.33 45.137 0
M  V30 5014 C 85.531 55.302 46.638 0
M  V30 5015 C 85.174 56.656 46.795 0
M  V30 5016 C 84.703 57.399 45.717 0
M  V30 5017 C 84.579 56.812 44.462 0
M  V30 5018 O 86.183 52.54 46.203 0
M  V30 5019 H 86.911 51.964 46.087 0
M  V30 5020 O 86.008 54.555 47.73 0
M  V30 5021 C 85.215 54.113 48.827 0
M  V30 5022 C 88.65 52.578 41.916 0
M  V30 5023 O 88.284 52.002 43.164 0
M  V30 5024 O 83.696 50.612 44.139 0
M  V30 5025 H 83.484 50.737 45.044 0
M  V30 5026 C 85.561 53.25 44.435 0
M  V30 5027 C 85.397 54.511 45.043 0
M  V30 5028 C 85.471 54.63 46.44 0
M  V30 5029 C 85.153 55.947 47.1 0
M  V30 5030 C 85.602 57.19 46.278 0
M  V30 5031 N 85.871 56.885 44.844 0
M  V30 5032 C 85.137 55.755 44.231 0
M  V30 5033 C 83.627 56.008 44.094 0
M  V30 5034 C 86.054 58.047 43.96 0
M  V30 5035 C 84.609 58.353 46.483 0
M  V30 5036 C 85.689 53.491 47.226 0
M  V30 5037 C 85.853 52.238 46.636 0
M  V30 5038 C 85.8 52.109 45.231 0
M  V30 5039 H 86.808 56.491 44.933 0
M  V30 5040 C 85.954 50.78 44.592 0
M  V30 5041 C 84.821 49.96 44.39 0
M  V30 5042 C 83.442 50.411 44.803 0
M  V30 5043 C 84.973 48.713 43.777 0
M  V30 5044 C 86.234 48.251 43.385 0
M  V30 5045 C 87.388 49.054 43.592 0
M  V30 5046 C 87.236 50.331 44.19 0
M  V30 5047 C 88.655 48.552 43.185 0
M  V30 5048 C 88.736 47.279 42.588 0
M  V30 5049 C 87.593 46.51 42.392 0
M  V30 5050 C 86.349 46.989 42.787 0
M  V30 5051 O 88.357 51.149 44.372 0
M  V30 5052 H 89.208 50.835 44.144 0
M  V30 5053 O 89.813 49.327 43.383 0
M  V30 5054 C 91.122 48.963 42.958 0
M  V30 5055 C 86.563 53.317 42.18 0
M  V30 5056 O 85.449 53.134 43.045 0
M  V30 5057 O 86.044 51.134 47.47 0
M  V30 5058 H 86.088 51.25 48.399 0
M  V30 5059 C 86.811 50.921 44.306 0
M  V30 5060 C 86.473 52.286 44.398 0
M  V30 5061 C 86.506 53.094 43.25 0
M  V30 5062 C 86.286 54.58 43.37 0
M  V30 5063 C 85.254 54.98 44.465 0
M  V30 5064 N 84.992 53.896 45.453 0
M  V30 5065 C 86.075 52.919 45.708 0
M  V30 5066 C 87.298 53.529 46.41 0
M  V30 5067 C 84.226 54.284 46.649 0
M  V30 5068 C 85.656 56.32 45.113 0
M  V30 5069 C 86.893 52.544 42.021 0
M  V30 5070 C 87.229 51.193 41.918 0
M  V30 5071 C 87.181 50.367 43.061 0
M  V30 5072 H 84.337 53.333 44.911 0
M  V30 5073 C 87.554 48.935 42.97 0
M  V30 5074 C 88.902 48.571 42.752 0
M  V30 5075 C 89.985 49.613 42.619 0
M  V30 5076 C 89.248 47.219 42.677 0
M  V30 5077 C 88.276 46.22 42.787 0
M  V30 5078 C 86.913 46.564 42.993 0
M  V30 5079 C 86.56 47.934 43.095 0
M  V30 5080 C 85.949 45.523 43.097 0
M  V30 5081 C 86.366 44.182 42.996 0
M  V30 5082 C 87.707 43.865 42.798 0
M  V30 5083 C 88.657 44.874 42.693 0
M  V30 5084 O 85.228 48.292 43.329 0
M  V30 5085 H 84.539 47.689 43.132 0
M  V30 5086 O 84.593 45.84 43.296 0
M  V30 5087 C 83.676 45.062 44.059 0
M  V30 5088 C 87.971 49.976 46.271 0
M  V30 5089 O 86.811 50.131 45.461 0
M  V30 5090 O 87.63 50.705 40.673 0
M  V30 5091 H 88.185 51.223 40.122 0
M  V30 5092 C 87.517 50.757 43.587 0
M  V30 5093 C 87.81 49.414 43.272 0
M  V30 5094 C 86.817 48.431 43.405 0
M  V30 5095 C 87.166 46.978 43.208 0
M  V30 5096 C 88.239 46.729 42.108 0
M  V30 5097 N 89.014 47.951 41.752 0
M  V30 5098 C 89.177 48.991 42.793 0
M  V30 5099 C 90.052 48.545 43.974 0
M  V30 5100 C 90.202 47.739 40.909 0
M  V30 5101 C 89.126 45.527 42.49 0
M  V30 5102 C 85.543 48.785 43.868 0
M  V30 5103 C 85.241 50.11 44.183 0
M  V30 5104 C 86.226 51.11 44.035 0
M  V30 5105 H 88.343 48.396 41.126 0
M  V30 5106 C 85.924 52.519 44.383 0
M  V30 5107 C 85.979 52.939 45.732 0
M  V30 5108 C 86.35 51.981 46.837 0
M  V30 5109 C 85.703 54.271 46.051 0
M  V30 5110 C 85.348 55.191 45.06 0
M  V30 5111 C 85.274 54.788 43.7 0
M  V30 5112 C 85.577 53.442 43.367 0
M  V30 5113 C 84.905 55.748 42.717 0
M  V30 5114 C 84.626 57.07 43.113 0
M  V30 5115 C 84.707 57.446 44.451 0
M  V30 5116 C 85.064 56.516 45.42 0
M  V30 5117 O 85.541 53.034 42.029 0
M  V30 5118 H 85.104 52.24 41.793 0
M  V30 5119 O 84.821 55.371 41.365 0
M  V30 5120 C 83.617 55.312 40.606 0
M  V30 5121 C 88.883 52.313 42.243 0
M  V30 5122 O 88.523 51.724 43.486 0
M  V30 5123 O 83.963 50.401 44.664 0
M  V30 5124 H 83.413 51.003 44.202 0
M  V30 5125 C 85.085 50.932 43.72 0
M  V30 5126 C 84.864 49.539 43.712 0
M  V30 5127 C 83.571 49.037 43.49 0
M  V30 5128 C 83.307 47.559 43.624 0
M  V30 5129 C 84.486 46.661 43.151 0
M  V30 5130 N 85.782 47.39 43.052 0
M  V30 5131 C 85.985 48.557 43.941 0
M  V30 5132 C 86.086 48.185 45.428 0
M  V30 5133 C 86.979 46.555 42.856 0
M  V30 5134 C 84.563 45.383 44.013 0
M  V30 5135 C 82.504 49.922 43.296 0
M  V30 5136 C 82.71 51.302 43.302 0
M  V30 5137 C 84.007 51.818 43.504 0
M  V30 5138 H 85.647 47.845 42.15 0
M  V30 5139 C 84.238 53.282 43.531 0
M  V30 5140 C 84.336 54.002 42.319 0
M  V30 5141 C 84.201 53.313 40.984 0
M  V30 5142 C 84.543 55.384 42.352 0
M  V30 5143 C 84.682 56.063 43.567 0
M  V30 5144 C 84.6 55.356 44.797 0
M  V30 5145 C 84.365 53.958 44.77 0
M  V30 5146 C 84.75 56.076 46.014 0
M  V30 5147 C 84.972 57.467 45.973 0
M  V30 5148 C 85.046 58.141 44.758 0
M  V30 5149 C 84.903 57.447 43.561 0
M  V30 5150 O 84.249 53.25 45.971 0
M  V30 5151 H 83.421 53.197 46.406 0
M  V30 5152 O 84.677 55.398 47.245 0
M  V30 5153 C 83.729 55.67 48.272 0
M  V30 5154 C 87.297 51.697 42.935 0
M  V30 5155 O 86.369 51.425 43.978 0
M  V30 5156 O 81.604 52.136 43.127 0
M  V30 5157 H 81.627 53.019 43.442 0
M  V30 5158 C 85.462 56.371 46.103 0
M  V30 5159 C 86.21 55.302 46.928 0
M  V30 5160 C 85.515 53.938 46.873 0
M  V30 5161 C 85.469 53.345 45.423 0
M  V30 5162 C 85.208 54.494 44.356 0
M  V30 5163 C 84.588 55.76 44.984 0
M  V30 5164 C 86.447 54.852 43.525 0
M  V30 5165 C 87.019 53.618 42.907 0
M  V30 5166 C 87.202 52.511 43.65 0
M  V30 5167 C 86.829 52.553 45.138 0
M  V30 5168 C 86.917 51.149 45.839 0
M  V30 5169 C 88.041 50.227 45.32 0
M  V30 5170 C 87.985 50.093 43.777 0
M  V30 5171 C 88.244 51.497 43.222 0
M  V30 5172 C 88.55 51.286 41.745 0
M  V30 5173 C 89.324 49.958 41.713 0
M  V30 5174 C 89.171 49.319 43.12 0
M  V30 5175 C 86.604 49.543 43.318 0
M  V30 5176 C 84.239 52.395 45.361 0
M  V30 5177 O 84.656 57.139 46.96 0
M  V30 5178 H 83.723 56.924 46.806 0
M  V30 5179 C 89.243 47.745 43.102 0
M  V30 5180 C 90.653 47.117 43.126 0
M  V30 5181 C 88.416 47.071 41.974 0
M  V30 5182 C 88.319 45.529 42.016 0
M  V30 5183 C 87.439 44.948 43.158 0
M  V30 5184 C 87.46 43.409 43.148 0
M  V30 5185 C 85.974 45.49 43.132 0
M  V30 5186 C 84.956 44.381 42.819 0
M  V30 5187 C 85.567 46.235 44.414 0
M  V30 5188 C 89.465 50.8 40.648 0
M  V30 5189 C 89.32 52.233 41.204 0
M  V30 5190 C 87.854 52.641 41.378 0
M  V30 5191 C 87.1 51.745 42.42 0
M  V30 5192 C 87.57 50.231 42.3 0
M  V30 5193 C 88.23 49.918 40.94 0
M  V30 5194 C 88.471 49.775 43.456 0
M  V30 5195 C 87.806 50.065 44.763 0
M  V30 5196 C 87.253 51.27 44.988 0
M  V30 5197 C 87.337 52.336 43.888 0
M  V30 5198 C 86.495 53.625 44.206 0
M  V30 5199 C 86.435 54.016 45.699 0
M  V30 5200 C 85.997 52.815 46.573 0
M  V30 5201 C 87.092 51.755 46.415 0
M  V30 5202 C 86.842 50.761 47.541 0
M  V30 5203 C 86.354 51.635 48.707 0
M  V30 5204 C 86.06 53.041 48.117 0
M  V30 5205 C 84.61 52.275 46.12 0
M  V30 5206 C 85.593 51.772 42.036 0
M  V30 5207 O 89.681 50.86 39.262 0
M  V30 5208 H 90.1 50.038 38.963 0
M  V30 5209 C 84.941 53.826 48.901 0
M  V30 5210 C 83.755 52.992 49.432 0
M  V30 5211 C 84.384 55.071 48.161 0
M  V30 5212 C 85.426 56.085 47.636 0
M  V30 5213 C 84.857 57.224 46.744 0
M  V30 5214 C 83.326 57.324 46.88 0
M  V30 5215 C 85.281 57.094 45.247 0
M  V30 5216 C 84.139 56.549 44.371 0
M  V30 5217 C 85.834 58.395 44.645 0
M  V30 5218 C 84.704 57.787 45.769 0
M  V30 5219 C 83.61 56.715 45.572 0
M  V30 5220 C 83.676 56.07 44.184 0
M  V30 5221 C 85.019 55.3 43.942 0
M  V30 5222 C 86.24 56.085 44.592 0
M  V30 5223 C 85.923 57.575 44.844 0
M  V30 5224 C 86.786 55.425 45.865 0
M  V30 5225 C 87.108 53.99 45.595 0
M  V30 5226 C 86.224 53.208 44.95 0
M  V30 5227 C 84.882 53.814 44.518 0
M  V30 5228 C 84.027 52.85 43.617 0
M  V30 5229 C 84.157 51.35 43.956 0
M  V30 5230 C 85.644 50.917 44.008 0
M  V30 5231 C 86.275 51.707 45.158 0
M  V30 5232 C 87.603 51.014 45.431 0
M  V30 5233 C 87.301 49.527 45.189 0
M  V30 5234 C 85.909 49.46 44.504 0
M  V30 5235 C 86.355 51.21 42.655 0
M  V30 5236 C 85.266 55.29 42.407 0
M  V30 5237 O 84.155 59.059 45.537 0
M  V30 5238 H 84.548 59.44 44.737 0
M  V30 5239 C 85.733 48.205 43.568 0
M  V30 5240 C 84.687 47.157 44.004 0
M  V30 5241 C 87.054 47.473 43.211 0
M  V30 5242 C 87.777 47.94 41.928 0
M  V30 5243 C 89.248 47.459 41.778 0
M  V30 5244 C 89.485 46.148 42.551 0
M  V30 5245 C 90.29 48.549 42.187 0
M  V30 5246 C 89.732 49.972 42.012 0
M  V30 5247 C 90.848 48.37 43.608 0
M  V30 5248 C 89.775 48.976 42.593 0
M  V30 5249 C 89.763 50.516 42.489 0
M  V30 5250 C 88.361 51.067 42.211 0
M  V30 5251 C 87.35 50.75 43.365 0
M  V30 5252 C 87.609 49.296 43.953 0
M  V30 5253 C 88.398 48.392 42.981 0
M  V30 5254 C 88.267 49.302 45.34 0
M  V30 5255 C 87.477 50.163 46.272 0
M  V30 5256 C 87.078 51.389 45.888 0
M  V30 5257 C 87.465 51.884 44.488 0
M  V30 5258 C 86.782 53.246 44.1 0
M  V30 5259 C 86.575 54.231 45.271 0
M  V30 5260 C 85.852 53.545 46.456 0
M  V30 5261 C 86.793 52.439 46.943 0
M  V30 5262 C 86.251 52.031 48.306 0
M  V30 5263 C 85.738 53.349 48.91 0
M  V30 5264 C 85.734 54.394 47.762 0
M  V30 5265 C 84.477 52.969 46.01 0
M  V30 5266 C 85.93 50.725 42.731 0
M  V30 5267 O 90.186 48.431 41.366 0
M  V30 5268 H 89.907 49.014 40.643 0
M  V30 5269 C 84.642 55.515 47.943 0
M  V30 5270 C 83.18 55.042 48.079 0
M  V30 5271 C 84.702 56.653 46.889 0
M  V30 5272 C 83.831 56.47 45.626 0
M  V30 5273 C 84.611 56.387 44.284 0
M  V30 5274 C 85.232 57.748 43.916 0
M  V30 5275 C 83.746 55.828 43.11 0
M  V30 5276 C 84.427 56.034 41.746 0
M  V30 5277 C 83.345 54.354 43.284 0
M  V30 5278 C 84.159 57.755 46.525 0
M  V30 5279 C 83.483 56.787 45.53 0
M  V30 5280 C 84.445 56.323 44.431 0
M  V30 5281 C 85.659 55.51 44.998 0
M  V30 5282 C 86.152 56.127 46.378 0
M  V30 5283 C 85.695 57.589 46.573 0
M  V30 5284 C 85.78 55.276 47.599 0
M  V30 5285 C 86.251 53.871 47.402 0
M  V30 5286 C 86.013 53.235 46.241 0
M  V30 5287 C 85.237 53.973 45.141 0
M  V30 5288 C 85.192 53.188 43.78 0
M  V30 5289 C 85.128 51.651 43.912 0
M  V30 5290 C 86.251 51.124 44.84 0
M  V30 5291 C 85.972 51.719 46.223 0
M  V30 5292 C 86.841 50.916 47.181 0
M  V30 5293 C 86.817 49.494 46.599 0
M  V30 5294 C 86.189 49.602 45.183 0
M  V30 5295 C 87.652 51.544 44.309 0
M  V30 5296 C 86.831 55.682 43.991 0
M  V30 5297 O 83.841 59.077 46.175 0
M  V30 5298 H 84.518 59.425 45.574 0
M  V30 5299 C 86.698 48.491 44.188 0
M  V30 5300 C 86.985 48.939 42.739 0
M  V30 5301 C 85.827 47.207 44.15 0
M  V30 5302 C 85.871 46.382 42.844 0
M  V30 5303 C 85.955 44.841 43.031 0
M  V30 5304 C 85.675 44.443 44.492 0
M  V30 5305 C 87.308 44.24 42.534 0
M  V30 5306 C 88.442 45.279 42.56 0
M  V30 5307 C 87.736 42.971 43.288 0
M  V30 5308 C 90.209 47.112 43.434 0
M  V30 5309 C 90.474 48.554 43.917 0
M  V30 5310 C 90.307 49.581 42.791 0
M  V30 5311 C 88.844 49.624 42.229 0
M  V30 5312 C 88.224 48.161 42.168 0
M  V30 5313 C 89.303 47.056 42.184 0
M  V30 5314 C 87.164 47.898 43.245 0
M  V30 5315 C 86.117 48.964 43.199 0
M  V30 5316 C 86.473 50.259 43.135 0
M  V30 5317 C 87.967 50.613 43.129 0
M  V30 5318 C 88.242 52.138 42.865 0
M  V30 5319 C 87.191 53.105 43.453 0
M  V30 5320 C 85.758 52.699 43.025 0
M  V30 5321 C 85.51 51.317 43.636 0
M  V30 5322 C 84.006 51.101 43.524 0
M  V30 5323 C 83.414 52.5 43.755 0
M  V30 5324 C 84.597 53.503 43.691 0
M  V30 5325 C 85.631 52.669 41.474 0
M  V30 5326 C 88.937 50.127 40.761 0
M  V30 5327 O 91.433 46.484 43.154 0
M  V30 5328 H 91.43 46.161 42.24 0
M  V30 5329 C 84.175 54.938 43.199 0
M  V30 5330 C 83.393 55.012 41.87 0
M  V30 5331 C 85.329 55.975 43.157 0
M  V30 5332 C 85.986 56.332 44.51 0
M  V30 5333 C 84.997 56.621 45.674 0
M  V30 5334 C 84.8 58.136 45.874 0
M  V30 5335 C 85.41 55.927 47.012 0
M  V30 5336 C 84.207 55.719 47.947 0
M  V30 5337 C 86.163 54.602 46.814 0
M  V30 5338 C 86.735 46.802 42.691 0
M  V30 5339 C 85.594 47.326 43.588 0
M  V30 5340 C 86.118 48.134 44.78 0
M  V30 5341 C 86.887 49.426 44.339 0
M  V30 5342 C 87.751 49.147 43.034 0
M  V30 5343 C 88.026 47.644 42.813 0
M  V30 5344 C 87.169 49.783 41.764 0
M  V30 5345 C 86.93 51.241 41.99 0
M  V30 5346 C 86.308 51.66 43.106 0
M  V30 5347 C 85.836 50.613 44.124 0
M  V30 5348 C 85.295 51.244 45.458 0
M  V30 5349 C 84.56 52.592 45.294 0
M  V30 5350 C 85.416 53.601 44.49 0
M  V30 5351 C 85.586 52.993 43.094 0
M  V30 5352 C 86.096 54.136 42.226 0
M  V30 5353 C 85.371 55.373 42.778 0
M  V30 5354 C 84.711 54.943 44.116 0
M  V30 5355 C 86.79 53.837 45.181 0
M  V30 5356 C 87.896 49.764 45.473 0
M  V30 5357 O 87.013 45.467 43.025 0
M  V30 5358 H 87.373 45.426 43.925 0
M  V30 5359 C 84.554 56.127 45.144 0
M  V30 5360 C 84.393 57.542 44.549 0
M  V30 5361 C 85.64 56.172 46.251 0
M  V30 5362 C 85.159 55.93 47.7 0
M  V30 5363 C 84.132 54.776 47.876 0
M  V30 5364 C 82.721 55.326 48.157 0
M  V30 5365 C 84.56 53.741 48.965 0
M  V30 5366 C 83.467 52.689 49.218 0
M  V30 5367 C 85.901 53.051 48.671 0
M  V30 5368 C 88.985 46.488 42.397 0
M  V30 5369 C 87.475 46.609 42.692 0
M  V30 5370 C 87.188 47.555 43.863 0
M  V30 5371 C 87.644 49.026 43.574 0
M  V30 5372 C 89.012 49.039 42.763 0
M  V30 5373 C 89.791 47.711 42.888 0
M  V30 5374 C 88.849 49.435 41.29 0
M  V30 5375 C 88.114 50.732 41.19 0
M  V30 5376 C 86.99 50.929 41.902 0
M  V30 5377 C 86.475 49.793 42.796 0
M  V30 5378 C 85.267 50.219 43.708 0
M  V30 5379 C 84.3 51.244 43.076 0
M  V30 5380 C 85.068 52.474 42.531 0
M  V30 5381 C 85.976 51.946 41.416 0
M  V30 5382 C 86.433 53.186 40.66 0
M  V30 5383 C 85.209 54.115 40.7 0
M  V30 5384 C 84.215 53.502 41.722 0
M  V30 5385 C 85.89 53.159 43.661 0
M  V30 5386 C 87.938 49.689 44.949 0
M  V30 5387 O 89.485 45.324 43.003 0
M  V30 5388 H 90.159 44.924 42.431 0
M  V30 5389 C 83.299 54.574 42.424 0
M  V30 5390 C 81.812 54.591 42.009 0
M  V30 5391 C 83.847 56.026 42.375 0
M  V30 5392 C 84.913 56.397 43.43 0
M  V30 5393 C 84.358 56.953 44.771 0
M  V30 5394 C 84.921 58.355 45.067 0
M  V30 5395 C 84.594 55.986 45.975 0
M  V30 5396 C 86.091 55.812 46.288 0
M  V30 5397 C 83.831 56.385 47.248 0
M  V30 5398 C 84.148 57.77 46.168 0
M  V30 5399 C 83.608 56.794 45.101 0
M  V30 5400 C 84.697 56.347 44.12 0
M  V30 5401 C 85.85 55.552 44.823 0
M  V30 5402 C 86.17 56.174 46.251 0
M  V30 5403 C 85.671 57.628 46.392 0
M  V30 5404 C 85.674 55.314 47.421 0
M  V30 5405 C 86.186 53.918 47.278 0
M  V30 5406 C 86.094 53.28 46.098 0
M  V30 5407 C 85.439 54.008 44.916 0
M  V30 5408 C 85.563 53.226 43.559 0
M  V30 5409 C 85.509 51.688 43.682 0
M  V30 5410 C 86.526 51.176 44.733 0
M  V30 5411 C 86.079 51.765 46.075 0
M  V30 5412 C 86.845 50.972 47.126 0
M  V30 5413 C 86.91 49.552 46.545 0
M  V30 5414 C 86.449 49.653 45.066 0
M  V30 5415 C 87.972 51.62 44.368 0
M  V30 5416 C 87.128 55.745 43.959 0
M  V30 5417 O 83.852 59.088 45.784 0
M  V30 5418 H 84.027 59.197 44.836 0
M  V30 5419 C 87.086 48.552 44.136 0
M  V30 5420 C 88.494 48.85 43.578 0
M  V30 5421 C 86.176 48.083 42.97 0
M  V30 5422 C 85.529 46.687 43.119 0
M  V30 5423 C 84.267 46.63 44.024 0
M  V30 5424 C 83.812 45.177 44.255 0
M  V30 5425 C 83.092 47.508 43.486 0
M  V30 5426 C 81.744 46.771 43.558 0
M  V30 5427 C 82.982 48.881 44.17 0
M  V30 5428 C 85.462 56.371 46.103 0
M  V30 5429 C 86.21 55.302 46.928 0
M  V30 5430 C 85.515 53.938 46.873 0
M  V30 5431 C 85.469 53.345 45.423 0
M  V30 5432 C 85.208 54.494 44.356 0
M  V30 5433 C 84.588 55.76 44.984 0
M  V30 5434 C 86.447 54.852 43.525 0
M  V30 5435 C 87.019 53.618 42.907 0
M  V30 5436 C 87.202 52.511 43.65 0
M  V30 5437 C 86.829 52.553 45.138 0
M  V30 5438 C 86.917 51.149 45.839 0
M  V30 5439 C 88.041 50.227 45.32 0
M  V30 5440 C 87.985 50.093 43.777 0
M  V30 5441 C 88.244 51.497 43.222 0
M  V30 5442 C 88.55 51.286 41.745 0
M  V30 5443 C 89.324 49.958 41.713 0
M  V30 5444 C 89.171 49.319 43.12 0
M  V30 5445 C 86.604 49.543 43.318 0
M  V30 5446 C 84.239 52.395 45.361 0
M  V30 5447 O 84.656 57.139 46.96 0
M  V30 5448 H 83.723 56.924 46.806 0
M  V30 5449 C 89.243 47.745 43.102 0
M  V30 5450 C 90.653 47.117 43.126 0
M  V30 5451 C 88.416 47.071 41.974 0
M  V30 5452 C 88.319 45.529 42.016 0
M  V30 5453 C 87.439 44.948 43.158 0
M  V30 5454 C 87.46 43.409 43.148 0
M  V30 5455 C 85.974 45.49 43.132 0
M  V30 5456 C 84.956 44.381 42.819 0
M  V30 5457 C 85.567 46.235 44.414 0
M  V30 5458 C 89.465 50.8 40.648 0
M  V30 5459 C 89.32 52.233 41.204 0
M  V30 5460 C 87.854 52.641 41.378 0
M  V30 5461 C 87.1 51.745 42.42 0
M  V30 5462 C 87.57 50.231 42.3 0
M  V30 5463 C 88.23 49.918 40.94 0
M  V30 5464 C 88.471 49.775 43.456 0
M  V30 5465 C 87.806 50.065 44.763 0
M  V30 5466 C 87.253 51.27 44.988 0
M  V30 5467 C 87.337 52.336 43.888 0
M  V30 5468 C 86.495 53.625 44.206 0
M  V30 5469 C 86.435 54.016 45.699 0
M  V30 5470 C 85.997 52.815 46.573 0
M  V30 5471 C 87.092 51.755 46.415 0
M  V30 5472 C 86.842 50.761 47.541 0
M  V30 5473 C 86.354 51.635 48.707 0
M  V30 5474 C 86.06 53.041 48.117 0
M  V30 5475 C 84.61 52.275 46.12 0
M  V30 5476 C 85.593 51.772 42.036 0
M  V30 5477 O 89.681 50.86 39.262 0
M  V30 5478 H 90.1 50.038 38.963 0
M  V30 5479 C 84.941 53.826 48.901 0
M  V30 5480 C 83.755 52.992 49.432 0
M  V30 5481 C 84.384 55.071 48.161 0
M  V30 5482 C 85.426 56.085 47.636 0
M  V30 5483 C 84.857 57.224 46.744 0
M  V30 5484 C 83.326 57.324 46.88 0
M  V30 5485 C 85.281 57.094 45.247 0
M  V30 5486 C 84.139 56.549 44.371 0
M  V30 5487 C 85.834 58.395 44.645 0
M  V30 5488 C 84.704 57.787 45.769 0
M  V30 5489 C 83.61 56.715 45.572 0
M  V30 5490 C 83.676 56.07 44.184 0
M  V30 5491 C 85.019 55.3 43.942 0
M  V30 5492 C 86.24 56.085 44.592 0
M  V30 5493 C 85.923 57.575 44.844 0
M  V30 5494 C 86.786 55.425 45.865 0
M  V30 5495 C 87.108 53.99 45.595 0
M  V30 5496 C 86.224 53.208 44.95 0
M  V30 5497 C 84.882 53.814 44.518 0
M  V30 5498 C 84.027 52.85 43.617 0
M  V30 5499 C 84.157 51.35 43.956 0
M  V30 5500 C 85.644 50.917 44.008 0
M  V30 5501 C 86.275 51.707 45.158 0
M  V30 5502 C 87.603 51.014 45.431 0
M  V30 5503 C 87.301 49.527 45.189 0
M  V30 5504 C 85.909 49.46 44.504 0
M  V30 5505 C 86.355 51.21 42.655 0
M  V30 5506 C 85.266 55.29 42.407 0
M  V30 5507 O 84.155 59.059 45.537 0
M  V30 5508 H 84.548 59.44 44.737 0
M  V30 5509 C 85.733 48.205 43.568 0
M  V30 5510 C 84.687 47.157 44.004 0
M  V30 5511 C 87.054 47.473 43.211 0
M  V30 5512 C 87.777 47.94 41.928 0
M  V30 5513 C 89.248 47.459 41.778 0
M  V30 5514 C 89.485 46.148 42.551 0
M  V30 5515 C 90.29 48.549 42.187 0
M  V30 5516 C 89.732 49.972 42.012 0
M  V30 5517 C 90.848 48.37 43.608 0
M  V30 5518 C 89.775 48.976 42.593 0
M  V30 5519 C 89.763 50.516 42.489 0
M  V30 5520 C 88.361 51.067 42.211 0
M  V30 5521 C 87.35 50.75 43.365 0
M  V30 5522 C 87.609 49.296 43.953 0
M  V30 5523 C 88.398 48.392 42.981 0
M  V30 5524 C 88.267 49.302 45.34 0
M  V30 5525 C 87.477 50.163 46.272 0
M  V30 5526 C 87.078 51.389 45.888 0
M  V30 5527 C 87.465 51.884 44.488 0
M  V30 5528 C 86.782 53.246 44.1 0
M  V30 5529 C 86.575 54.231 45.271 0
M  V30 5530 C 85.852 53.545 46.456 0
M  V30 5531 C 86.793 52.439 46.943 0
M  V30 5532 C 86.251 52.031 48.306 0
M  V30 5533 C 85.738 53.349 48.91 0
M  V30 5534 C 85.734 54.394 47.762 0
M  V30 5535 C 84.477 52.969 46.01 0
M  V30 5536 C 85.93 50.725 42.731 0
M  V30 5537 O 90.186 48.431 41.366 0
M  V30 5538 H 89.907 49.014 40.643 0
M  V30 5539 C 84.642 55.515 47.943 0
M  V30 5540 C 83.18 55.042 48.079 0
M  V30 5541 C 84.702 56.653 46.889 0
M  V30 5542 C 83.831 56.47 45.626 0
M  V30 5543 C 84.611 56.387 44.284 0
M  V30 5544 C 85.232 57.748 43.916 0
M  V30 5545 C 83.746 55.828 43.11 0
M  V30 5546 C 84.427 56.034 41.746 0
M  V30 5547 C 83.345 54.354 43.284 0
M  V30 5548 C 84.159 57.755 46.525 0
M  V30 5549 C 83.483 56.787 45.53 0
M  V30 5550 C 84.445 56.323 44.431 0
M  V30 5551 C 85.659 55.51 44.998 0
M  V30 5552 C 86.152 56.127 46.378 0
M  V30 5553 C 85.695 57.589 46.573 0
M  V30 5554 C 85.78 55.276 47.599 0
M  V30 5555 C 86.251 53.871 47.402 0
M  V30 5556 C 86.013 53.235 46.241 0
M  V30 5557 C 85.237 53.973 45.141 0
M  V30 5558 C 85.192 53.188 43.78 0
M  V30 5559 C 85.128 51.651 43.912 0
M  V30 5560 C 86.251 51.124 44.84 0
M  V30 5561 C 85.972 51.719 46.223 0
M  V30 5562 C 86.841 50.916 47.181 0
M  V30 5563 C 86.817 49.494 46.599 0
M  V30 5564 C 86.189 49.602 45.183 0
M  V30 5565 C 87.652 51.544 44.309 0
M  V30 5566 C 86.831 55.682 43.991 0
M  V30 5567 O 83.841 59.077 46.175 0
M  V30 5568 H 84.518 59.425 45.574 0
M  V30 5569 C 86.698 48.491 44.188 0
M  V30 5570 C 86.985 48.939 42.739 0
M  V30 5571 C 85.827 47.207 44.15 0
M  V30 5572 C 85.871 46.382 42.844 0
M  V30 5573 C 85.955 44.841 43.031 0
M  V30 5574 C 85.675 44.443 44.492 0
M  V30 5575 C 87.308 44.24 42.534 0
M  V30 5576 C 88.442 45.279 42.56 0
M  V30 5577 C 87.736 42.971 43.288 0
M  V30 5578 C 90.209 47.112 43.434 0
M  V30 5579 C 90.474 48.554 43.917 0
M  V30 5580 C 90.307 49.581 42.791 0
M  V30 5581 C 88.844 49.624 42.229 0
M  V30 5582 C 88.224 48.161 42.168 0
M  V30 5583 C 89.303 47.056 42.184 0
M  V30 5584 C 87.164 47.898 43.245 0
M  V30 5585 C 86.117 48.964 43.199 0
M  V30 5586 C 86.473 50.259 43.135 0
M  V30 5587 C 87.967 50.613 43.129 0
M  V30 5588 C 88.242 52.138 42.865 0
M  V30 5589 C 87.191 53.105 43.453 0
M  V30 5590 C 85.758 52.699 43.025 0
M  V30 5591 C 85.51 51.317 43.636 0
M  V30 5592 C 84.006 51.101 43.524 0
M  V30 5593 C 83.414 52.5 43.755 0
M  V30 5594 C 84.597 53.503 43.691 0
M  V30 5595 C 85.631 52.669 41.474 0
M  V30 5596 C 88.937 50.127 40.761 0
M  V30 5597 O 91.433 46.484 43.154 0
M  V30 5598 H 91.43 46.161 42.24 0
M  V30 5599 C 84.175 54.938 43.199 0
M  V30 5600 C 83.393 55.012 41.87 0
M  V30 5601 C 85.329 55.975 43.157 0
M  V30 5602 C 85.986 56.332 44.51 0
M  V30 5603 C 84.997 56.621 45.674 0
M  V30 5604 C 84.8 58.136 45.874 0
M  V30 5605 C 85.41 55.927 47.012 0
M  V30 5606 C 84.207 55.719 47.947 0
M  V30 5607 C 86.163 54.602 46.814 0
M  V30 5608 C 86.735 46.802 42.691 0
M  V30 5609 C 85.594 47.326 43.588 0
M  V30 5610 C 86.118 48.134 44.78 0
M  V30 5611 C 86.887 49.426 44.339 0
M  V30 5612 C 87.751 49.147 43.034 0
M  V30 5613 C 88.026 47.644 42.813 0
M  V30 5614 C 87.169 49.783 41.764 0
M  V30 5615 C 86.93 51.241 41.99 0
M  V30 5616 C 86.308 51.66 43.106 0
M  V30 5617 C 85.836 50.613 44.124 0
M  V30 5618 C 85.295 51.244 45.458 0
M  V30 5619 C 84.56 52.592 45.294 0
M  V30 5620 C 85.416 53.601 44.49 0
M  V30 5621 C 85.586 52.993 43.094 0
M  V30 5622 C 86.096 54.136 42.226 0
M  V30 5623 C 85.371 55.373 42.778 0
M  V30 5624 C 84.711 54.943 44.116 0
M  V30 5625 C 86.79 53.837 45.181 0
M  V30 5626 C 87.896 49.764 45.473 0
M  V30 5627 O 87.013 45.467 43.025 0
M  V30 5628 H 87.373 45.426 43.925 0
M  V30 5629 C 84.554 56.127 45.144 0
M  V30 5630 C 84.393 57.542 44.549 0
M  V30 5631 C 85.64 56.172 46.251 0
M  V30 5632 C 85.159 55.93 47.7 0
M  V30 5633 C 84.132 54.776 47.876 0
M  V30 5634 C 82.721 55.326 48.157 0
M  V30 5635 C 84.56 53.741 48.965 0
M  V30 5636 C 83.467 52.689 49.218 0
M  V30 5637 C 85.901 53.051 48.671 0
M  V30 5638 C 88.985 46.488 42.397 0
M  V30 5639 C 87.475 46.609 42.692 0
M  V30 5640 C 87.188 47.555 43.863 0
M  V30 5641 C 87.644 49.026 43.574 0
M  V30 5642 C 89.012 49.039 42.763 0
M  V30 5643 C 89.791 47.711 42.888 0
M  V30 5644 C 88.849 49.435 41.29 0
M  V30 5645 C 88.114 50.732 41.19 0
M  V30 5646 C 86.99 50.929 41.902 0
M  V30 5647 C 86.475 49.793 42.796 0
M  V30 5648 C 85.267 50.219 43.708 0
M  V30 5649 C 84.3 51.244 43.076 0
M  V30 5650 C 85.068 52.474 42.531 0
M  V30 5651 C 85.976 51.946 41.416 0
M  V30 5652 C 86.433 53.186 40.66 0
M  V30 5653 C 85.209 54.115 40.7 0
M  V30 5654 C 84.215 53.502 41.722 0
M  V30 5655 C 85.89 53.159 43.661 0
M  V30 5656 C 87.938 49.689 44.949 0
M  V30 5657 O 89.485 45.324 43.003 0
M  V30 5658 H 90.159 44.924 42.431 0
M  V30 5659 C 83.299 54.574 42.424 0
M  V30 5660 C 81.812 54.591 42.009 0
M  V30 5661 C 83.847 56.026 42.375 0
M  V30 5662 C 84.913 56.397 43.43 0
M  V30 5663 C 84.358 56.953 44.771 0
M  V30 5664 C 84.921 58.355 45.067 0
M  V30 5665 C 84.594 55.986 45.975 0
M  V30 5666 C 86.091 55.812 46.288 0
M  V30 5667 C 83.831 56.385 47.248 0
M  V30 5668 C 84.148 57.77 46.168 0
M  V30 5669 C 83.608 56.794 45.101 0
M  V30 5670 C 84.697 56.347 44.12 0
M  V30 5671 C 85.85 55.552 44.823 0
M  V30 5672 C 86.17 56.174 46.251 0
M  V30 5673 C 85.671 57.628 46.392 0
M  V30 5674 C 85.674 55.314 47.421 0
M  V30 5675 C 86.186 53.918 47.278 0
M  V30 5676 C 86.094 53.28 46.098 0
M  V30 5677 C 85.439 54.008 44.916 0
M  V30 5678 C 85.563 53.226 43.559 0
M  V30 5679 C 85.509 51.688 43.682 0
M  V30 5680 C 86.526 51.176 44.733 0
M  V30 5681 C 86.079 51.765 46.075 0
M  V30 5682 C 86.845 50.972 47.126 0
M  V30 5683 C 86.91 49.552 46.545 0
M  V30 5684 C 86.449 49.653 45.066 0
M  V30 5685 C 87.972 51.62 44.368 0
M  V30 5686 C 87.128 55.745 43.959 0
M  V30 5687 O 83.852 59.088 45.784 0
M  V30 5688 H 84.027 59.197 44.836 0
M  V30 5689 C 87.086 48.552 44.136 0
M  V30 5690 C 88.494 48.85 43.578 0
M  V30 5691 C 86.176 48.083 42.97 0
M  V30 5692 C 85.529 46.687 43.119 0
M  V30 5693 C 84.267 46.63 44.024 0
M  V30 5694 C 83.812 45.177 44.255 0
M  V30 5695 C 83.092 47.508 43.486 0
M  V30 5696 C 81.744 46.771 43.558 0
M  V30 5697 C 82.982 48.881 44.17 0
M  V30 5698 C 85.462 56.371 46.103 0
M  V30 5699 C 86.21 55.302 46.928 0
M  V30 5700 C 85.515 53.938 46.873 0
M  V30 5701 C 85.469 53.345 45.423 0
M  V30 5702 C 85.208 54.494 44.356 0
M  V30 5703 C 84.588 55.76 44.984 0
M  V30 5704 C 86.447 54.852 43.525 0
M  V30 5705 C 87.019 53.618 42.907 0
M  V30 5706 C 87.202 52.511 43.65 0
M  V30 5707 C 86.829 52.553 45.138 0
M  V30 5708 C 86.917 51.149 45.839 0
M  V30 5709 C 88.041 50.227 45.32 0
M  V30 5710 C 87.985 50.093 43.777 0
M  V30 5711 C 88.244 51.497 43.222 0
M  V30 5712 C 88.55 51.286 41.745 0
M  V30 5713 C 89.324 49.958 41.713 0
M  V30 5714 C 89.171 49.319 43.12 0
M  V30 5715 C 86.604 49.543 43.318 0
M  V30 5716 C 84.239 52.395 45.361 0
M  V30 5717 O 84.656 57.139 46.96 0
M  V30 5718 H 83.723 56.924 46.806 0
M  V30 5719 C 89.243 47.745 43.102 0
M  V30 5720 C 90.653 47.117 43.126 0
M  V30 5721 C 88.416 47.071 41.974 0
M  V30 5722 C 88.319 45.529 42.016 0
M  V30 5723 C 87.439 44.948 43.158 0
M  V30 5724 C 87.46 43.409 43.148 0
M  V30 5725 C 85.974 45.49 43.132 0
M  V30 5726 C 84.956 44.381 42.819 0
M  V30 5727 C 85.567 46.235 44.414 0
M  V30 5728 C 89.465 50.8 40.648 0
M  V30 5729 C 89.32 52.233 41.204 0
M  V30 5730 C 87.854 52.641 41.378 0
M  V30 5731 C 87.1 51.745 42.42 0
M  V30 5732 C 87.57 50.231 42.3 0
M  V30 5733 C 88.23 49.918 40.94 0
M  V30 5734 C 88.471 49.775 43.456 0
M  V30 5735 C 87.806 50.065 44.763 0
M  V30 5736 C 87.253 51.27 44.988 0
M  V30 5737 C 87.337 52.336 43.888 0
M  V30 5738 C 86.495 53.625 44.206 0
M  V30 5739 C 86.435 54.016 45.699 0
M  V30 5740 C 85.997 52.815 46.573 0
M  V30 5741 C 87.092 51.755 46.415 0
M  V30 5742 C 86.842 50.761 47.541 0
M  V30 5743 C 86.354 51.635 48.707 0
M  V30 5744 C 86.06 53.041 48.117 0
M  V30 5745 C 84.61 52.275 46.12 0
M  V30 5746 C 85.593 51.772 42.036 0
M  V30 5747 O 89.681 50.86 39.262 0
M  V30 5748 H 90.1 50.038 38.963 0
M  V30 5749 C 84.941 53.826 48.901 0
M  V30 5750 C 83.755 52.992 49.432 0
M  V30 5751 C 84.384 55.071 48.161 0
M  V30 5752 C 85.426 56.085 47.636 0
M  V30 5753 C 84.857 57.224 46.744 0
M  V30 5754 C 83.326 57.324 46.88 0
M  V30 5755 C 85.281 57.094 45.247 0
M  V30 5756 C 84.139 56.549 44.371 0
M  V30 5757 C 85.834 58.395 44.645 0
M  V30 5758 C 84.704 57.787 45.769 0
M  V30 5759 C 83.61 56.715 45.572 0
M  V30 5760 C 83.676 56.07 44.184 0
M  V30 5761 C 85.019 55.3 43.942 0
M  V30 5762 C 86.24 56.085 44.592 0
M  V30 5763 C 85.923 57.575 44.844 0
M  V30 5764 C 86.786 55.425 45.865 0
M  V30 5765 C 87.108 53.99 45.595 0
M  V30 5766 C 86.224 53.208 44.95 0
M  V30 5767 C 84.882 53.814 44.518 0
M  V30 5768 C 84.027 52.85 43.617 0
M  V30 5769 C 84.157 51.35 43.956 0
M  V30 5770 C 85.644 50.917 44.008 0
M  V30 5771 C 86.275 51.707 45.158 0
M  V30 5772 C 87.603 51.014 45.431 0
M  V30 5773 C 87.301 49.527 45.189 0
M  V30 5774 C 85.909 49.46 44.504 0
M  V30 5775 C 86.355 51.21 42.655 0
M  V30 5776 C 85.266 55.29 42.407 0
M  V30 5777 O 84.155 59.059 45.537 0
M  V30 5778 H 84.548 59.44 44.737 0
M  V30 5779 C 85.733 48.205 43.568 0
M  V30 5780 C 84.687 47.157 44.004 0
M  V30 5781 C 87.054 47.473 43.211 0
M  V30 5782 C 87.777 47.94 41.928 0
M  V30 5783 C 89.248 47.459 41.778 0
M  V30 5784 C 89.485 46.148 42.551 0
M  V30 5785 C 90.29 48.549 42.187 0
M  V30 5786 C 89.732 49.972 42.012 0
M  V30 5787 C 90.848 48.37 43.608 0
M  V30 5788 C 89.775 48.976 42.593 0
M  V30 5789 C 89.763 50.516 42.489 0
M  V30 5790 C 88.361 51.067 42.211 0
M  V30 5791 C 87.35 50.75 43.365 0
M  V30 5792 C 87.609 49.296 43.953 0
M  V30 5793 C 88.398 48.392 42.981 0
M  V30 5794 C 88.267 49.302 45.34 0
M  V30 5795 C 87.477 50.163 46.272 0
M  V30 5796 C 87.078 51.389 45.888 0
M  V30 5797 C 87.465 51.884 44.488 0
M  V30 5798 C 86.782 53.246 44.1 0
M  V30 5799 C 86.575 54.231 45.271 0
M  V30 5800 C 85.852 53.545 46.456 0
M  V30 5801 C 86.793 52.439 46.943 0
M  V30 5802 C 86.251 52.031 48.306 0
M  V30 5803 C 85.738 53.349 48.91 0
M  V30 5804 C 85.734 54.394 47.762 0
M  V30 5805 C 84.477 52.969 46.01 0
M  V30 5806 C 85.93 50.725 42.731 0
M  V30 5807 O 90.186 48.431 41.366 0
M  V30 5808 H 89.907 49.014 40.643 0
M  V30 5809 C 84.642 55.515 47.943 0
M  V30 5810 C 83.18 55.042 48.079 0
M  V30 5811 C 84.702 56.653 46.889 0
M  V30 5812 C 83.831 56.47 45.626 0
M  V30 5813 C 84.611 56.387 44.284 0
M  V30 5814 C 85.232 57.748 43.916 0
M  V30 5815 C 83.746 55.828 43.11 0
M  V30 5816 C 84.427 56.034 41.746 0
M  V30 5817 C 83.345 54.354 43.284 0
M  V30 5818 C 84.159 57.755 46.525 0
M  V30 5819 C 83.483 56.787 45.53 0
M  V30 5820 C 84.445 56.323 44.431 0
M  V30 5821 C 85.659 55.51 44.998 0
M  V30 5822 C 86.152 56.127 46.378 0
M  V30 5823 C 85.695 57.589 46.573 0
M  V30 5824 C 85.78 55.276 47.599 0
M  V30 5825 C 86.251 53.871 47.402 0
M  V30 5826 C 86.013 53.235 46.241 0
M  V30 5827 C 85.237 53.973 45.141 0
M  V30 5828 C 85.192 53.188 43.78 0
M  V30 5829 C 85.128 51.651 43.912 0
M  V30 5830 C 86.251 51.124 44.84 0
M  V30 5831 C 85.972 51.719 46.223 0
M  V30 5832 C 86.841 50.916 47.181 0
M  V30 5833 C 86.817 49.494 46.599 0
M  V30 5834 C 86.189 49.602 45.183 0
M  V30 5835 C 87.652 51.544 44.309 0
M  V30 5836 C 86.831 55.682 43.991 0
M  V30 5837 O 83.841 59.077 46.175 0
M  V30 5838 H 84.518 59.425 45.574 0
M  V30 5839 C 86.698 48.491 44.188 0
M  V30 5840 C 86.985 48.939 42.739 0
M  V30 5841 C 85.827 47.207 44.15 0
M  V30 5842 C 85.871 46.382 42.844 0
M  V30 5843 C 85.955 44.841 43.031 0
M  V30 5844 C 85.675 44.443 44.492 0
M  V30 5845 C 87.308 44.24 42.534 0
M  V30 5846 C 88.442 45.279 42.56 0
M  V30 5847 C 87.736 42.971 43.288 0
M  V30 5848 C 90.209 47.112 43.434 0
M  V30 5849 C 90.474 48.554 43.917 0
M  V30 5850 C 90.307 49.581 42.791 0
M  V30 5851 C 88.844 49.624 42.229 0
M  V30 5852 C 88.224 48.161 42.168 0
M  V30 5853 C 89.303 47.056 42.184 0
M  V30 5854 C 87.164 47.898 43.245 0
M  V30 5855 C 86.117 48.964 43.199 0
M  V30 5856 C 86.473 50.259 43.135 0
M  V30 5857 C 87.967 50.613 43.129 0
M  V30 5858 C 88.242 52.138 42.865 0
M  V30 5859 C 87.191 53.105 43.453 0
M  V30 5860 C 85.758 52.699 43.025 0
M  V30 5861 C 85.51 51.317 43.636 0
M  V30 5862 C 84.006 51.101 43.524 0
M  V30 5863 C 83.414 52.5 43.755 0
M  V30 5864 C 84.597 53.503 43.691 0
M  V30 5865 C 85.631 52.669 41.474 0
M  V30 5866 C 88.937 50.127 40.761 0
M  V30 5867 O 91.433 46.484 43.154 0
M  V30 5868 H 91.43 46.161 42.24 0
M  V30 5869 C 84.175 54.938 43.199 0
M  V30 5870 C 83.393 55.012 41.87 0
M  V30 5871 C 85.329 55.975 43.157 0
M  V30 5872 C 85.986 56.332 44.51 0
M  V30 5873 C 84.997 56.621 45.674 0
M  V30 5874 C 84.8 58.136 45.874 0
M  V30 5875 C 85.41 55.927 47.012 0
M  V30 5876 C 84.207 55.719 47.947 0
M  V30 5877 C 86.163 54.602 46.814 0
M  V30 5878 C 86.735 46.802 42.691 0
M  V30 5879 C 85.594 47.326 43.588 0
M  V30 5880 C 86.118 48.134 44.78 0
M  V30 5881 C 86.887 49.426 44.339 0
M  V30 5882 C 87.751 49.147 43.034 0
M  V30 5883 C 88.026 47.644 42.813 0
M  V30 5884 C 87.169 49.783 41.764 0
M  V30 5885 C 86.93 51.241 41.99 0
M  V30 5886 C 86.308 51.66 43.106 0
M  V30 5887 C 85.836 50.613 44.124 0
M  V30 5888 C 85.295 51.244 45.458 0
M  V30 5889 C 84.56 52.592 45.294 0
M  V30 5890 C 85.416 53.601 44.49 0
M  V30 5891 C 85.586 52.993 43.094 0
M  V30 5892 C 86.096 54.136 42.226 0
M  V30 5893 C 85.371 55.373 42.778 0
M  V30 5894 C 84.711 54.943 44.116 0
M  V30 5895 C 86.79 53.837 45.181 0
M  V30 5896 C 87.896 49.764 45.473 0
M  V30 5897 O 87.013 45.467 43.025 0
M  V30 5898 H 87.373 45.426 43.925 0
M  V30 5899 C 84.554 56.127 45.144 0
M  V30 5900 C 84.393 57.542 44.549 0
M  V30 5901 C 85.64 56.172 46.251 0
M  V30 5902 C 85.159 55.93 47.7 0
M  V30 5903 C 84.132 54.776 47.876 0
M  V30 5904 C 82.721 55.326 48.157 0
M  V30 5905 C 84.56 53.741 48.965 0
M  V30 5906 C 83.467 52.689 49.218 0
M  V30 5907 C 85.901 53.051 48.671 0
M  V30 5908 C 88.985 46.488 42.397 0
M  V30 5909 C 87.475 46.609 42.692 0
M  V30 5910 C 87.188 47.555 43.863 0
M  V30 5911 C 87.644 49.026 43.574 0
M  V30 5912 C 89.012 49.039 42.763 0
M  V30 5913 C 89.791 47.711 42.888 0
M  V30 5914 C 88.849 49.435 41.29 0
M  V30 5915 C 88.114 50.732 41.19 0
M  V30 5916 C 86.99 50.929 41.902 0
M  V30 5917 C 86.475 49.793 42.796 0
M  V30 5918 C 85.267 50.219 43.708 0
M  V30 5919 C 84.3 51.244 43.076 0
M  V30 5920 C 85.068 52.474 42.531 0
M  V30 5921 C 85.976 51.946 41.416 0
M  V30 5922 C 86.433 53.186 40.66 0
M  V30 5923 C 85.209 54.115 40.7 0
M  V30 5924 C 84.215 53.502 41.722 0
M  V30 5925 C 85.89 53.159 43.661 0
M  V30 5926 C 87.938 49.689 44.949 0
M  V30 5927 O 89.485 45.324 43.003 0
M  V30 5928 H 90.159 44.924 42.431 0
M  V30 5929 C 83.299 54.574 42.424 0
M  V30 5930 C 81.812 54.591 42.009 0
M  V30 5931 C 83.847 56.026 42.375 0
M  V30 5932 C 84.913 56.397 43.43 0
M  V30 5933 C 84.358 56.953 44.771 0
M  V30 5934 C 84.921 58.355 45.067 0
M  V30 5935 C 84.594 55.986 45.975 0
M  V30 5936 C 86.091 55.812 46.288 0
M  V30 5937 C 83.831 56.385 47.248 0
M  V30 5938 C 84.148 57.77 46.168 0
M  V30 5939 C 83.608 56.794 45.101 0
M  V30 5940 C 84.697 56.347 44.12 0
M  V30 5941 C 85.85 55.552 44.823 0
M  V30 5942 C 86.17 56.174 46.251 0
M  V30 5943 C 85.671 57.628 46.392 0
M  V30 5944 C 85.674 55.314 47.421 0
M  V30 5945 C 86.186 53.918 47.278 0
M  V30 5946 C 86.094 53.28 46.098 0
M  V30 5947 C 85.439 54.008 44.916 0
M  V30 5948 C 85.563 53.226 43.559 0
M  V30 5949 C 85.509 51.688 43.682 0
M  V30 5950 C 86.526 51.176 44.733 0
M  V30 5951 C 86.079 51.765 46.075 0
M  V30 5952 C 86.845 50.972 47.126 0
M  V30 5953 C 86.91 49.552 46.545 0
M  V30 5954 C 86.449 49.653 45.066 0
M  V30 5955 C 87.972 51.62 44.368 0
M  V30 5956 C 87.128 55.745 43.959 0
M  V30 5957 O 83.852 59.088 45.784 0
M  V30 5958 H 84.027 59.197 44.836 0
M  V30 5959 C 87.086 48.552 44.136 0
M  V30 5960 C 88.494 48.85 43.578 0
M  V30 5961 C 86.176 48.083 42.97 0
M  V30 5962 C 85.529 46.687 43.119 0
M  V30 5963 C 84.267 46.63 44.024 0
M  V30 5964 C 83.812 45.177 44.255 0
M  V30 5965 C 83.092 47.508 43.486 0
M  V30 5966 C 81.744 46.771 43.558 0
M  V30 5967 C 82.982 48.881 44.17 0
M  V30 END ATOM
M  V30 BEGIN BOND
M  V30 1 1 1 19
M  V30 2 1 1 6
M  V30 3 2 2 1
M  V30 4 1 3 2
M  V30 5 1 22 2
M  V30 6 2 3 4
M  V30 7 1 20 3
M  V30 8 1 4 5
M  V30 9 1 10 4
M  V30 10 2 5 6
M  V30 11 1 5 7
M  V30 12 1 6 40
M  V30 13 1 8 7
M  V30 14 1 8 12 CFG=6
M  V30 15 1 9 8
M  V30 16 1 10 9
M  V30 17 2 11 10
M  V30 18 2 12 13
M  V30 19 1 12 17
M  V30 20 1 13 14
M  V30 21 2 14 15
M  V30 22 1 16 15
M  V30 23 2 17 16
M  V30 24 1 19 18
M  V30 25 1 20 21
M  V30 26 1 22 23
M  V30 27 1 23 24
M  V30 28 2 28 23
M  V30 29 2 24 25
M  V30 30 1 25 31
M  V30 31 1 26 25
M  V30 32 2 27 26
M  V30 33 1 28 27
M  V30 34 1 29 28
M  V30 35 1 30 29
M  V30 36 1 31 32
M  V30 37 2 32 33
M  V30 38 1 32 37
M  V30 39 1 33 34
M  V30 40 2 34 35
M  V30 41 1 36 35
M  V30 42 2 37 36
M  V30 43 1 38 37
M  V30 44 1 38 39
M  V30 45 1 41 40
M  V30 46 1 41 46
M  V30 47 2 42 41
M  V30 48 1 43 42
M  V30 49 2 43 44
M  V30 50 1 49 43
M  V30 51 1 44 45
M  V30 52 2 45 46
M  V30 53 1 46 47
M  V30 54 1 48 47
M  V30 55 1 50 49
M  V30 56 1 50 55
M  V30 57 2 51 50
M  V30 58 1 52 51
M  V30 59 2 52 53
M  V30 60 1 53 54
M  V30 61 2 54 55
M  V30 62 1 55 56
M  V30 63 1 57 56
M  V30 64 1 58 63
M  V30 65 1 58 76
M  V30 66 2 59 58
M  V30 67 1 60 59
M  V30 68 1 79 59
M  V30 69 2 60 61
M  V30 70 1 77 60
M  V30 71 1 61 62
M  V30 72 1 67 61
M  V30 73 1 62 64
M  V30 74 2 62 63
M  V30 75 1 63 97
M  V30 76 1 65 64
M  V30 77 1 65 69 CFG=1
M  V30 78 1 66 65
M  V30 79 1 67 66
M  V30 80 2 68 67
M  V30 81 1 69 70
M  V30 82 2 74 69
M  V30 83 2 70 71
M  V30 84 1 72 71
M  V30 85 2 73 72
M  V30 86 1 74 73
M  V30 87 1 76 75
M  V30 88 1 78 77
M  V30 89 1 80 79
M  V30 90 1 80 81
M  V30 91 2 85 80
M  V30 92 2 82 81
M  V30 93 1 82 88
M  V30 94 1 83 82
M  V30 95 2 84 83
M  V30 96 1 84 85
M  V30 97 1 86 85
M  V30 98 1 87 86
M  V30 99 1 88 89
M  V30 100 1 89 94
M  V30 101 2 90 89
M  V30 102 1 90 91
M  V30 103 2 91 92
M  V30 104 1 92 93
M  V30 105 2 94 93
M  V30 106 1 94 95
M  V30 107 1 96 95
M  V30 108 1 98 97
M  V30 109 2 99 98
M  V30 110 1 103 98
M  V30 111 1 100 99
M  V30 112 2 101 100
M  V30 113 1 106 100
M  V30 114 1 101 102
M  V30 115 2 102 103
M  V30 116 1 103 104
M  V30 117 1 105 104
M  V30 118 1 106 107
M  V30 119 1 107 108
M  V30 120 2 112 107
M  V30 121 2 108 109
M  V30 122 1 110 109
M  V30 123 2 111 110
M  V30 124 1 112 111
M  V30 125 1 113 112
M  V30 126 1 113 114
M  V30 127 1 115 116
M  V30 128 1 115 133
M  V30 129 2 120 115
M  V30 130 1 116 136
M  V30 131 2 117 116
M  V30 132 1 117 134
M  V30 133 1 118 117
M  V30 134 2 119 118
M  V30 135 1 124 118
M  V30 136 1 119 120
M  V30 137 1 121 119
M  V30 138 1 154 120
M  V30 139 1 122 121
M  V30 140 1 122 126 CFG=1
M  V30 141 1 122 123
M  V30 142 1 123 124
M  V30 143 2 124 125
M  V30 144 1 126 131
M  V30 145 2 127 126
M  V30 146 1 128 127
M  V30 147 2 128 129
M  V30 148 1 129 130
M  V30 149 2 130 131
M  V30 150 1 133 132
M  V30 151 1 135 134
M  V30 152 1 137 136
M  V30 153 2 138 137
M  V30 154 1 142 137
M  V30 155 1 139 138
M  V30 156 2 140 139
M  V30 157 1 145 139
M  V30 158 1 140 141
M  V30 159 2 141 142
M  V30 160 1 142 143
M  V30 161 1 144 143
M  V30 162 1 145 146
M  V30 163 1 146 147
M  V30 164 2 151 146
M  V30 165 2 147 148
M  V30 166 1 149 148
M  V30 167 2 150 149
M  V30 168 1 151 150
M  V30 169 1 152 151
M  V30 170 1 152 153
M  V30 171 1 154 155
M  V30 172 1 155 156
M  V30 173 2 160 155
M  V30 174 2 156 157
M  V30 175 1 157 163
M  V30 176 1 158 157
M  V30 177 2 159 158
M  V30 178 1 160 159
M  V30 179 1 161 160
M  V30 180 1 162 161
M  V30 181 1 163 164
M  V30 182 2 164 165
M  V30 183 1 164 169
M  V30 184 1 165 166
M  V30 185 2 166 167
M  V30 186 1 168 167
M  V30 187 2 169 168
M  V30 188 1 170 169
M  V30 189 1 171 170
M  V30 190 1 172 177
M  V30 191 1 172 190
M  V30 192 2 173 172
M  V30 193 1 174 173
M  V30 194 1 193 173
M  V30 195 2 174 175
M  V30 196 1 191 174
M  V30 197 1 175 176
M  V30 198 1 181 175
M  V30 199 1 176 178
M  V30 200 2 176 177
M  V30 201 1 177 211
M  V30 202 1 179 178
M  V30 203 1 179 183 CFG=6
M  V30 204 1 180 179
M  V30 205 1 181 180
M  V30 206 2 182 181
M  V30 207 1 183 188
M  V30 208 2 184 183
M  V30 209 1 184 185
M  V30 210 2 185 186
M  V30 211 1 186 187
M  V30 212 2 188 187
M  V30 213 1 189 190
M  V30 214 1 191 192
M  V30 215 1 193 194
M  V30 216 2 194 199
M  V30 217 1 194 195
M  V30 218 2 195 196
M  V30 219 1 196 197
M  V30 220 1 196 202
M  V30 221 2 198 197
M  V30 222 1 199 198
M  V30 223 1 200 199
M  V30 224 1 201 200
M  V30 225 1 202 203
M  V30 226 1 203 208
M  V30 227 2 204 203
M  V30 228 1 204 205
M  V30 229 2 205 206
M  V30 230 1 206 207
M  V30 231 2 208 207
M  V30 232 1 208 209
M  V30 233 1 210 209
M  V30 234 1 212 211
M  V30 235 1 212 217
M  V30 236 2 213 212
M  V30 237 1 214 213
M  V30 238 2 214 215
M  V30 239 1 220 214
M  V30 240 1 215 216
M  V30 241 2 216 217
M  V30 242 1 217 218
M  V30 243 1 218 219
M  V30 244 1 221 220
M  V30 245 1 222 221
M  V30 246 2 226 221
M  V30 247 2 223 222
M  V30 248 1 224 223
M  V30 249 2 224 225
M  V30 250 1 225 226
M  V30 251 1 226 227
M  V30 252 1 227 228
M  V30 253 2 229 230
M  V30 254 1 229 234
M  V30 255 1 247 229
M  V30 256 1 230 231
M  V30 257 1 250 230
M  V30 258 1 231 248
M  V30 259 2 231 232
M  V30 260 1 232 238
M  V30 261 1 233 232
M  V30 262 1 233 235
M  V30 263 2 234 233
M  V30 264 1 268 234
M  V30 265 1 235 236
M  V30 266 1 236 237
M  V30 267 1 236 240 CFG=1
M  V30 268 1 238 237
M  V30 269 2 238 239
M  V30 270 1 240 245
M  V30 271 2 241 240
M  V30 272 1 241 242
M  V30 273 2 242 243
M  V30 274 1 243 244
M  V30 275 2 245 244
M  V30 276 1 246 247
M  V30 277 1 248 249
M  V30 278 1 250 251
M  V30 279 1 251 256
M  V30 280 2 252 251
M  V30 281 1 252 253
M  V30 282 2 253 254
M  V30 283 1 259 253
M  V30 284 1 254 255
M  V30 285 2 256 255
M  V30 286 1 256 257
M  V30 287 1 257 258
M  V30 288 1 259 260
M  V30 289 1 260 265
M  V30 290 2 261 260
M  V30 291 1 261 262
M  V30 292 2 262 263
M  V30 293 1 263 264
M  V30 294 2 265 264
M  V30 295 1 265 266
M  V30 296 1 267 266
M  V30 297 1 269 268
M  V30 298 1 269 274
M  V30 299 2 270 269
M  V30 300 1 271 270
M  V30 301 2 271 272
M  V30 302 1 277 271
M  V30 303 1 272 273
M  V30 304 2 273 274
M  V30 305 1 274 275
M  V30 306 1 275 276
M  V30 307 1 277 278
M  V30 308 2 278 283
M  V30 309 1 278 279
M  V30 310 2 279 280
M  V30 311 1 280 281
M  V30 312 2 282 281
M  V30 313 1 283 282
M  V30 314 1 284 283
M  V30 315 1 285 284
M  V30 316 1 286 291
M  V30 317 1 286 304
M  V30 318 2 287 286
M  V30 319 1 288 287
M  V30 320 1 307 287
M  V30 321 2 288 289
M  V30 322 1 305 288
M  V30 323 1 289 290
M  V30 324 1 295 289
M  V30 325 2 290 291
M  V30 326 1 292 290
M  V30 327 1 291 325
M  V30 328 1 293 292
M  V30 329 1 293 297 CFG=1
M  V30 330 1 294 293
M  V30 331 1 295 294
M  V30 332 2 296 295
M  V30 333 1 297 298
M  V30 334 2 302 297
M  V30 335 2 298 299
M  V30 336 1 300 299
M  V30 337 2 301 300
M  V30 338 1 302 301
M  V30 339 1 303 304
M  V30 340 1 305 306
M  V30 341 1 307 308
M  V30 342 1 308 309
M  V30 343 2 313 308
M  V30 344 2 309 310
M  V30 345 1 310 316
M  V30 346 1 311 310
M  V30 347 2 312 311
M  V30 348 1 313 312
M  V30 349 1 314 313
M  V30 350 1 315 314
M  V30 351 1 316 317
M  V30 352 1 317 322
M  V30 353 2 318 317
M  V30 354 1 318 319
M  V30 355 2 319 320
M  V30 356 1 320 321
M  V30 357 2 322 321
M  V30 358 1 322 323
M  V30 359 1 324 323
M  V30 360 1 326 325
M  V30 361 2 327 326
M  V30 362 1 331 326
M  V30 363 1 328 327
M  V30 364 2 329 328
M  V30 365 1 334 328
M  V30 366 1 329 330
M  V30 367 2 330 331
M  V30 368 1 331 332
M  V30 369 1 333 332
M  V30 370 1 334 335
M  V30 371 1 335 340
M  V30 372 2 336 335
M  V30 373 1 336 337
M  V30 374 2 337 338
M  V30 375 1 338 339
M  V30 376 2 340 339
M  V30 377 1 340 341
M  V30 378 1 341 342
M  V30 379 1 343 348
M  V30 380 1 343 361
M  V30 381 2 344 343
M  V30 382 1 345 344
M  V30 383 1 364 344
M  V30 384 2 345 346
M  V30 385 1 362 345
M  V30 386 1 346 347
M  V30 387 1 352 346
M  V30 388 1 347 349
M  V30 389 2 347 348
M  V30 390 1 348 382
M  V30 391 1 350 349
M  V30 392 1 350 354 CFG=1
M  V30 393 1 351 350
M  V30 394 1 352 351
M  V30 395 2 353 352
M  V30 396 1 354 355
M  V30 397 2 359 354
M  V30 398 2 355 356
M  V30 399 1 357 356
M  V30 400 2 358 357
M  V30 401 1 359 358
M  V30 402 1 361 360
M  V30 403 1 363 362
M  V30 404 1 365 364
M  V30 405 1 365 366
M  V30 406 2 370 365
M  V30 407 2 367 366
M  V30 408 1 367 373
M  V30 409 1 368 367
M  V30 410 2 369 368
M  V30 411 1 369 370
M  V30 412 1 371 370
M  V30 413 1 372 371
M  V30 414 1 373 374
M  V30 415 1 374 379
M  V30 416 2 375 374
M  V30 417 1 375 376
M  V30 418 2 376 377
M  V30 419 1 377 378
M  V30 420 2 379 378
M  V30 421 1 379 380
M  V30 422 1 381 380
M  V30 423 1 382 383
M  V30 424 2 383 388
M  V30 425 1 383 384
M  V30 426 2 384 385
M  V30 427 1 385 386
M  V30 428 1 385 391
M  V30 429 2 387 386
M  V30 430 1 388 387
M  V30 431 1 389 388
M  V30 432 1 390 389
M  V30 433 1 392 391
M  V30 434 2 393 392
M  V30 435 1 397 392
M  V30 436 1 394 393
M  V30 437 2 395 394
M  V30 438 1 395 396
M  V30 439 2 396 397
M  V30 440 1 397 398
M  V30 441 1 399 398
M  V30 442 1 400 418
M  V30 443 2 401 400
M  V30 444 1 405 400
M  V30 445 1 402 401
M  V30 446 1 421 401
M  V30 447 2 402 403
M  V30 448 1 419 402
M  V30 449 1 403 404
M  V30 450 1 409 403
M  V30 451 2 404 405
M  V30 452 1 406 404
M  V30 453 1 405 439
M  V30 454 1 407 406
M  V30 455 1 407 411 CFG=1
M  V30 456 1 408 407
M  V30 457 1 409 408
M  V30 458 2 410 409
M  V30 459 1 411 412
M  V30 460 2 416 411
M  V30 461 2 412 413
M  V30 462 1 414 413
M  V30 463 2 415 414
M  V30 464 1 416 415
M  V30 465 1 418 417
M  V30 466 1 420 419
M  V30 467 1 421 422
M  V30 468 1 422 423
M  V30 469 2 427 422
M  V30 470 2 423 424
M  V30 471 1 424 430
M  V30 472 1 425 424
M  V30 473 2 426 425
M  V30 474 1 427 426
M  V30 475 1 428 427
M  V30 476 1 429 428
M  V30 477 1 430 431
M  V30 478 2 431 432
M  V30 479 1 431 436
M  V30 480 1 432 433
M  V30 481 2 433 434
M  V30 482 1 435 434
M  V30 483 2 436 435
M  V30 484 1 437 436
M  V30 485 1 438 437
M  V30 486 1 440 439
M  V30 487 1 440 445
M  V30 488 2 441 440
M  V30 489 1 442 441
M  V30 490 2 442 443
M  V30 491 1 448 442
M  V30 492 1 443 444
M  V30 493 2 444 445
M  V30 494 1 445 446
M  V30 495 1 446 447
M  V30 496 1 448 449
M  V30 497 1 449 454
M  V30 498 2 450 449
M  V30 499 1 450 451
M  V30 500 2 451 452
M  V30 501 1 452 453
M  V30 502 2 454 453
M  V30 503 1 454 455
M  V30 504 1 455 456
M  V30 505 1 457 458
M  V30 506 1 457 475
M  V30 507 2 462 457
M  V30 508 1 458 478
M  V30 509 2 459 458
M  V30 510 1 459 476
M  V30 511 1 460 459
M  V30 512 2 461 460
M  V30 513 1 466 460
M  V30 514 1 461 462
M  V30 515 1 463 461
M  V30 516 1 496 462
M  V30 517 1 464 463
M  V30 518 1 464 468 CFG=1
M  V30 519 1 464 465
M  V30 520 1 465 466
M  V30 521 2 466 467
M  V30 522 1 468 469
M  V30 523 2 473 468
M  V30 524 2 470 469
M  V30 525 1 471 470
M  V30 526 2 472 471
M  V30 527 1 472 473
M  V30 528 1 475 474
M  V30 529 1 476 477
M  V30 530 1 479 478
M  V30 531 1 480 479
M  V30 532 2 484 479
M  V30 533 2 481 480
M  V30 534 1 482 481
M  V30 535 1 487 481
M  V30 536 2 482 483
M  V30 537 1 483 484
M  V30 538 1 484 485
M  V30 539 1 485 486
M  V30 540 1 487 488
M  V30 541 1 488 493
M  V30 542 2 489 488
M  V30 543 1 489 490
M  V30 544 2 490 491
M  V30 545 1 491 492
M  V30 546 2 493 492
M  V30 547 1 493 494
M  V30 548 1 494 495
M  V30 549 1 496 497
M  V30 550 1 497 498
M  V30 551 2 502 497
M  V30 552 2 498 499
M  V30 553 1 499 505
M  V30 554 1 500 499
M  V30 555 2 501 500
M  V30 556 1 502 501
M  V30 557 1 503 502
M  V30 558 1 504 503
M  V30 559 1 505 506
M  V30 560 1 506 511
M  V30 561 2 507 506
M  V30 562 1 507 508
M  V30 563 2 508 509
M  V30 564 1 509 510
M  V30 565 2 511 510
M  V30 566 1 511 512
M  V30 567 1 512 513
M  V30 568 1 514 535
M  V30 569 2 515 514
M  V30 570 1 519 514
M  V30 571 1 515 531
M  V30 572 1 516 515
M  V30 573 2 517 516
M  V30 574 1 553 516
M  V30 575 1 517 518
M  V30 576 1 533 517
M  V30 577 2 518 519
M  V30 578 1 523 518
M  V30 579 1 519 520
M  V30 580 1 520 521
M  V30 581 1 521 525 CFG=6
M  V30 582 1 522 521
M  V30 583 1 522 523
M  V30 584 2 523 524
M  V30 585 1 525 526
M  V30 586 2 530 525
M  V30 587 2 527 526
M  V30 588 1 528 527
M  V30 589 2 529 528
M  V30 590 1 529 530
M  V30 591 1 531 532
M  V30 592 1 533 534
M  V30 593 1 535 541
M  V30 594 1 536 537
M  V30 595 2 541 536
M  V30 596 1 542 536
M  V30 597 2 537 538
M  V30 598 1 539 538
M  V30 599 1 539 544
M  V30 600 2 540 539
M  V30 601 1 541 540
M  V30 602 1 542 543
M  V30 603 1 545 544
M  V30 604 2 546 545
M  V30 605 1 550 545
M  V30 606 1 547 546
M  V30 607 2 548 547
M  V30 608 1 548 549
M  V30 609 2 549 550
M  V30 610 1 550 551
M  V30 611 1 552 551
M  V30 612 1 554 553
M  V30 613 1 555 554
M  V30 614 2 559 554
M  V30 615 2 556 555
M  V30 616 1 557 556
M  V30 617 2 557 558
M  V30 618 1 558 559
M  V30 619 1 559 560
M  V30 620 1 560 561
M  V30 621 1 562 567
M  V30 622 2 563 562
M  V30 623 1 583 562
M  V30 624 1 563 564
M  V30 625 1 579 563
M  V30 626 2 564 565
M  V30 627 1 601 564
M  V30 628 1 565 566
M  V30 629 1 565 581
M  V30 630 1 566 571
M  V30 631 2 567 566
M  V30 632 1 567 568
M  V30 633 1 568 569
M  V30 634 1 569 573 CFG=1
M  V30 635 1 569 570
M  V30 636 1 571 570
M  V30 637 2 571 572
M  V30 638 1 573 574
M  V30 639 2 578 573
M  V30 640 2 574 575
M  V30 641 1 576 575
M  V30 642 2 577 576
M  V30 643 1 578 577
M  V30 644 1 580 579
M  V30 645 1 581 582
M  V30 646 1 583 589
M  V30 647 2 584 585
M  V30 648 1 584 589
M  V30 649 1 590 584
M  V30 650 1 585 586
M  V30 651 2 586 587
M  V30 652 1 587 592
M  V30 653 1 588 587
M  V30 654 2 589 588
M  V30 655 1 591 590
M  V30 656 1 593 592
M  V30 657 1 593 594
M  V30 658 2 598 593
M  V30 659 2 595 594
M  V30 660 1 596 595
M  V30 661 2 597 596
M  V30 662 1 597 598
M  V30 663 1 599 598
M  V30 664 1 599 600
M  V30 665 1 601 602
M  V30 666 1 602 607
M  V30 667 2 603 602
M  V30 668 1 603 604
M  V30 669 2 604 605
M  V30 670 1 605 606
M  V30 671 2 607 606
M  V30 672 1 607 608
M  V30 673 1 609 608
M  V30 674 1 610 615
M  V30 675 2 611 610
M  V30 676 1 631 610
M  V30 677 1 611 612
M  V30 678 1 627 611
M  V30 679 2 612 613
M  V30 680 1 649 612
M  V30 681 1 613 614
M  V30 682 1 613 629
M  V30 683 1 614 619
M  V30 684 2 615 614
M  V30 685 1 615 616
M  V30 686 1 616 617
M  V30 687 1 617 621 CFG=6
M  V30 688 1 617 618
M  V30 689 1 619 618
M  V30 690 2 619 620
M  V30 691 1 621 626
M  V30 692 2 622 621
M  V30 693 1 623 622
M  V30 694 2 623 624
M  V30 695 1 624 625
M  V30 696 2 625 626
M  V30 697 1 628 627
M  V30 698 1 630 629
M  V30 699 1 637 631
M  V30 700 1 632 638
M  V30 701 2 633 632
M  V30 702 1 637 632
M  V30 703 1 634 633
M  V30 704 2 635 634
M  V30 705 1 635 636
M  V30 706 1 640 635
M  V30 707 2 636 637
M  V30 708 1 638 639
M  V30 709 1 640 641
M  V30 710 2 641 642
M  V30 711 1 641 646
M  V30 712 1 642 643
M  V30 713 2 643 644
M  V30 714 1 645 644
M  V30 715 2 646 645
M  V30 716 1 647 646
M  V30 717 1 647 648
M  V30 718 1 650 649
M  V30 719 1 650 655
M  V30 720 2 651 650
M  V30 721 1 652 651
M  V30 722 2 652 653
M  V30 723 1 653 654
M  V30 724 2 654 655
M  V30 725 1 655 656
M  V30 726 1 656 657
M  V30 727 1 658 679
M  V30 728 1 659 658
M  V30 729 2 663 658
M  V30 730 1 659 675
M  V30 731 2 660 659
M  V30 732 1 661 660
M  V30 733 1 697 660
M  V30 734 2 661 662
M  V30 735 1 677 661
M  V30 736 1 662 663
M  V30 737 1 667 662
M  V30 738 1 663 664
M  V30 739 1 665 664
M  V30 740 1 665 669 CFG=6
M  V30 741 1 666 665
M  V30 742 1 666 667
M  V30 743 2 668 667
M  V30 744 1 669 674
M  V30 745 2 670 669
M  V30 746 1 671 670
M  V30 747 2 671 672
M  V30 748 1 672 673
M  V30 749 2 673 674
M  V30 750 1 675 676
M  V30 751 1 678 677
M  V30 752 1 685 679
M  V30 753 1 680 686
M  V30 754 2 681 680
M  V30 755 1 685 680
M  V30 756 1 682 681
M  V30 757 2 683 682
M  V30 758 1 683 684
M  V30 759 1 688 683
M  V30 760 2 684 685
M  V30 761 1 687 686
M  V30 762 1 688 689
M  V30 763 1 689 694
M  V30 764 2 690 689
M  V30 765 1 690 691
M  V30 766 2 691 692
M  V30 767 1 692 693
M  V30 768 2 694 693
M  V30 769 1 694 695
M  V30 770 1 695 696
M  V30 771 1 697 698
M  V30 772 1 698 699
M  V30 773 2 703 698
M  V30 774 2 699 700
M  V30 775 1 701 700
M  V30 776 2 702 701
M  V30 777 1 703 702
M  V30 778 1 704 703
M  V30 779 1 705 704
M  V30 780 1 706 727
M  V30 781 1 707 706
M  V30 782 2 711 706
M  V30 783 1 707 723
M  V30 784 2 708 707
M  V30 785 1 709 708
M  V30 786 1 745 708
M  V30 787 2 709 710
M  V30 788 1 725 709
M  V30 789 1 710 711
M  V30 790 1 715 710
M  V30 791 1 711 712
M  V30 792 1 713 712
M  V30 793 1 713 714
M  V30 794 1 713 717 CFG=1
M  V30 795 1 715 714
M  V30 796 2 716 715
M  V30 797 1 717 722
M  V30 798 2 718 717
M  V30 799 1 718 719
M  V30 800 2 719 720
M  V30 801 1 720 721
M  V30 802 2 722 721
M  V30 803 1 723 724
M  V30 804 1 725 726
M  V30 805 1 733 727
M  V30 806 1 728 734
M  V30 807 1 728 733
M  V30 808 2 729 728
M  V30 809 1 730 729
M  V30 810 2 730 731
M  V30 811 1 731 732
M  V30 812 1 736 731
M  V30 813 2 732 733
M  V30 814 1 735 734
M  V30 815 1 736 737
M  V30 816 2 737 742
M  V30 817 1 737 738
M  V30 818 2 738 739
M  V30 819 1 739 740
M  V30 820 2 741 740
M  V30 821 1 742 741
M  V30 822 1 743 742
M  V30 823 1 744 743
M  V30 824 1 746 745
M  V30 825 1 747 746
M  V30 826 2 751 746
M  V30 827 2 748 747
M  V30 828 1 749 748
M  V30 829 2 749 750
M  V30 830 1 750 751
M  V30 831 1 751 752
M  V30 832 1 752 753
M  V30 833 1 754 759
M  V30 834 2 755 754
M  V30 835 1 775 754
M  V30 836 1 755 756
M  V30 837 1 771 755
M  V30 838 2 756 757
M  V30 839 1 793 756
M  V30 840 1 757 758
M  V30 841 1 757 773
M  V30 842 1 758 763
M  V30 843 2 759 758
M  V30 844 1 759 760
M  V30 845 1 760 761
M  V30 846 1 761 765 CFG=6
M  V30 847 1 761 762
M  V30 848 1 762 763
M  V30 849 2 763 764
M  V30 850 1 765 770
M  V30 851 2 766 765
M  V30 852 1 767 766
M  V30 853 2 767 768
M  V30 854 1 768 769
M  V30 855 2 769 770
M  V30 856 1 771 772
M  V30 857 1 773 774
M  V30 858 1 781 775
M  V30 859 1 776 781
M  V30 860 1 776 782
M  V30 861 2 777 776
M  V30 862 1 778 777
M  V30 863 2 778 779
M  V30 864 1 779 780
M  V30 865 1 784 779
M  V30 866 2 780 781
M  V30 867 1 782 783
M  V30 868 1 784 785
M  V30 869 1 785 786
M  V30 870 2 790 785
M  V30 871 2 786 787
M  V30 872 1 788 787
M  V30 873 2 789 788
M  V30 874 1 790 789
M  V30 875 1 791 790
M  V30 876 1 792 791
M  V30 877 1 794 793
M  V30 878 2 795 794
M  V30 879 1 799 794
M  V30 880 1 796 795
M  V30 881 2 797 796
M  V30 882 1 797 798
M  V30 883 2 798 799
M  V30 884 1 799 800
M  V30 885 1 801 800
M  V30 886 1 802 803
M  V30 887 1 802 823
M  V30 888 2 807 802
M  V30 889 1 803 819
M  V30 890 2 804 803
M  V30 891 1 804 841
M  V30 892 1 805 804
M  V30 893 2 806 805
M  V30 894 1 821 805
M  V30 895 1 806 807
M  V30 896 1 811 806
M  V30 897 1 808 807
M  V30 898 1 809 808
M  V30 899 1 809 813 CFG=1
M  V30 900 1 810 809
M  V30 901 1 811 810
M  V30 902 2 812 811
M  V30 903 1 813 814
M  V30 904 2 818 813
M  V30 905 2 814 815
M  V30 906 1 816 815
M  V30 907 2 817 816
M  V30 908 1 818 817
M  V30 909 1 820 819
M  V30 910 1 822 821
M  V30 911 1 829 823
M  V30 912 1 824 830
M  V30 913 2 825 824
M  V30 914 1 829 824
M  V30 915 1 826 825
M  V30 916 2 826 827
M  V30 917 1 827 828
M  V30 918 1 832 827
M  V30 919 2 828 829
M  V30 920 1 830 831
M  V30 921 1 832 833
M  V30 922 1 833 838
M  V30 923 2 834 833
M  V30 924 1 834 835
M  V30 925 2 835 836
M  V30 926 1 836 837
M  V30 927 2 838 837
M  V30 928 1 838 839
M  V30 929 1 839 840
M  V30 930 1 841 842
M  V30 931 1 842 843
M  V30 932 2 847 842
M  V30 933 2 843 844
M  V30 934 1 845 844
M  V30 935 2 846 845
M  V30 936 1 847 846
M  V30 937 1 848 847
M  V30 938 1 849 848
M  V30 939 1 850 871
M  V30 940 1 851 850
M  V30 941 2 855 850
M  V30 942 1 851 867
M  V30 943 2 852 851
M  V30 944 1 853 852
M  V30 945 1 889 852
M  V30 946 2 853 854
M  V30 947 1 869 853
M  V30 948 1 854 855
M  V30 949 1 859 854
M  V30 950 1 855 856
M  V30 951 1 857 856
M  V30 952 1 857 861 CFG=1
M  V30 953 1 858 857
M  V30 954 1 859 858
M  V30 955 2 860 859
M  V30 956 2 861 862
M  V30 957 1 861 866
M  V30 958 1 862 863
M  V30 959 2 863 864
M  V30 960 1 865 864
M  V30 961 2 866 865
M  V30 962 1 868 867
M  V30 963 1 869 870
M  V30 964 1 871 877
M  V30 965 1 872 873
M  V30 966 2 877 872
M  V30 967 1 878 872
M  V30 968 2 873 874
M  V30 969 1 875 874
M  V30 970 1 875 880
M  V30 971 2 876 875
M  V30 972 1 877 876
M  V30 973 1 878 879
M  V30 974 1 881 880
M  V30 975 1 881 886
M  V30 976 2 882 881
M  V30 977 1 883 882
M  V30 978 2 883 884
M  V30 979 1 884 885
M  V30 980 2 885 886
M  V30 981 1 886 887
M  V30 982 1 887 888
M  V30 983 1 890 889
M  V30 984 1 890 891
M  V30 985 2 895 890
M  V30 986 2 892 891
M  V30 987 1 893 892
M  V30 988 2 894 893
M  V30 989 1 894 895
M  V30 990 1 896 895
M  V30 991 1 897 896
M  V30 992 2 898 899
M  V30 993 1 898 903
M  V30 994 1 919 898
M  V30 995 1 899 900
M  V30 996 1 915 899
M  V30 997 1 900 937
M  V30 998 2 900 901
M  V30 999 1 901 917
M  V30 1000 1 902 901
M  V30 1001 1 902 907
M  V30 1002 2 903 902
M  V30 1003 1 904 903
M  V30 1004 1 904 905
M  V30 1005 1 905 909 CFG=6
M  V30 1006 1 905 906
M  V30 1007 1 906 907
M  V30 1008 2 907 908
M  V30 1009 2 910 909
M  V30 1010 1 914 909
M  V30 1011 1 911 910
M  V30 1012 2 912 911
M  V30 1013 1 912 913
M  V30 1014 2 913 914
M  V30 1015 1 915 916
M  V30 1016 1 917 918
M  V30 1017 1 925 919
M  V30 1018 1 920 925
M  V30 1019 2 921 920
M  V30 1020 1 926 920
M  V30 1021 1 921 922
M  V30 1022 2 922 923
M  V30 1023 1 923 928
M  V30 1024 1 923 924
M  V30 1025 2 925 924
M  V30 1026 1 927 926
M  V30 1027 1 928 929
M  V30 1028 1 929 934
M  V30 1029 2 930 929
M  V30 1030 1 930 931
M  V30 1031 2 931 932
M  V30 1032 1 932 933
M  V30 1033 2 934 933
M  V30 1034 1 934 935
M  V30 1035 1 936 935
M  V30 1036 1 937 938
M  V30 1037 1 938 939
M  V30 1038 2 943 938
M  V30 1039 2 939 940
M  V30 1040 1 941 940
M  V30 1041 2 942 941
M  V30 1042 1 943 942
M  V30 1043 1 944 943
M  V30 1044 1 944 945
M  V30 1045 1 946 967
M  V30 1046 1 947 946
M  V30 1047 2 951 946
M  V30 1048 1 947 963
M  V30 1049 2 948 947
M  V30 1050 1 949 948
M  V30 1051 1 976 948
M  V30 1052 2 949 950
M  V30 1053 1 965 949
M  V30 1054 1 950 951
M  V30 1055 1 955 950
M  V30 1056 1 951 952
M  V30 1057 1 953 952
M  V30 1058 1 953 957 CFG=6
M  V30 1059 1 954 953
M  V30 1060 1 955 954
M  V30 1061 2 956 955
M  V30 1062 1 957 958
M  V30 1063 2 962 957
M  V30 1064 2 958 959
M  V30 1065 1 960 959
M  V30 1066 2 961 960
M  V30 1067 1 962 961
M  V30 1068 1 964 963
M  V30 1069 1 966 965
M  V30 1070 1 973 967
M  V30 1071 1 968 974
M  V30 1072 2 969 968
M  V30 1073 1 973 968
M  V30 1074 1 970 969
M  V30 1075 2 971 970
M  V30 1076 1 971 972
M  V30 1077 2 972 973
M  V30 1078 1 975 974
M  V30 1079 1 976 977
M  V30 1080 1 977 978
M  V30 1081 2 982 977
M  V30 1082 2 978 979
M  V30 1083 1 980 979
M  V30 1084 2 981 980
M  V30 1085 1 982 981
M  V30 1086 1 983 982
M  V30 1087 1 984 983
M  V30 1088 1 985 990
M  V30 1089 1 985 1006
M  V30 1090 2 986 985
M  V30 1091 1 987 986
M  V30 1092 1 1002 986
M  V30 1093 2 987 988
M  V30 1094 1 1015 987
M  V30 1095 1 988 989
M  V30 1096 1 1004 988
M  V30 1097 1 989 994
M  V30 1098 2 989 990
M  V30 1099 1 990 991
M  V30 1100 1 991 992
M  V30 1101 1 992 996 CFG=6
M  V30 1102 1 993 992
M  V30 1103 1 994 993
M  V30 1104 2 995 994
M  V30 1105 1 996 997
M  V30 1106 2 1001 996
M  V30 1107 2 997 998
M  V30 1108 1 999 998
M  V30 1109 2 1000 999
M  V30 1110 1 1001 1000
M  V30 1111 1 1002 1003
M  V30 1112 1 1005 1004
M  V30 1113 1 1012 1006
M  V30 1114 1 1007 1012
M  V30 1115 1 1007 1013
M  V30 1116 2 1008 1007
M  V30 1117 1 1009 1008
M  V30 1118 2 1009 1010
M  V30 1119 1 1010 1011
M  V30 1120 2 1011 1012
M  V30 1121 1 1013 1014
M  V30 1122 1 1015 1016
M  V30 1123 2 1016 1021
M  V30 1124 1 1016 1017
M  V30 1125 2 1017 1018
M  V30 1126 1 1018 1019
M  V30 1127 2 1020 1019
M  V30 1128 1 1021 1020
M  V30 1129 1 1022 1021
M  V30 1130 1 1022 1023
M  V30 1131 1 1024 1045
M  V30 1132 1 1025 1024
M  V30 1133 2 1029 1024
M  V30 1134 1 1025 1041
M  V30 1135 2 1026 1025
M  V30 1136 1 1027 1026
M  V30 1137 1 1054 1026
M  V30 1138 2 1027 1028
M  V30 1139 1 1043 1027
M  V30 1140 1 1028 1029
M  V30 1141 1 1033 1028
M  V30 1142 1 1029 1030
M  V30 1143 1 1031 1030
M  V30 1144 1 1031 1035 CFG=1
M  V30 1145 1 1032 1031
M  V30 1146 1 1033 1032
M  V30 1147 2 1034 1033
M  V30 1148 2 1035 1036
M  V30 1149 1 1035 1040
M  V30 1150 1 1036 1037
M  V30 1151 2 1037 1038
M  V30 1152 1 1039 1038
M  V30 1153 2 1040 1039
M  V30 1154 1 1041 1042
M  V30 1155 1 1043 1044
M  V30 1156 1 1051 1045
M  V30 1157 1 1046 1051
M  V30 1158 1 1046 1052
M  V30 1159 2 1047 1046
M  V30 1160 1 1048 1047
M  V30 1161 2 1048 1049
M  V30 1162 1 1049 1050
M  V30 1163 2 1050 1051
M  V30 1164 1 1053 1052
M  V30 1165 1 1055 1054
M  V30 1166 1 1055 1056
M  V30 1167 2 1060 1055
M  V30 1168 2 1057 1056
M  V30 1169 1 1058 1057
M  V30 1170 2 1059 1058
M  V30 1171 1 1059 1060
M  V30 1172 1 1061 1060
M  V30 1173 1 1062 1061
M  V30 1174 1 1063 1084
M  V30 1175 1 1064 1063
M  V30 1176 2 1068 1063
M  V30 1177 1 1064 1080
M  V30 1178 2 1065 1064
M  V30 1179 1 1066 1065
M  V30 1180 1 1093 1065
M  V30 1181 2 1066 1067
M  V30 1182 1 1082 1066
M  V30 1183 1 1067 1068
M  V30 1184 1 1072 1067
M  V30 1185 1 1068 1069
M  V30 1186 1 1070 1069
M  V30 1187 1 1070 1074 CFG=1
M  V30 1188 1 1071 1070
M  V30 1189 1 1072 1071
M  V30 1190 2 1073 1072
M  V30 1191 2 1074 1079
M  V30 1192 1 1074 1075
M  V30 1193 2 1075 1076
M  V30 1194 1 1076 1077
M  V30 1195 2 1078 1077
M  V30 1196 1 1079 1078
M  V30 1197 1 1080 1081
M  V30 1198 1 1083 1082
M  V30 1199 1 1090 1084
M  V30 1200 1 1085 1090
M  V30 1201 1 1085 1091
M  V30 1202 2 1086 1085
M  V30 1203 1 1087 1086
M  V30 1204 2 1087 1088
M  V30 1205 1 1088 1089
M  V30 1206 2 1089 1090
M  V30 1207 1 1091 1092
M  V30 1208 1 1094 1093
M  V30 1209 1 1094 1095
M  V30 1210 2 1099 1094
M  V30 1211 2 1096 1095
M  V30 1212 1 1097 1096
M  V30 1213 2 1098 1097
M  V30 1214 1 1098 1099
M  V30 1215 1 1100 1099
M  V30 1216 1 1100 1101
M  V30 1217 1 1102 1107
M  V30 1218 2 1103 1102
M  V30 1219 1 1123 1102
M  V30 1220 1 1103 1104
M  V30 1221 1 1119 1103
M  V30 1222 2 1104 1105
M  V30 1223 1 1132 1104
M  V30 1224 1 1105 1106
M  V30 1225 1 1105 1121
M  V30 1226 1 1106 1111
M  V30 1227 2 1107 1106
M  V30 1228 1 1107 1108
M  V30 1229 1 1108 1109
M  V30 1230 1 1109 1113 CFG=6
M  V30 1231 1 1109 1110
M  V30 1232 1 1111 1110
M  V30 1233 2 1111 1112
M  V30 1234 1 1113 1118
M  V30 1235 2 1114 1113
M  V30 1236 1 1115 1114
M  V30 1237 2 1115 1116
M  V30 1238 1 1116 1117
M  V30 1239 2 1117 1118
M  V30 1240 1 1120 1119
M  V30 1241 1 1121 1122
M  V30 1242 1 1129 1123
M  V30 1243 1 1124 1129
M  V30 1244 2 1125 1124
M  V30 1245 1 1130 1124
M  V30 1246 1 1125 1126
M  V30 1247 2 1126 1127
M  V30 1248 1 1127 1128
M  V30 1249 2 1129 1128
M  V30 1250 1 1131 1130
M  V30 1251 1 1133 1132
M  V30 1252 1 1133 1134
M  V30 1253 2 1138 1133
M  V30 1254 2 1135 1134
M  V30 1255 1 1136 1135
M  V30 1256 2 1137 1136
M  V30 1257 1 1137 1138
M  V30 1258 1 1139 1138
M  V30 1259 1 1139 1140
M  V30 1260 1 1141 1142
M  V30 1261 1 1141 1162
M  V30 1262 2 1146 1141
M  V30 1263 1 1142 1158
M  V30 1264 2 1143 1142
M  V30 1265 1 1143 1171
M  V30 1266 1 1144 1143
M  V30 1267 2 1145 1144
M  V30 1268 1 1160 1144
M  V30 1269 1 1145 1146
M  V30 1270 1 1150 1145
M  V30 1271 1 1147 1146
M  V30 1272 1 1148 1147
M  V30 1273 1 1148 1152 CFG=1
M  V30 1274 1 1149 1148
M  V30 1275 1 1150 1149
M  V30 1276 2 1151 1150
M  V30 1277 1 1152 1157
M  V30 1278 2 1153 1152
M  V30 1279 1 1153 1154
M  V30 1280 2 1154 1155
M  V30 1281 1 1155 1156
M  V30 1282 2 1157 1156
M  V30 1283 1 1158 1159
M  V30 1284 1 1161 1160
M  V30 1285 1 1168 1162
M  V30 1286 1 1163 1169
M  V30 1287 1 1163 1168
M  V30 1288 2 1164 1163
M  V30 1289 1 1165 1164
M  V30 1290 2 1165 1166
M  V30 1291 1 1166 1167
M  V30 1292 2 1167 1168
M  V30 1293 1 1170 1169
M  V30 1294 1 1171 1172
M  V30 1295 1 1172 1173
M  V30 1296 2 1177 1172
M  V30 1297 2 1173 1174
M  V30 1298 1 1175 1174
M  V30 1299 2 1176 1175
M  V30 1300 1 1177 1176
M  V30 1301 1 1178 1177
M  V30 1302 1 1179 1178
M  V30 1303 1 1180 1201
M  V30 1304 1 1181 1180
M  V30 1305 2 1185 1180
M  V30 1306 1 1181 1197
M  V30 1307 2 1182 1181
M  V30 1308 1 1183 1182
M  V30 1309 1 1210 1182
M  V30 1310 2 1183 1184
M  V30 1311 1 1199 1183
M  V30 1312 1 1184 1185
M  V30 1313 1 1189 1184
M  V30 1314 1 1185 1186
M  V30 1315 1 1187 1186
M  V30 1316 1 1187 1191 CFG=6
M  V30 1317 1 1188 1187
M  V30 1318 1 1189 1188
M  V30 1319 2 1190 1189
M  V30 1320 1 1191 1196
M  V30 1321 2 1192 1191
M  V30 1322 1 1192 1193
M  V30 1323 2 1193 1194
M  V30 1324 1 1194 1195
M  V30 1325 2 1196 1195
M  V30 1326 1 1198 1197
M  V30 1327 1 1200 1199
M  V30 1328 1 1201 1207
M  V30 1329 1 1202 1203
M  V30 1330 2 1207 1202
M  V30 1331 1 1208 1202
M  V30 1332 2 1203 1204
M  V30 1333 1 1205 1204
M  V30 1334 2 1206 1205
M  V30 1335 1 1207 1206
M  V30 1336 1 1209 1208
M  V30 1337 1 1210 1211
M  V30 1338 1 1211 1212
M  V30 1339 2 1216 1211
M  V30 1340 2 1212 1213
M  V30 1341 1 1214 1213
M  V30 1342 2 1215 1214
M  V30 1343 1 1216 1215
M  V30 1344 1 1217 1216
M  V30 1345 1 1218 1217
M  V30 1346 1 1219 1224
M  V30 1347 2 1220 1219
M  V30 1348 1 1240 1219
M  V30 1349 1 1220 1221
M  V30 1350 1 1236 1220
M  V30 1351 2 1221 1222
M  V30 1352 1 1249 1221
M  V30 1353 1 1222 1223
M  V30 1354 1 1222 1238
M  V30 1355 1 1223 1228
M  V30 1356 2 1224 1223
M  V30 1357 1 1224 1225
M  V30 1358 1 1225 1226
M  V30 1359 1 1226 1230 CFG=6
M  V30 1360 1 1226 1227
M  V30 1361 1 1228 1227
M  V30 1362 2 1228 1229
M  V30 1363 1 1230 1235
M  V30 1364 2 1231 1230
M  V30 1365 1 1232 1231
M  V30 1366 2 1232 1233
M  V30 1367 1 1233 1234
M  V30 1368 2 1234 1235
M  V30 1369 1 1237 1236
M  V30 1370 1 1238 1239
M  V30 1371 1 1246 1240
M  V30 1372 1 1241 1246
M  V30 1373 2 1242 1241
M  V30 1374 1 1247 1241
M  V30 1375 1 1242 1243
M  V30 1376 2 1243 1244
M  V30 1377 1 1244 1245
M  V30 1378 2 1245 1246
M  V30 1379 1 1247 1248
M  V30 1380 1 1250 1249
M  V30 1381 1 1250 1251
M  V30 1382 2 1255 1250
M  V30 1383 2 1252 1251
M  V30 1384 1 1253 1252
M  V30 1385 2 1254 1253
M  V30 1386 1 1254 1255
M  V30 1387 1 1256 1255
M  V30 1388 1 1257 1256
M  V30 1389 1 1258 1259
M  V30 1390 1 1258 1279
M  V30 1391 2 1263 1258
M  V30 1392 1 1259 1275
M  V30 1393 2 1260 1259
M  V30 1394 1 1260 1288
M  V30 1395 1 1261 1260
M  V30 1396 2 1262 1261
M  V30 1397 1 1277 1261
M  V30 1398 1 1262 1263
M  V30 1399 1 1267 1262
M  V30 1400 1 1264 1263
M  V30 1401 1 1265 1264
M  V30 1402 1 1265 1269 CFG=6
M  V30 1403 1 1266 1265
M  V30 1404 1 1266 1267
M  V30 1405 2 1268 1267
M  V30 1406 1 1269 1270
M  V30 1407 2 1274 1269
M  V30 1408 2 1271 1270
M  V30 1409 1 1272 1271
M  V30 1410 2 1273 1272
M  V30 1411 1 1273 1274
M  V30 1412 1 1275 1276
M  V30 1413 1 1278 1277
M  V30 1414 1 1285 1279
M  V30 1415 1 1280 1285
M  V30 1416 1 1280 1286
M  V30 1417 2 1281 1280
M  V30 1418 1 1282 1281
M  V30 1419 2 1282 1283
M  V30 1420 1 1283 1284
M  V30 1421 2 1284 1285
M  V30 1422 1 1287 1286
M  V30 1423 1 1289 1288
M  V30 1424 2 1290 1289
M  V30 1425 1 1294 1289
M  V30 1426 1 1291 1290
M  V30 1427 2 1292 1291
M  V30 1428 1 1292 1293
M  V30 1429 2 1293 1294
M  V30 1430 1 1294 1295
M  V30 1431 1 1295 1296
M  V30 1432 1 1297 1298
M  V30 1433 1 1298 1303
M  V30 1434 2 1299 1298
M  V30 1435 1 1299 1300
M  V30 1436 1 1300 1305 CFG=1
M  V30 1437 1 1300 1301
M  V30 1438 1 1301 1315
M  V30 1439 1 1301 1304 CFG=1
M  V30 1440 1 1302 1301
M  V30 1441 1 1303 1302
M  V30 1442 1 1305 1310
M  V30 1443 2 1306 1305
M  V30 1444 1 1306 1307
M  V30 1445 2 1307 1308
M  V30 1446 1 1308 1309
M  V30 1447 1 1308 1313
M  V30 1448 1 1309 1311
M  V30 1449 2 1310 1309
M  V30 1450 2 1311 1312
M  V30 1451 1 1313 1312
M  V30 1452 1 1313 1314
M  V30 1453 2 1316 1315
M  V30 1454 1 1316 1317
M  V30 1455 1 1317 1322
M  V30 1456 2 1318 1317
M  V30 1457 1 1318 1319
M  V30 1458 2 1319 1320
M  V30 1459 1 1320 1321
M  V30 1460 1 1320 1325
M  V30 1461 1 1321 1323
M  V30 1462 2 1322 1321
M  V30 1463 2 1323 1324
M  V30 1464 1 1325 1324
M  V30 1465 1 1326 1325
M  V30 1466 1 1328 1327
M  V30 1467 1 1328 1333
M  V30 1468 2 1329 1328
M  V30 1469 1 1330 1329
M  V30 1470 1 1330 1335 CFG=6
M  V30 1471 1 1330 1331
M  V30 1472 1 1331 1334 CFG=6
M  V30 1473 1 1331 1332
M  V30 1474 1 1345 1331
M  V30 1475 1 1332 1333
M  V30 1476 2 1336 1335
M  V30 1477 1 1340 1335
M  V30 1478 1 1337 1336
M  V30 1479 2 1338 1337
M  V30 1480 1 1338 1339
M  V30 1481 1 1343 1338
M  V30 1482 2 1339 1340
M  V30 1483 1 1341 1339
M  V30 1484 2 1342 1341
M  V30 1485 1 1342 1343
M  V30 1486 1 1344 1343
M  V30 1487 2 1346 1345
M  V30 1488 1 1347 1346
M  V30 1489 1 1348 1347
M  V30 1490 2 1352 1347
M  V30 1491 2 1349 1348
M  V30 1492 1 1350 1349
M  V30 1493 2 1350 1351
M  V30 1494 1 1355 1350
M  V30 1495 1 1351 1352
M  V30 1496 1 1353 1351
M  V30 1497 2 1354 1353
M  V30 1498 1 1354 1355
M  V30 1499 1 1356 1355
M  V30 1500 1 1358 1357
M  V30 1501 2 1359 1358
M  V30 1502 1 1363 1358
M  V30 1503 1 1360 1359
M  V30 1504 1 1360 1365 CFG=6
M  V30 1505 1 1361 1360
M  V30 1506 1 1361 1364 CFG=6
M  V30 1507 1 1361 1362
M  V30 1508 1 1375 1361
M  V30 1509 1 1362 1363
M  V30 1510 1 1365 1366
M  V30 1511 2 1370 1365
M  V30 1512 2 1367 1366
M  V30 1513 1 1368 1367
M  V30 1514 2 1369 1368
M  V30 1515 1 1373 1368
M  V30 1516 1 1369 1370
M  V30 1517 1 1371 1369
M  V30 1518 2 1372 1371
M  V30 1519 1 1372 1373
M  V30 1520 1 1374 1373
M  V30 1521 2 1376 1375
M  V30 1522 1 1377 1376
M  V30 1523 1 1378 1377
M  V30 1524 2 1382 1377
M  V30 1525 2 1379 1378
M  V30 1526 1 1380 1379
M  V30 1527 2 1380 1381
M  V30 1528 1 1385 1380
M  V30 1529 1 1381 1382
M  V30 1530 1 1383 1381
M  V30 1531 2 1384 1383
M  V30 1532 1 1384 1385
M  V30 1533 1 1386 1385
M  V30 1534 1 1387 1388
M  V30 1535 1 1388 1393
M  V30 1536 2 1389 1388
M  V30 1537 1 1389 1390
M  V30 1538 1 1390 1395 CFG=1
M  V30 1539 1 1390 1391
M  V30 1540 1 1391 1405
M  V30 1541 1 1391 1394 CFG=1
M  V30 1542 1 1392 1391
M  V30 1543 1 1393 1392
M  V30 1544 1 1395 1396
M  V30 1545 2 1400 1395
M  V30 1546 2 1396 1397
M  V30 1547 1 1398 1397
M  V30 1548 1 1398 1403
M  V30 1549 2 1399 1398
M  V30 1550 1 1400 1399
M  V30 1551 1 1401 1399
M  V30 1552 2 1401 1402
M  V30 1553 1 1402 1403
M  V30 1554 1 1403 1404
M  V30 1555 2 1405 1406
M  V30 1556 1 1406 1407
M  V30 1557 1 1407 1408
M  V30 1558 2 1412 1407
M  V30 1559 2 1408 1409
M  V30 1560 1 1410 1409
M  V30 1561 1 1410 1415
M  V30 1562 2 1411 1410
M  V30 1563 1 1412 1411
M  V30 1564 1 1413 1411
M  V30 1565 2 1413 1414
M  V30 1566 1 1414 1415
M  V30 1567 1 1415 1416
M  V30 1568 1 1418 1417
M  V30 1569 2 1418 1419
M  V30 1570 1 1423 1418
M  V30 1571 1 1420 1419
M  V30 1572 1 1420 1425 CFG=1
M  V30 1573 1 1421 1420
M  V30 1574 1 1421 1424 CFG=1
M  V30 1575 1 1422 1421
M  V30 1576 1 1435 1421
M  V30 1577 1 1422 1423
M  V30 1578 1 1425 1426
M  V30 1579 2 1430 1425
M  V30 1580 2 1426 1427
M  V30 1581 1 1428 1427
M  V30 1582 1 1428 1433
M  V30 1583 2 1429 1428
M  V30 1584 1 1430 1429
M  V30 1585 1 1431 1429
M  V30 1586 2 1431 1432
M  V30 1587 1 1432 1433
M  V30 1588 1 1433 1434
M  V30 1589 2 1436 1435
M  V30 1590 1 1437 1436
M  V30 1591 1 1437 1442
M  V30 1592 2 1438 1437
M  V30 1593 1 1439 1438
M  V30 1594 2 1439 1440
M  V30 1595 1 1440 1441
M  V30 1596 1 1445 1440
M  V30 1597 1 1441 1443
M  V30 1598 2 1441 1442
M  V30 1599 2 1444 1443
M  V30 1600 1 1445 1444
M  V30 1601 1 1446 1445
M  V30 1602 1 1447 1448
M  V30 1603 1 1448 1453
M  V30 1604 2 1449 1448
M  V30 1605 1 1449 1450
M  V30 1606 1 1450 1455 CFG=1
M  V30 1607 1 1450 1451
M  V30 1608 1 1451 1452
M  V30 1609 1 1451 1454 CFG=1
M  V30 1610 1 1465 1451
M  V30 1611 1 1452 1453
M  V30 1612 2 1456 1455
M  V30 1613 1 1460 1455
M  V30 1614 1 1457 1456
M  V30 1615 2 1457 1458
M  V30 1616 1 1458 1459
M  V30 1617 1 1463 1458
M  V30 1618 2 1459 1460
M  V30 1619 1 1461 1459
M  V30 1620 2 1462 1461
M  V30 1621 1 1463 1462
M  V30 1622 1 1464 1463
M  V30 1623 2 1466 1465
M  V30 1624 1 1467 1466
M  V30 1625 1 1467 1472
M  V30 1626 2 1468 1467
M  V30 1627 1 1469 1468
M  V30 1628 2 1469 1470
M  V30 1629 1 1470 1471
M  V30 1630 1 1475 1470
M  V30 1631 1 1471 1473
M  V30 1632 2 1471 1472
M  V30 1633 2 1474 1473
M  V30 1634 1 1475 1474
M  V30 1635 1 1476 1475
M  V30 1636 1 1477 1478
M  V30 1637 2 1478 1479
M  V30 1638 1 1483 1478
M  V30 1639 1 1479 1480
M  V30 1640 1 1480 1485 CFG=6
M  V30 1641 1 1481 1480
M  V30 1642 1 1481 1484 CFG=6
M  V30 1643 1 1481 1495
M  V30 1644 1 1482 1481
M  V30 1645 1 1483 1482
M  V30 1646 1 1485 1490
M  V30 1647 2 1486 1485
M  V30 1648 1 1486 1487
M  V30 1649 2 1487 1488
M  V30 1650 1 1488 1489
M  V30 1651 1 1488 1493
M  V30 1652 1 1489 1491
M  V30 1653 2 1490 1489
M  V30 1654 2 1491 1492
M  V30 1655 1 1493 1492
M  V30 1656 1 1494 1493
M  V30 1657 2 1496 1495
M  V30 1658 1 1496 1497
M  V30 1659 1 1497 1498
M  V30 1660 2 1502 1497
M  V30 1661 2 1498 1499
M  V30 1662 1 1500 1499
M  V30 1663 1 1500 1505
M  V30 1664 2 1501 1500
M  V30 1665 1 1501 1503
M  V30 1666 1 1502 1501
M  V30 1667 2 1503 1504
M  V30 1668 1 1504 1505
M  V30 1669 1 1505 1506
M  V30 1670 1 1507 1508
M  V30 1671 2 1508 1509
M  V30 1672 1 1513 1508
M  V30 1673 1 1509 1510
M  V30 1674 1 1510 1515 CFG=6
M  V30 1675 1 1511 1510
M  V30 1676 1 1511 1514 CFG=6
M  V30 1677 1 1511 1512
M  V30 1678 1 1511 1525
M  V30 1679 1 1513 1512
M  V30 1680 1 1515 1520
M  V30 1681 2 1516 1515
M  V30 1682 1 1517 1516
M  V30 1683 2 1517 1518
M  V30 1684 1 1518 1519
M  V30 1685 1 1523 1518
M  V30 1686 2 1519 1520
M  V30 1687 1 1519 1521
M  V30 1688 2 1522 1521
M  V30 1689 1 1523 1522
M  V30 1690 1 1524 1523
M  V30 1691 2 1526 1525
M  V30 1692 1 1526 1527
M  V30 1693 1 1527 1528
M  V30 1694 2 1532 1527
M  V30 1695 2 1528 1529
M  V30 1696 1 1530 1529
M  V30 1697 1 1530 1535
M  V30 1698 2 1531 1530
M  V30 1699 1 1532 1531
M  V30 1700 1 1533 1531
M  V30 1701 2 1533 1534
M  V30 1702 1 1534 1535
M  V30 1703 1 1535 1536
M  V30 1704 1 1538 1537
M  V30 1705 2 1538 1539
M  V30 1706 1 1543 1538
M  V30 1707 1 1540 1539
M  V30 1708 1 1540 1545 CFG=6
M  V30 1709 1 1541 1540
M  V30 1710 1 1541 1544 CFG=6
M  V30 1711 1 1541 1542
M  V30 1712 1 1555 1541
M  V30 1713 1 1542 1543
M  V30 1714 1 1545 1550
M  V30 1715 2 1546 1545
M  V30 1716 1 1547 1546
M  V30 1717 2 1547 1548
M  V30 1718 1 1548 1549
M  V30 1719 1 1553 1548
M  V30 1720 2 1549 1550
M  V30 1721 1 1549 1551
M  V30 1722 2 1552 1551
M  V30 1723 1 1553 1552
M  V30 1724 1 1554 1553
M  V30 1725 2 1556 1555
M  V30 1726 1 1557 1556
M  V30 1727 1 1557 1562
M  V30 1728 2 1558 1557
M  V30 1729 1 1559 1558
M  V30 1730 2 1559 1560
M  V30 1731 1 1560 1561
M  V30 1732 1 1565 1560
M  V30 1733 1 1561 1563
M  V30 1734 2 1561 1562
M  V30 1735 2 1564 1563
M  V30 1736 1 1565 1564
M  V30 1737 1 1566 1565
M  V30 1738 1 1567 1568
M  V30 1739 1 1568 1573
M  V30 1740 2 1569 1568
M  V30 1741 1 1569 1570
M  V30 1742 1 1570 1575 CFG=1
M  V30 1743 1 1570 1571
M  V30 1744 1 1571 1585
M  V30 1745 1 1571 1574 CFG=1
M  V30 1746 1 1572 1571
M  V30 1747 1 1573 1572
M  V30 1748 1 1575 1580
M  V30 1749 2 1576 1575
M  V30 1750 1 1576 1577
M  V30 1751 2 1577 1578
M  V30 1752 1 1578 1579
M  V30 1753 1 1578 1583
M  V30 1754 1 1579 1581
M  V30 1755 2 1580 1579
M  V30 1756 2 1581 1582
M  V30 1757 1 1583 1582
M  V30 1758 1 1583 1584
M  V30 1759 2 1586 1585
M  V30 1760 1 1586 1587
M  V30 1761 1 1587 1592
M  V30 1762 2 1588 1587
M  V30 1763 1 1588 1589
M  V30 1764 2 1589 1590
M  V30 1765 1 1590 1591
M  V30 1766 1 1590 1595
M  V30 1767 1 1591 1593
M  V30 1768 2 1592 1591
M  V30 1769 2 1593 1594
M  V30 1770 1 1595 1594
M  V30 1771 1 1596 1595
M  V30 1772 1 1598 1597
M  V30 1773 1 1598 1603
M  V30 1774 2 1599 1598
M  V30 1775 1 1600 1599
M  V30 1776 1 1600 1605 CFG=6
M  V30 1777 1 1600 1601
M  V30 1778 1 1601 1604 CFG=6
M  V30 1779 1 1601 1602
M  V30 1780 1 1615 1601
M  V30 1781 1 1602 1603
M  V30 1782 2 1606 1605
M  V30 1783 1 1610 1605
M  V30 1784 1 1607 1606
M  V30 1785 2 1608 1607
M  V30 1786 1 1608 1609
M  V30 1787 1 1613 1608
M  V30 1788 2 1609 1610
M  V30 1789 1 1611 1609
M  V30 1790 2 1612 1611
M  V30 1791 1 1612 1613
M  V30 1792 1 1614 1613
M  V30 1793 2 1616 1615
M  V30 1794 1 1617 1616
M  V30 1795 1 1618 1617
M  V30 1796 2 1622 1617
M  V30 1797 2 1619 1618
M  V30 1798 1 1620 1619
M  V30 1799 2 1620 1621
M  V30 1800 1 1625 1620
M  V30 1801 1 1621 1622
M  V30 1802 1 1623 1621
M  V30 1803 2 1624 1623
M  V30 1804 1 1624 1625
M  V30 1805 1 1626 1625
M  V30 1806 1 1628 1627
M  V30 1807 2 1629 1628
M  V30 1808 1 1633 1628
M  V30 1809 1 1630 1629
M  V30 1810 1 1630 1635 CFG=6
M  V30 1811 1 1631 1630
M  V30 1812 1 1631 1634 CFG=6
M  V30 1813 1 1631 1632
M  V30 1814 1 1645 1631
M  V30 1815 1 1632 1633
M  V30 1816 1 1635 1636
M  V30 1817 2 1640 1635
M  V30 1818 2 1637 1636
M  V30 1819 1 1638 1637
M  V30 1820 2 1639 1638
M  V30 1821 1 1643 1638
M  V30 1822 1 1639 1640
M  V30 1823 1 1641 1639
M  V30 1824 2 1642 1641
M  V30 1825 1 1642 1643
M  V30 1826 1 1644 1643
M  V30 1827 2 1646 1645
M  V30 1828 1 1647 1646
M  V30 1829 1 1648 1647
M  V30 1830 2 1652 1647
M  V30 1831 2 1649 1648
M  V30 1832 1 1650 1649
M  V30 1833 2 1650 1651
M  V30 1834 1 1655 1650
M  V30 1835 1 1651 1652
M  V30 1836 1 1653 1651
M  V30 1837 2 1654 1653
M  V30 1838 1 1654 1655
M  V30 1839 1 1656 1655
M  V30 1840 1 1657 1658
M  V30 1841 1 1658 1663
M  V30 1842 2 1659 1658
M  V30 1843 1 1659 1660
M  V30 1844 1 1660 1665 CFG=1
M  V30 1845 1 1660 1661
M  V30 1846 1 1661 1675
M  V30 1847 1 1661 1664 CFG=1
M  V30 1848 1 1662 1661
M  V30 1849 1 1663 1662
M  V30 1850 1 1665 1666
M  V30 1851 2 1670 1665
M  V30 1852 2 1666 1667
M  V30 1853 1 1668 1667
M  V30 1854 1 1668 1673
M  V30 1855 2 1669 1668
M  V30 1856 1 1670 1669
M  V30 1857 1 1671 1669
M  V30 1858 2 1671 1672
M  V30 1859 1 1672 1673
M  V30 1860 1 1673 1674
M  V30 1861 2 1675 1676
M  V30 1862 1 1676 1677
M  V30 1863 1 1677 1678
M  V30 1864 2 1682 1677
M  V30 1865 2 1678 1679
M  V30 1866 1 1680 1679
M  V30 1867 1 1680 1685
M  V30 1868 2 1681 1680
M  V30 1869 1 1682 1681
M  V30 1870 1 1683 1681
M  V30 1871 2 1683 1684
M  V30 1872 1 1684 1685
M  V30 1873 1 1685 1686
M  V30 1874 1 1688 1687
M  V30 1875 2 1688 1689
M  V30 1876 1 1693 1688
M  V30 1877 1 1690 1689
M  V30 1878 1 1690 1695 CFG=1
M  V30 1879 1 1691 1690
M  V30 1880 1 1691 1694 CFG=1
M  V30 1881 1 1692 1691
M  V30 1882 1 1705 1691
M  V30 1883 1 1692 1693
M  V30 1884 1 1695 1696
M  V30 1885 2 1700 1695
M  V30 1886 2 1696 1697
M  V30 1887 1 1698 1697
M  V30 1888 1 1698 1703
M  V30 1889 2 1699 1698
M  V30 1890 1 1700 1699
M  V30 1891 1 1701 1699
M  V30 1892 2 1701 1702
M  V30 1893 1 1702 1703
M  V30 1894 1 1703 1704
M  V30 1895 2 1706 1705
M  V30 1896 1 1707 1706
M  V30 1897 1 1707 1712
M  V30 1898 2 1708 1707
M  V30 1899 1 1709 1708
M  V30 1900 2 1709 1710
M  V30 1901 1 1710 1711
M  V30 1902 1 1715 1710
M  V30 1903 1 1711 1713
M  V30 1904 2 1711 1712
M  V30 1905 2 1714 1713
M  V30 1906 1 1715 1714
M  V30 1907 1 1716 1715
M  V30 1908 1 1717 1718
M  V30 1909 1 1718 1723
M  V30 1910 2 1719 1718
M  V30 1911 1 1719 1720
M  V30 1912 1 1720 1725 CFG=1
M  V30 1913 1 1720 1721
M  V30 1914 1 1721 1722
M  V30 1915 1 1721 1724 CFG=1
M  V30 1916 1 1735 1721
M  V30 1917 1 1722 1723
M  V30 1918 2 1726 1725
M  V30 1919 1 1730 1725
M  V30 1920 1 1727 1726
M  V30 1921 2 1727 1728
M  V30 1922 1 1728 1729
M  V30 1923 1 1733 1728
M  V30 1924 2 1729 1730
M  V30 1925 1 1731 1729
M  V30 1926 2 1732 1731
M  V30 1927 1 1733 1732
M  V30 1928 1 1734 1733
M  V30 1929 2 1736 1735
M  V30 1930 1 1737 1736
M  V30 1931 1 1737 1742
M  V30 1932 2 1738 1737
M  V30 1933 1 1739 1738
M  V30 1934 2 1739 1740
M  V30 1935 1 1740 1741
M  V30 1936 1 1745 1740
M  V30 1937 1 1741 1743
M  V30 1938 2 1741 1742
M  V30 1939 2 1744 1743
M  V30 1940 1 1745 1744
M  V30 1941 1 1746 1745
M  V30 1942 1 1747 1748
M  V30 1943 2 1748 1749
M  V30 1944 1 1753 1748
M  V30 1945 1 1749 1750
M  V30 1946 1 1750 1755 CFG=6
M  V30 1947 1 1751 1750
M  V30 1948 1 1751 1754 CFG=6
M  V30 1949 1 1751 1765
M  V30 1950 1 1752 1751
M  V30 1951 1 1753 1752
M  V30 1952 1 1755 1760
M  V30 1953 2 1756 1755
M  V30 1954 1 1756 1757
M  V30 1955 2 1757 1758
M  V30 1956 1 1758 1759
M  V30 1957 1 1758 1763
M  V30 1958 1 1759 1761
M  V30 1959 2 1760 1759
M  V30 1960 2 1761 1762
M  V30 1961 1 1763 1762
M  V30 1962 1 1764 1763
M  V30 1963 2 1766 1765
M  V30 1964 1 1766 1767
M  V30 1965 1 1767 1768
M  V30 1966 2 1772 1767
M  V30 1967 2 1768 1769
M  V30 1968 1 1770 1769
M  V30 1969 1 1770 1775
M  V30 1970 2 1771 1770
M  V30 1971 1 1771 1773
M  V30 1972 1 1772 1771
M  V30 1973 2 1773 1774
M  V30 1974 1 1774 1775
M  V30 1975 1 1775 1776
M  V30 1976 1 1777 1778
M  V30 1977 2 1778 1779
M  V30 1978 1 1783 1778
M  V30 1979 1 1779 1780
M  V30 1980 1 1780 1785 CFG=6
M  V30 1981 1 1781 1780
M  V30 1982 1 1781 1784 CFG=6
M  V30 1983 1 1781 1782
M  V30 1984 1 1781 1795
M  V30 1985 1 1783 1782
M  V30 1986 1 1785 1790
M  V30 1987 2 1786 1785
M  V30 1988 1 1787 1786
M  V30 1989 2 1787 1788
M  V30 1990 1 1788 1789
M  V30 1991 1 1793 1788
M  V30 1992 2 1789 1790
M  V30 1993 1 1789 1791
M  V30 1994 2 1792 1791
M  V30 1995 1 1793 1792
M  V30 1996 1 1794 1793
M  V30 1997 2 1796 1795
M  V30 1998 1 1796 1797
M  V30 1999 1 1797 1798
M  V30 2000 2 1802 1797
M  V30 2001 2 1798 1799
M  V30 2002 1 1800 1799
M  V30 2003 1 1800 1805
M  V30 2004 2 1801 1800
M  V30 2005 1 1802 1801
M  V30 2006 1 1803 1801
M  V30 2007 2 1803 1804
M  V30 2008 1 1804 1805
M  V30 2009 1 1805 1806
M  V30 2010 1 1808 1807
M  V30 2011 2 1808 1809
M  V30 2012 1 1813 1808
M  V30 2013 1 1810 1809
M  V30 2014 1 1810 1815 CFG=6
M  V30 2015 1 1811 1810
M  V30 2016 1 1811 1814 CFG=6
M  V30 2017 1 1811 1812
M  V30 2018 1 1825 1811
M  V30 2019 1 1812 1813
M  V30 2020 1 1815 1820
M  V30 2021 2 1816 1815
M  V30 2022 1 1817 1816
M  V30 2023 2 1817 1818
M  V30 2024 1 1818 1819
M  V30 2025 1 1823 1818
M  V30 2026 2 1819 1820
M  V30 2027 1 1819 1821
M  V30 2028 2 1822 1821
M  V30 2029 1 1823 1822
M  V30 2030 1 1824 1823
M  V30 2031 2 1826 1825
M  V30 2032 1 1827 1826
M  V30 2033 1 1827 1832
M  V30 2034 2 1828 1827
M  V30 2035 1 1829 1828
M  V30 2036 2 1829 1830
M  V30 2037 1 1830 1831
M  V30 2038 1 1835 1830
M  V30 2039 1 1831 1833
M  V30 2040 2 1831 1832
M  V30 2041 2 1834 1833
M  V30 2042 1 1835 1834
M  V30 2043 1 1836 1835
M  V30 2044 1 1837 1838
M  V30 2045 1 1838 1843
M  V30 2046 2 1839 1838
M  V30 2047 1 1839 1840
M  V30 2048 1 1840 1845 CFG=1
M  V30 2049 1 1840 1841
M  V30 2050 1 1841 1855
M  V30 2051 1 1841 1844 CFG=1
M  V30 2052 1 1842 1841
M  V30 2053 1 1843 1842
M  V30 2054 1 1845 1850
M  V30 2055 2 1846 1845
M  V30 2056 1 1846 1847
M  V30 2057 2 1847 1848
M  V30 2058 1 1848 1849
M  V30 2059 1 1848 1853
M  V30 2060 1 1849 1851
M  V30 2061 2 1850 1849
M  V30 2062 2 1851 1852
M  V30 2063 1 1853 1852
M  V30 2064 1 1853 1854
M  V30 2065 2 1856 1855
M  V30 2066 1 1856 1857
M  V30 2067 1 1857 1862
M  V30 2068 2 1858 1857
M  V30 2069 1 1858 1859
M  V30 2070 2 1859 1860
M  V30 2071 1 1860 1861
M  V30 2072 1 1860 1865
M  V30 2073 1 1861 1863
M  V30 2074 2 1862 1861
M  V30 2075 2 1863 1864
M  V30 2076 1 1865 1864
M  V30 2077 1 1866 1865
M  V30 2078 1 1868 1867
M  V30 2079 1 1868 1873
M  V30 2080 2 1869 1868
M  V30 2081 1 1870 1869
M  V30 2082 1 1870 1875 CFG=6
M  V30 2083 1 1870 1871
M  V30 2084 1 1871 1874 CFG=6
M  V30 2085 1 1871 1872
M  V30 2086 1 1885 1871
M  V30 2087 1 1872 1873
M  V30 2088 2 1876 1875
M  V30 2089 1 1880 1875
M  V30 2090 1 1877 1876
M  V30 2091 2 1878 1877
M  V30 2092 1 1878 1879
M  V30 2093 1 1883 1878
M  V30 2094 2 1879 1880
M  V30 2095 1 1881 1879
M  V30 2096 2 1882 1881
M  V30 2097 1 1882 1883
M  V30 2098 1 1884 1883
M  V30 2099 2 1886 1885
M  V30 2100 1 1887 1886
M  V30 2101 1 1888 1887
M  V30 2102 2 1892 1887
M  V30 2103 2 1889 1888
M  V30 2104 1 1890 1889
M  V30 2105 2 1890 1891
M  V30 2106 1 1895 1890
M  V30 2107 1 1891 1892
M  V30 2108 1 1893 1891
M  V30 2109 2 1894 1893
M  V30 2110 1 1894 1895
M  V30 2111 1 1896 1895
M  V30 2112 1 1898 1897
M  V30 2113 2 1899 1898
M  V30 2114 1 1903 1898
M  V30 2115 1 1900 1899
M  V30 2116 1 1900 1905 CFG=6
M  V30 2117 1 1901 1900
M  V30 2118 1 1901 1904 CFG=6
M  V30 2119 1 1901 1902
M  V30 2120 1 1915 1901
M  V30 2121 1 1902 1903
M  V30 2122 1 1905 1906
M  V30 2123 2 1910 1905
M  V30 2124 2 1907 1906
M  V30 2125 1 1908 1907
M  V30 2126 2 1909 1908
M  V30 2127 1 1913 1908
M  V30 2128 1 1909 1910
M  V30 2129 1 1911 1909
M  V30 2130 2 1912 1911
M  V30 2131 1 1912 1913
M  V30 2132 1 1914 1913
M  V30 2133 2 1916 1915
M  V30 2134 1 1917 1916
M  V30 2135 1 1918 1917
M  V30 2136 2 1922 1917
M  V30 2137 2 1919 1918
M  V30 2138 1 1920 1919
M  V30 2139 2 1920 1921
M  V30 2140 1 1925 1920
M  V30 2141 1 1921 1922
M  V30 2142 1 1923 1921
M  V30 2143 2 1924 1923
M  V30 2144 1 1924 1925
M  V30 2145 1 1926 1925
M  V30 2146 1 1927 1928
M  V30 2147 1 1928 1933
M  V30 2148 2 1929 1928
M  V30 2149 1 1929 1930
M  V30 2150 1 1930 1935 CFG=1
M  V30 2151 1 1930 1931
M  V30 2152 1 1931 1945
M  V30 2153 1 1931 1934 CFG=1
M  V30 2154 1 1932 1931
M  V30 2155 1 1933 1932
M  V30 2156 1 1935 1936
M  V30 2157 2 1940 1935
M  V30 2158 2 1936 1937
M  V30 2159 1 1938 1937
M  V30 2160 1 1938 1943
M  V30 2161 2 1939 1938
M  V30 2162 1 1940 1939
M  V30 2163 1 1941 1939
M  V30 2164 2 1941 1942
M  V30 2165 1 1942 1943
M  V30 2166 1 1943 1944
M  V30 2167 2 1945 1946
M  V30 2168 1 1946 1947
M  V30 2169 1 1947 1948
M  V30 2170 2 1952 1947
M  V30 2171 2 1948 1949
M  V30 2172 1 1950 1949
M  V30 2173 1 1950 1955
M  V30 2174 2 1951 1950
M  V30 2175 1 1952 1951
M  V30 2176 1 1953 1951
M  V30 2177 2 1953 1954
M  V30 2178 1 1954 1955
M  V30 2179 1 1955 1956
M  V30 2180 1 1958 1957
M  V30 2181 2 1958 1959
M  V30 2182 1 1963 1958
M  V30 2183 1 1960 1959
M  V30 2184 1 1960 1965 CFG=1
M  V30 2185 1 1961 1960
M  V30 2186 1 1961 1964 CFG=1
M  V30 2187 1 1962 1961
M  V30 2188 1 1975 1961
M  V30 2189 1 1962 1963
M  V30 2190 1 1965 1966
M  V30 2191 2 1970 1965
M  V30 2192 2 1966 1967
M  V30 2193 1 1968 1967
M  V30 2194 1 1968 1973
M  V30 2195 2 1969 1968
M  V30 2196 1 1970 1969
M  V30 2197 1 1971 1969
M  V30 2198 2 1971 1972
M  V30 2199 1 1972 1973
M  V30 2200 1 1973 1974
M  V30 2201 2 1976 1975
M  V30 2202 1 1977 1976
M  V30 2203 1 1977 1982
M  V30 2204 2 1978 1977
M  V30 2205 1 1979 1978
M  V30 2206 2 1979 1980
M  V30 2207 1 1980 1981
M  V30 2208 1 1985 1980
M  V30 2209 1 1981 1983
M  V30 2210 2 1981 1982
M  V30 2211 2 1984 1983
M  V30 2212 1 1985 1984
M  V30 2213 1 1986 1985
M  V30 2214 1 1987 1988
M  V30 2215 1 1988 1993
M  V30 2216 2 1989 1988
M  V30 2217 1 1989 1990
M  V30 2218 1 1990 1995 CFG=1
M  V30 2219 1 1990 1991
M  V30 2220 1 1991 1992
M  V30 2221 1 1991 1994 CFG=1
M  V30 2222 1 2005 1991
M  V30 2223 1 1992 1993
M  V30 2224 2 1996 1995
M  V30 2225 1 2000 1995
M  V30 2226 1 1997 1996
M  V30 2227 2 1997 1998
M  V30 2228 1 1998 1999
M  V30 2229 1 2003 1998
M  V30 2230 2 1999 2000
M  V30 2231 1 2001 1999
M  V30 2232 2 2002 2001
M  V30 2233 1 2003 2002
M  V30 2234 1 2004 2003
M  V30 2235 2 2006 2005
M  V30 2236 1 2007 2006
M  V30 2237 1 2007 2012
M  V30 2238 2 2008 2007
M  V30 2239 1 2009 2008
M  V30 2240 2 2009 2010
M  V30 2241 1 2010 2011
M  V30 2242 1 2015 2010
M  V30 2243 1 2011 2013
M  V30 2244 2 2011 2012
M  V30 2245 2 2014 2013
M  V30 2246 1 2015 2014
M  V30 2247 1 2016 2015
M  V30 2248 1 2017 2018
M  V30 2249 2 2018 2019
M  V30 2250 1 2023 2018
M  V30 2251 1 2019 2020
M  V30 2252 1 2020 2025 CFG=6
M  V30 2253 1 2021 2020
M  V30 2254 1 2021 2024 CFG=6
M  V30 2255 1 2021 2035
M  V30 2256 1 2022 2021
M  V30 2257 1 2023 2022
M  V30 2258 1 2025 2030
M  V30 2259 2 2026 2025
M  V30 2260 1 2026 2027
M  V30 2261 2 2027 2028
M  V30 2262 1 2028 2029
M  V30 2263 1 2028 2033
M  V30 2264 1 2029 2031
M  V30 2265 2 2030 2029
M  V30 2266 2 2031 2032
M  V30 2267 1 2033 2032
M  V30 2268 1 2034 2033
M  V30 2269 2 2036 2035
M  V30 2270 1 2036 2037
M  V30 2271 1 2037 2038
M  V30 2272 2 2042 2037
M  V30 2273 2 2038 2039
M  V30 2274 1 2040 2039
M  V30 2275 1 2040 2045
M  V30 2276 2 2041 2040
M  V30 2277 1 2041 2043
M  V30 2278 1 2042 2041
M  V30 2279 2 2043 2044
M  V30 2280 1 2044 2045
M  V30 2281 1 2045 2046
M  V30 2282 1 2047 2048
M  V30 2283 2 2048 2049
M  V30 2284 1 2053 2048
M  V30 2285 1 2049 2050
M  V30 2286 1 2050 2055 CFG=6
M  V30 2287 1 2051 2050
M  V30 2288 1 2051 2054 CFG=6
M  V30 2289 1 2051 2052
M  V30 2290 1 2051 2065
M  V30 2291 1 2053 2052
M  V30 2292 1 2055 2060
M  V30 2293 2 2056 2055
M  V30 2294 1 2057 2056
M  V30 2295 2 2057 2058
M  V30 2296 1 2058 2059
M  V30 2297 1 2063 2058
M  V30 2298 2 2059 2060
M  V30 2299 1 2059 2061
M  V30 2300 2 2062 2061
M  V30 2301 1 2063 2062
M  V30 2302 1 2064 2063
M  V30 2303 2 2066 2065
M  V30 2304 1 2066 2067
M  V30 2305 1 2067 2068
M  V30 2306 2 2072 2067
M  V30 2307 2 2068 2069
M  V30 2308 1 2070 2069
M  V30 2309 1 2070 2075
M  V30 2310 2 2071 2070
M  V30 2311 1 2072 2071
M  V30 2312 1 2073 2071
M  V30 2313 2 2073 2074
M  V30 2314 1 2074 2075
M  V30 2315 1 2075 2076
M  V30 2316 1 2078 2077
M  V30 2317 2 2078 2079
M  V30 2318 1 2083 2078
M  V30 2319 1 2080 2079
M  V30 2320 1 2080 2085 CFG=6
M  V30 2321 1 2081 2080
M  V30 2322 1 2081 2084 CFG=6
M  V30 2323 1 2081 2082
M  V30 2324 1 2095 2081
M  V30 2325 1 2082 2083
M  V30 2326 1 2085 2090
M  V30 2327 2 2086 2085
M  V30 2328 1 2087 2086
M  V30 2329 2 2087 2088
M  V30 2330 1 2088 2089
M  V30 2331 1 2093 2088
M  V30 2332 2 2089 2090
M  V30 2333 1 2089 2091
M  V30 2334 2 2092 2091
M  V30 2335 1 2093 2092
M  V30 2336 1 2094 2093
M  V30 2337 2 2096 2095
M  V30 2338 1 2097 2096
M  V30 2339 1 2097 2102
M  V30 2340 2 2098 2097
M  V30 2341 1 2099 2098
M  V30 2342 2 2099 2100
M  V30 2343 1 2100 2101
M  V30 2344 1 2105 2100
M  V30 2345 1 2101 2103
M  V30 2346 2 2101 2102
M  V30 2347 2 2104 2103
M  V30 2348 1 2105 2104
M  V30 2349 1 2106 2105
M  V30 2350 1 2107 2108
M  V30 2351 1 2108 2113
M  V30 2352 2 2109 2108
M  V30 2353 1 2109 2110
M  V30 2354 1 2110 2115 CFG=1
M  V30 2355 1 2110 2111
M  V30 2356 1 2111 2125
M  V30 2357 1 2111 2114 CFG=1
M  V30 2358 1 2112 2111
M  V30 2359 1 2113 2112
M  V30 2360 1 2115 2120
M  V30 2361 2 2116 2115
M  V30 2362 1 2116 2117
M  V30 2363 2 2117 2118
M  V30 2364 1 2118 2119
M  V30 2365 1 2118 2123
M  V30 2366 1 2119 2121
M  V30 2367 2 2120 2119
M  V30 2368 2 2121 2122
M  V30 2369 1 2123 2122
M  V30 2370 1 2123 2124
M  V30 2371 2 2126 2125
M  V30 2372 1 2126 2127
M  V30 2373 1 2127 2132
M  V30 2374 2 2128 2127
M  V30 2375 1 2128 2129
M  V30 2376 2 2129 2130
M  V30 2377 1 2130 2131
M  V30 2378 1 2130 2135
M  V30 2379 1 2131 2133
M  V30 2380 2 2132 2131
M  V30 2381 2 2133 2134
M  V30 2382 1 2135 2134
M  V30 2383 1 2136 2135
M  V30 2384 1 2138 2137
M  V30 2385 1 2138 2143
M  V30 2386 2 2139 2138
M  V30 2387 1 2140 2139
M  V30 2388 1 2140 2145 CFG=6
M  V30 2389 1 2140 2141
M  V30 2390 1 2141 2144 CFG=6
M  V30 2391 1 2141 2142
M  V30 2392 1 2155 2141
M  V30 2393 1 2142 2143
M  V30 2394 2 2146 2145
M  V30 2395 1 2150 2145
M  V30 2396 1 2147 2146
M  V30 2397 2 2148 2147
M  V30 2398 1 2148 2149
M  V30 2399 1 2153 2148
M  V30 2400 2 2149 2150
M  V30 2401 1 2151 2149
M  V30 2402 2 2152 2151
M  V30 2403 1 2152 2153
M  V30 2404 1 2154 2153
M  V30 2405 2 2156 2155
M  V30 2406 1 2157 2156
M  V30 2407 1 2158 2157
M  V30 2408 2 2162 2157
M  V30 2409 2 2159 2158
M  V30 2410 1 2160 2159
M  V30 2411 2 2160 2161
M  V30 2412 1 2165 2160
M  V30 2413 1 2161 2162
M  V30 2414 1 2163 2161
M  V30 2415 2 2164 2163
M  V30 2416 1 2164 2165
M  V30 2417 1 2166 2165
M  V30 2418 1 2168 2167
M  V30 2419 2 2169 2168
M  V30 2420 1 2173 2168
M  V30 2421 1 2170 2169
M  V30 2422 1 2170 2175 CFG=6
M  V30 2423 1 2171 2170
M  V30 2424 1 2171 2174 CFG=6
M  V30 2425 1 2171 2172
M  V30 2426 1 2185 2171
M  V30 2427 1 2172 2173
M  V30 2428 1 2175 2176
M  V30 2429 2 2180 2175
M  V30 2430 2 2177 2176
M  V30 2431 1 2178 2177
M  V30 2432 2 2179 2178
M  V30 2433 1 2183 2178
M  V30 2434 1 2179 2180
M  V30 2435 1 2181 2179
M  V30 2436 2 2182 2181
M  V30 2437 1 2182 2183
M  V30 2438 1 2184 2183
M  V30 2439 2 2186 2185
M  V30 2440 1 2187 2186
M  V30 2441 1 2188 2187
M  V30 2442 2 2192 2187
M  V30 2443 2 2189 2188
M  V30 2444 1 2190 2189
M  V30 2445 2 2190 2191
M  V30 2446 1 2195 2190
M  V30 2447 1 2191 2192
M  V30 2448 1 2193 2191
M  V30 2449 2 2194 2193
M  V30 2450 1 2194 2195
M  V30 2451 1 2196 2195
M  V30 2452 1 2197 2198
M  V30 2453 1 2198 2203
M  V30 2454 2 2199 2198
M  V30 2455 1 2199 2200
M  V30 2456 1 2200 2205 CFG=1
M  V30 2457 1 2200 2201
M  V30 2458 1 2201 2215
M  V30 2459 1 2201 2204 CFG=1
M  V30 2460 1 2202 2201
M  V30 2461 1 2203 2202
M  V30 2462 1 2205 2206
M  V30 2463 2 2210 2205
M  V30 2464 2 2206 2207
M  V30 2465 1 2208 2207
M  V30 2466 1 2208 2213
M  V30 2467 2 2209 2208
M  V30 2468 1 2210 2209
M  V30 2469 1 2211 2209
M  V30 2470 2 2211 2212
M  V30 2471 1 2212 2213
M  V30 2472 1 2213 2214
M  V30 2473 2 2215 2216
M  V30 2474 1 2216 2217
M  V30 2475 1 2217 2218
M  V30 2476 2 2222 2217
M  V30 2477 2 2218 2219
M  V30 2478 1 2220 2219
M  V30 2479 1 2220 2225
M  V30 2480 2 2221 2220
M  V30 2481 1 2222 2221
M  V30 2482 1 2223 2221
M  V30 2483 2 2223 2224
M  V30 2484 1 2224 2225
M  V30 2485 1 2225 2226
M  V30 2486 1 2228 2227
M  V30 2487 2 2228 2229
M  V30 2488 1 2233 2228
M  V30 2489 1 2230 2229
M  V30 2490 1 2230 2235 CFG=1
M  V30 2491 1 2231 2230
M  V30 2492 1 2231 2234 CFG=1
M  V30 2493 1 2232 2231
M  V30 2494 1 2245 2231
M  V30 2495 1 2232 2233
M  V30 2496 1 2235 2236
M  V30 2497 2 2240 2235
M  V30 2498 2 2236 2237
M  V30 2499 1 2238 2237
M  V30 2500 1 2238 2243
M  V30 2501 2 2239 2238
M  V30 2502 1 2240 2239
M  V30 2503 1 2241 2239
M  V30 2504 2 2241 2242
M  V30 2505 1 2242 2243
M  V30 2506 1 2243 2244
M  V30 2507 2 2246 2245
M  V30 2508 1 2247 2246
M  V30 2509 1 2247 2252
M  V30 2510 2 2248 2247
M  V30 2511 1 2249 2248
M  V30 2512 2 2249 2250
M  V30 2513 1 2250 2251
M  V30 2514 1 2255 2250
M  V30 2515 1 2251 2253
M  V30 2516 2 2251 2252
M  V30 2517 2 2254 2253
M  V30 2518 1 2255 2254
M  V30 2519 1 2256 2255
M  V30 2520 1 2257 2258
M  V30 2521 1 2258 2263
M  V30 2522 2 2259 2258
M  V30 2523 1 2259 2260
M  V30 2524 1 2260 2265 CFG=1
M  V30 2525 1 2260 2261
M  V30 2526 1 2261 2262
M  V30 2527 1 2261 2264 CFG=1
M  V30 2528 1 2275 2261
M  V30 2529 1 2262 2263
M  V30 2530 2 2266 2265
M  V30 2531 1 2270 2265
M  V30 2532 1 2267 2266
M  V30 2533 2 2267 2268
M  V30 2534 1 2268 2269
M  V30 2535 1 2273 2268
M  V30 2536 2 2269 2270
M  V30 2537 1 2271 2269
M  V30 2538 2 2272 2271
M  V30 2539 1 2273 2272
M  V30 2540 1 2274 2273
M  V30 2541 2 2276 2275
M  V30 2542 1 2277 2276
M  V30 2543 1 2277 2282
M  V30 2544 2 2278 2277
M  V30 2545 1 2279 2278
M  V30 2546 2 2279 2280
M  V30 2547 1 2280 2281
M  V30 2548 1 2285 2280
M  V30 2549 1 2281 2283
M  V30 2550 2 2281 2282
M  V30 2551 2 2284 2283
M  V30 2552 1 2285 2284
M  V30 2553 1 2286 2285
M  V30 2554 1 2287 2288
M  V30 2555 2 2288 2289
M  V30 2556 1 2293 2288
M  V30 2557 1 2289 2290
M  V30 2558 1 2290 2295 CFG=6
M  V30 2559 1 2291 2290
M  V30 2560 1 2291 2294 CFG=6
M  V30 2561 1 2291 2305
M  V30 2562 1 2292 2291
M  V30 2563 1 2293 2292
M  V30 2564 1 2295 2300
M  V30 2565 2 2296 2295
M  V30 2566 1 2296 2297
M  V30 2567 2 2297 2298
M  V30 2568 1 2298 2299
M  V30 2569 1 2298 2303
M  V30 2570 1 2299 2301
M  V30 2571 2 2300 2299
M  V30 2572 2 2301 2302
M  V30 2573 1 2303 2302
M  V30 2574 1 2304 2303
M  V30 2575 2 2306 2305
M  V30 2576 1 2306 2307
M  V30 2577 1 2307 2308
M  V30 2578 2 2312 2307
M  V30 2579 2 2308 2309
M  V30 2580 1 2310 2309
M  V30 2581 1 2310 2315
M  V30 2582 2 2311 2310
M  V30 2583 1 2311 2313
M  V30 2584 1 2312 2311
M  V30 2585 2 2313 2314
M  V30 2586 1 2314 2315
M  V30 2587 1 2315 2316
M  V30 2588 1 2317 2318
M  V30 2589 2 2318 2319
M  V30 2590 1 2323 2318
M  V30 2591 1 2319 2320
M  V30 2592 1 2320 2325 CFG=6
M  V30 2593 1 2321 2320
M  V30 2594 1 2321 2324 CFG=6
M  V30 2595 1 2321 2322
M  V30 2596 1 2321 2335
M  V30 2597 1 2323 2322
M  V30 2598 1 2325 2330
M  V30 2599 2 2326 2325
M  V30 2600 1 2327 2326
M  V30 2601 2 2327 2328
M  V30 2602 1 2328 2329
M  V30 2603 1 2333 2328
M  V30 2604 2 2329 2330
M  V30 2605 1 2329 2331
M  V30 2606 2 2332 2331
M  V30 2607 1 2333 2332
M  V30 2608 1 2334 2333
M  V30 2609 2 2336 2335
M  V30 2610 1 2336 2337
M  V30 2611 1 2337 2338
M  V30 2612 2 2342 2337
M  V30 2613 2 2338 2339
M  V30 2614 1 2340 2339
M  V30 2615 1 2340 2345
M  V30 2616 2 2341 2340
M  V30 2617 1 2342 2341
M  V30 2618 1 2343 2341
M  V30 2619 2 2343 2344
M  V30 2620 1 2344 2345
M  V30 2621 1 2345 2346
M  V30 2622 1 2348 2347
M  V30 2623 2 2348 2349
M  V30 2624 1 2353 2348
M  V30 2625 1 2350 2349
M  V30 2626 1 2350 2355 CFG=6
M  V30 2627 1 2351 2350
M  V30 2628 1 2351 2354 CFG=6
M  V30 2629 1 2351 2352
M  V30 2630 1 2365 2351
M  V30 2631 1 2352 2353
M  V30 2632 1 2355 2360
M  V30 2633 2 2356 2355
M  V30 2634 1 2357 2356
M  V30 2635 2 2357 2358
M  V30 2636 1 2358 2359
M  V30 2637 1 2363 2358
M  V30 2638 2 2359 2360
M  V30 2639 1 2359 2361
M  V30 2640 2 2362 2361
M  V30 2641 1 2363 2362
M  V30 2642 1 2364 2363
M  V30 2643 2 2366 2365
M  V30 2644 1 2367 2366
M  V30 2645 1 2367 2372
M  V30 2646 2 2368 2367
M  V30 2647 1 2369 2368
M  V30 2648 2 2369 2370
M  V30 2649 1 2370 2371
M  V30 2650 1 2375 2370
M  V30 2651 1 2371 2373
M  V30 2652 2 2371 2372
M  V30 2653 2 2374 2373
M  V30 2654 1 2375 2374
M  V30 2655 1 2376 2375
M  V30 2656 1 2377 2378
M  V30 2657 1 2378 2383
M  V30 2658 2 2379 2378
M  V30 2659 1 2379 2380
M  V30 2660 1 2380 2385 CFG=1
M  V30 2661 1 2380 2381
M  V30 2662 1 2381 2395
M  V30 2663 1 2381 2384 CFG=1
M  V30 2664 1 2382 2381
M  V30 2665 1 2383 2382
M  V30 2666 1 2385 2390
M  V30 2667 2 2386 2385
M  V30 2668 1 2386 2387
M  V30 2669 2 2387 2388
M  V30 2670 1 2388 2389
M  V30 2671 1 2388 2393
M  V30 2672 1 2389 2391
M  V30 2673 2 2390 2389
M  V30 2674 2 2391 2392
M  V30 2675 1 2393 2392
M  V30 2676 1 2393 2394
M  V30 2677 2 2396 2395
M  V30 2678 1 2396 2397
M  V30 2679 1 2397 2402
M  V30 2680 2 2398 2397
M  V30 2681 1 2398 2399
M  V30 2682 2 2399 2400
M  V30 2683 1 2400 2401
M  V30 2684 1 2400 2405
M  V30 2685 1 2401 2403
M  V30 2686 2 2402 2401
M  V30 2687 2 2403 2404
M  V30 2688 1 2405 2404
M  V30 2689 1 2406 2405
M  V30 2690 1 2408 2407
M  V30 2691 1 2408 2413
M  V30 2692 2 2409 2408
M  V30 2693 1 2410 2409
M  V30 2694 1 2410 2415 CFG=6
M  V30 2695 1 2410 2411
M  V30 2696 1 2411 2414 CFG=6
M  V30 2697 1 2411 2412
M  V30 2698 1 2425 2411
M  V30 2699 1 2412 2413
M  V30 2700 2 2416 2415
M  V30 2701 1 2420 2415
M  V30 2702 1 2417 2416
M  V30 2703 2 2418 2417
M  V30 2704 1 2418 2419
M  V30 2705 1 2423 2418
M  V30 2706 2 2419 2420
M  V30 2707 1 2421 2419
M  V30 2708 2 2422 2421
M  V30 2709 1 2422 2423
M  V30 2710 1 2424 2423
M  V30 2711 2 2426 2425
M  V30 2712 1 2427 2426
M  V30 2713 1 2428 2427
M  V30 2714 2 2432 2427
M  V30 2715 2 2429 2428
M  V30 2716 1 2430 2429
M  V30 2717 2 2430 2431
M  V30 2718 1 2435 2430
M  V30 2719 1 2431 2432
M  V30 2720 1 2433 2431
M  V30 2721 2 2434 2433
M  V30 2722 1 2434 2435
M  V30 2723 1 2436 2435
M  V30 2724 1 2438 2437
M  V30 2725 2 2439 2438
M  V30 2726 1 2443 2438
M  V30 2727 1 2440 2439
M  V30 2728 1 2440 2445 CFG=6
M  V30 2729 1 2441 2440
M  V30 2730 1 2441 2444 CFG=6
M  V30 2731 1 2441 2442
M  V30 2732 1 2455 2441
M  V30 2733 1 2442 2443
M  V30 2734 1 2445 2446
M  V30 2735 2 2450 2445
M  V30 2736 2 2447 2446
M  V30 2737 1 2448 2447
M  V30 2738 2 2449 2448
M  V30 2739 1 2453 2448
M  V30 2740 1 2449 2450
M  V30 2741 1 2451 2449
M  V30 2742 2 2452 2451
M  V30 2743 1 2452 2453
M  V30 2744 1 2454 2453
M  V30 2745 2 2456 2455
M  V30 2746 1 2457 2456
M  V30 2747 1 2458 2457
M  V30 2748 2 2462 2457
M  V30 2749 2 2459 2458
M  V30 2750 1 2460 2459
M  V30 2751 2 2460 2461
M  V30 2752 1 2465 2460
M  V30 2753 1 2461 2462
M  V30 2754 1 2463 2461
M  V30 2755 2 2464 2463
M  V30 2756 1 2464 2465
M  V30 2757 1 2466 2465
M  V30 2758 1 2467 2468
M  V30 2759 1 2468 2473
M  V30 2760 2 2469 2468
M  V30 2761 1 2469 2470
M  V30 2762 1 2470 2475 CFG=1
M  V30 2763 1 2470 2471
M  V30 2764 1 2471 2485
M  V30 2765 1 2471 2474 CFG=1
M  V30 2766 1 2472 2471
M  V30 2767 1 2473 2472
M  V30 2768 1 2475 2476
M  V30 2769 2 2480 2475
M  V30 2770 2 2476 2477
M  V30 2771 1 2478 2477
M  V30 2772 1 2478 2483
M  V30 2773 2 2479 2478
M  V30 2774 1 2480 2479
M  V30 2775 1 2481 2479
M  V30 2776 2 2481 2482
M  V30 2777 1 2482 2483
M  V30 2778 1 2483 2484
M  V30 2779 2 2485 2486
M  V30 2780 1 2486 2487
M  V30 2781 1 2487 2488
M  V30 2782 2 2492 2487
M  V30 2783 2 2488 2489
M  V30 2784 1 2490 2489
M  V30 2785 1 2490 2495
M  V30 2786 2 2491 2490
M  V30 2787 1 2492 2491
M  V30 2788 1 2493 2491
M  V30 2789 2 2493 2494
M  V30 2790 1 2494 2495
M  V30 2791 1 2495 2496
M  V30 2792 1 2498 2497
M  V30 2793 2 2498 2499
M  V30 2794 1 2503 2498
M  V30 2795 1 2500 2499
M  V30 2796 1 2500 2505 CFG=1
M  V30 2797 1 2501 2500
M  V30 2798 1 2501 2504 CFG=1
M  V30 2799 1 2502 2501
M  V30 2800 1 2515 2501
M  V30 2801 1 2502 2503
M  V30 2802 1 2505 2506
M  V30 2803 2 2510 2505
M  V30 2804 2 2506 2507
M  V30 2805 1 2508 2507
M  V30 2806 1 2508 2513
M  V30 2807 2 2509 2508
M  V30 2808 1 2510 2509
M  V30 2809 1 2511 2509
M  V30 2810 2 2511 2512
M  V30 2811 1 2512 2513
M  V30 2812 1 2513 2514
M  V30 2813 2 2516 2515
M  V30 2814 1 2517 2516
M  V30 2815 1 2517 2522
M  V30 2816 2 2518 2517
M  V30 2817 1 2519 2518
M  V30 2818 2 2519 2520
M  V30 2819 1 2520 2521
M  V30 2820 1 2525 2520
M  V30 2821 1 2521 2523
M  V30 2822 2 2521 2522
M  V30 2823 2 2524 2523
M  V30 2824 1 2525 2524
M  V30 2825 1 2526 2525
M  V30 2826 1 2527 2528
M  V30 2827 1 2528 2533
M  V30 2828 2 2529 2528
M  V30 2829 1 2529 2530
M  V30 2830 1 2530 2535 CFG=1
M  V30 2831 1 2530 2531
M  V30 2832 1 2531 2532
M  V30 2833 1 2531 2534 CFG=1
M  V30 2834 1 2545 2531
M  V30 2835 1 2532 2533
M  V30 2836 2 2536 2535
M  V30 2837 1 2540 2535
M  V30 2838 1 2537 2536
M  V30 2839 2 2537 2538
M  V30 2840 1 2538 2539
M  V30 2841 1 2543 2538
M  V30 2842 2 2539 2540
M  V30 2843 1 2541 2539
M  V30 2844 2 2542 2541
M  V30 2845 1 2543 2542
M  V30 2846 1 2544 2543
M  V30 2847 2 2546 2545
M  V30 2848 1 2547 2546
M  V30 2849 1 2547 2552
M  V30 2850 2 2548 2547
M  V30 2851 1 2549 2548
M  V30 2852 2 2549 2550
M  V30 2853 1 2550 2551
M  V30 2854 1 2555 2550
M  V30 2855 1 2551 2553
M  V30 2856 2 2551 2552
M  V30 2857 2 2554 2553
M  V30 2858 1 2555 2554
M  V30 2859 1 2556 2555
M  V30 2860 1 2557 2558
M  V30 2861 2 2558 2559
M  V30 2862 1 2563 2558
M  V30 2863 1 2559 2560
M  V30 2864 1 2560 2565 CFG=6
M  V30 2865 1 2561 2560
M  V30 2866 1 2561 2564 CFG=6
M  V30 2867 1 2561 2575
M  V30 2868 1 2562 2561
M  V30 2869 1 2563 2562
M  V30 2870 1 2565 2570
M  V30 2871 2 2566 2565
M  V30 2872 1 2566 2567
M  V30 2873 2 2567 2568
M  V30 2874 1 2568 2569
M  V30 2875 1 2568 2573
M  V30 2876 1 2569 2571
M  V30 2877 2 2570 2569
M  V30 2878 2 2571 2572
M  V30 2879 1 2573 2572
M  V30 2880 1 2574 2573
M  V30 2881 2 2576 2575
M  V30 2882 1 2576 2577
M  V30 2883 1 2577 2578
M  V30 2884 2 2582 2577
M  V30 2885 2 2578 2579
M  V30 2886 1 2580 2579
M  V30 2887 1 2580 2585
M  V30 2888 2 2581 2580
M  V30 2889 1 2581 2583
M  V30 2890 1 2582 2581
M  V30 2891 2 2583 2584
M  V30 2892 1 2584 2585
M  V30 2893 1 2585 2586
M  V30 2894 1 2587 2588
M  V30 2895 2 2588 2589
M  V30 2896 1 2593 2588
M  V30 2897 1 2589 2590
M  V30 2898 1 2590 2595 CFG=6
M  V30 2899 1 2591 2590
M  V30 2900 1 2591 2594 CFG=6
M  V30 2901 1 2591 2592
M  V30 2902 1 2591 2605
M  V30 2903 1 2593 2592
M  V30 2904 1 2595 2600
M  V30 2905 2 2596 2595
M  V30 2906 1 2597 2596
M  V30 2907 2 2597 2598
M  V30 2908 1 2598 2599
M  V30 2909 1 2603 2598
M  V30 2910 2 2599 2600
M  V30 2911 1 2599 2601
M  V30 2912 2 2602 2601
M  V30 2913 1 2603 2602
M  V30 2914 1 2604 2603
M  V30 2915 2 2606 2605
M  V30 2916 1 2606 2607
M  V30 2917 1 2607 2608
M  V30 2918 2 2612 2607
M  V30 2919 2 2608 2609
M  V30 2920 1 2610 2609
M  V30 2921 1 2610 2615
M  V30 2922 2 2611 2610
M  V30 2923 1 2612 2611
M  V30 2924 1 2613 2611
M  V30 2925 2 2613 2614
M  V30 2926 1 2614 2615
M  V30 2927 1 2615 2616
M  V30 2928 1 2618 2617
M  V30 2929 2 2618 2619
M  V30 2930 1 2623 2618
M  V30 2931 1 2620 2619
M  V30 2932 1 2620 2625 CFG=6
M  V30 2933 1 2621 2620
M  V30 2934 1 2621 2624 CFG=6
M  V30 2935 1 2621 2622
M  V30 2936 1 2635 2621
M  V30 2937 1 2622 2623
M  V30 2938 1 2625 2630
M  V30 2939 2 2626 2625
M  V30 2940 1 2627 2626
M  V30 2941 2 2627 2628
M  V30 2942 1 2628 2629
M  V30 2943 1 2633 2628
M  V30 2944 2 2629 2630
M  V30 2945 1 2629 2631
M  V30 2946 2 2632 2631
M  V30 2947 1 2633 2632
M  V30 2948 1 2634 2633
M  V30 2949 2 2636 2635
M  V30 2950 1 2637 2636
M  V30 2951 1 2637 2642
M  V30 2952 2 2638 2637
M  V30 2953 1 2639 2638
M  V30 2954 2 2639 2640
M  V30 2955 1 2640 2641
M  V30 2956 1 2645 2640
M  V30 2957 1 2641 2643
M  V30 2958 2 2641 2642
M  V30 2959 2 2644 2643
M  V30 2960 1 2645 2644
M  V30 2961 1 2646 2645
M  V30 2962 1 2647 2648
M  V30 2963 1 2648 2653
M  V30 2964 2 2649 2648
M  V30 2965 1 2649 2650
M  V30 2966 1 2650 2655 CFG=1
M  V30 2967 1 2650 2651
M  V30 2968 1 2651 2665
M  V30 2969 1 2651 2654 CFG=1
M  V30 2970 1 2652 2651
M  V30 2971 1 2653 2652
M  V30 2972 1 2655 2660
M  V30 2973 2 2656 2655
M  V30 2974 1 2656 2657
M  V30 2975 2 2657 2658
M  V30 2976 1 2658 2659
M  V30 2977 1 2658 2663
M  V30 2978 1 2659 2661
M  V30 2979 2 2660 2659
M  V30 2980 2 2661 2662
M  V30 2981 1 2663 2662
M  V30 2982 1 2663 2664
M  V30 2983 2 2666 2665
M  V30 2984 1 2666 2667
M  V30 2985 1 2667 2672
M  V30 2986 2 2668 2667
M  V30 2987 1 2668 2669
M  V30 2988 2 2669 2670
M  V30 2989 1 2670 2671
M  V30 2990 1 2670 2675
M  V30 2991 1 2671 2673
M  V30 2992 2 2672 2671
M  V30 2993 2 2673 2674
M  V30 2994 1 2675 2674
M  V30 2995 1 2676 2675
M  V30 2996 1 2678 2677
M  V30 2997 1 2678 2683
M  V30 2998 2 2679 2678
M  V30 2999 1 2680 2679
M  V30 3000 1 2680 2685 CFG=6
M  V30 3001 1 2680 2681
M  V30 3002 1 2681 2684 CFG=6
M  V30 3003 1 2681 2682
M  V30 3004 1 2695 2681
M  V30 3005 1 2682 2683
M  V30 3006 2 2686 2685
M  V30 3007 1 2690 2685
M  V30 3008 1 2687 2686
M  V30 3009 2 2688 2687
M  V30 3010 1 2688 2689
M  V30 3011 1 2693 2688
M  V30 3012 2 2689 2690
M  V30 3013 1 2691 2689
M  V30 3014 2 2692 2691
M  V30 3015 1 2692 2693
M  V30 3016 1 2694 2693
M  V30 3017 2 2696 2695
M  V30 3018 1 2697 2696
M  V30 3019 1 2698 2697
M  V30 3020 2 2702 2697
M  V30 3021 2 2699 2698
M  V30 3022 1 2700 2699
M  V30 3023 2 2700 2701
M  V30 3024 1 2705 2700
M  V30 3025 1 2701 2702
M  V30 3026 1 2703 2701
M  V30 3027 2 2704 2703
M  V30 3028 1 2704 2705
M  V30 3029 1 2706 2705
M  V30 3030 1 2708 2707
M  V30 3031 2 2709 2708
M  V30 3032 1 2713 2708
M  V30 3033 1 2710 2709
M  V30 3034 1 2710 2715 CFG=6
M  V30 3035 1 2711 2710
M  V30 3036 1 2711 2714 CFG=6
M  V30 3037 1 2711 2712
M  V30 3038 1 2725 2711
M  V30 3039 1 2712 2713
M  V30 3040 1 2715 2716
M  V30 3041 2 2720 2715
M  V30 3042 2 2717 2716
M  V30 3043 1 2718 2717
M  V30 3044 2 2719 2718
M  V30 3045 1 2723 2718
M  V30 3046 1 2719 2720
M  V30 3047 1 2721 2719
M  V30 3048 2 2722 2721
M  V30 3049 1 2722 2723
M  V30 3050 1 2724 2723
M  V30 3051 2 2726 2725
M  V30 3052 1 2727 2726
M  V30 3053 1 2728 2727
M  V30 3054 2 2732 2727
M  V30 3055 2 2729 2728
M  V30 3056 1 2730 2729
M  V30 3057 2 2730 2731
M  V30 3058 1 2735 2730
M  V30 3059 1 2731 2732
M  V30 3060 1 2733 2731
M  V30 3061 2 2734 2733
M  V30 3062 1 2734 2735
M  V30 3063 1 2736 2735
M  V30 3064 1 2737 2738
M  V30 3065 1 2738 2743
M  V30 3066 2 2739 2738
M  V30 3067 1 2739 2740
M  V30 3068 1 2740 2745 CFG=1
M  V30 3069 1 2740 2741
M  V30 3070 1 2741 2755
M  V30 3071 1 2741 2744 CFG=1
M  V30 3072 1 2742 2741
M  V30 3073 1 2743 2742
M  V30 3074 1 2745 2746
M  V30 3075 2 2750 2745
M  V30 3076 2 2746 2747
M  V30 3077 1 2748 2747
M  V30 3078 1 2748 2753
M  V30 3079 2 2749 2748
M  V30 3080 1 2750 2749
M  V30 3081 1 2751 2749
M  V30 3082 2 2751 2752
M  V30 3083 1 2752 2753
M  V30 3084 1 2753 2754
M  V30 3085 2 2755 2756
M  V30 3086 1 2756 2757
M  V30 3087 1 2757 2758
M  V30 3088 2 2762 2757
M  V30 3089 2 2758 2759
M  V30 3090 1 2760 2759
M  V30 3091 1 2760 2765
M  V30 3092 2 2761 2760
M  V30 3093 1 2762 2761
M  V30 3094 1 2763 2761
M  V30 3095 2 2763 2764
M  V30 3096 1 2764 2765
M  V30 3097 1 2765 2766
M  V30 3098 1 2768 2767
M  V30 3099 2 2768 2769
M  V30 3100 1 2773 2768
M  V30 3101 1 2770 2769
M  V30 3102 1 2770 2775 CFG=1
M  V30 3103 1 2771 2770
M  V30 3104 1 2771 2774 CFG=1
M  V30 3105 1 2772 2771
M  V30 3106 1 2785 2771
M  V30 3107 1 2772 2773
M  V30 3108 1 2775 2776
M  V30 3109 2 2780 2775
M  V30 3110 2 2776 2777
M  V30 3111 1 2778 2777
M  V30 3112 1 2778 2783
M  V30 3113 2 2779 2778
M  V30 3114 1 2780 2779
M  V30 3115 1 2781 2779
M  V30 3116 2 2781 2782
M  V30 3117 1 2782 2783
M  V30 3118 1 2783 2784
M  V30 3119 2 2786 2785
M  V30 3120 1 2787 2786
M  V30 3121 1 2787 2792
M  V30 3122 2 2788 2787
M  V30 3123 1 2789 2788
M  V30 3124 2 2789 2790
M  V30 3125 1 2790 2791
M  V30 3126 1 2795 2790
M  V30 3127 1 2791 2793
M  V30 3128 2 2791 2792
M  V30 3129 2 2794 2793
M  V30 3130 1 2795 2794
M  V30 3131 1 2796 2795
M  V30 3132 1 2797 2798
M  V30 3133 1 2798 2803
M  V30 3134 2 2799 2798
M  V30 3135 1 2799 2800
M  V30 3136 1 2800 2805 CFG=1
M  V30 3137 1 2800 2801
M  V30 3138 1 2801 2802
M  V30 3139 1 2801 2804 CFG=1
M  V30 3140 1 2815 2801
M  V30 3141 1 2802 2803
M  V30 3142 2 2806 2805
M  V30 3143 1 2810 2805
M  V30 3144 1 2807 2806
M  V30 3145 2 2807 2808
M  V30 3146 1 2808 2809
M  V30 3147 1 2813 2808
M  V30 3148 2 2809 2810
M  V30 3149 1 2811 2809
M  V30 3150 2 2812 2811
M  V30 3151 1 2813 2812
M  V30 3152 1 2814 2813
M  V30 3153 2 2816 2815
M  V30 3154 1 2817 2816
M  V30 3155 1 2817 2822
M  V30 3156 2 2818 2817
M  V30 3157 1 2819 2818
M  V30 3158 2 2819 2820
M  V30 3159 1 2820 2821
M  V30 3160 1 2825 2820
M  V30 3161 1 2821 2823
M  V30 3162 2 2821 2822
M  V30 3163 2 2824 2823
M  V30 3164 1 2825 2824
M  V30 3165 1 2826 2825
M  V30 3166 1 2827 2828
M  V30 3167 2 2828 2829
M  V30 3168 1 2833 2828
M  V30 3169 1 2829 2830
M  V30 3170 1 2830 2835 CFG=6
M  V30 3171 1 2831 2830
M  V30 3172 1 2831 2834 CFG=6
M  V30 3173 1 2831 2845
M  V30 3174 1 2832 2831
M  V30 3175 1 2833 2832
M  V30 3176 1 2835 2840
M  V30 3177 2 2836 2835
M  V30 3178 1 2836 2837
M  V30 3179 2 2837 2838
M  V30 3180 1 2838 2839
M  V30 3181 1 2838 2843
M  V30 3182 1 2839 2841
M  V30 3183 2 2840 2839
M  V30 3184 2 2841 2842
M  V30 3185 1 2843 2842
M  V30 3186 1 2844 2843
M  V30 3187 2 2846 2845
M  V30 3188 1 2846 2847
M  V30 3189 1 2847 2848
M  V30 3190 2 2852 2847
M  V30 3191 2 2848 2849
M  V30 3192 1 2850 2849
M  V30 3193 1 2850 2855
M  V30 3194 2 2851 2850
M  V30 3195 1 2851 2853
M  V30 3196 1 2852 2851
M  V30 3197 2 2853 2854
M  V30 3198 1 2854 2855
M  V30 3199 1 2855 2856
M  V30 3200 1 2857 2858
M  V30 3201 2 2858 2859
M  V30 3202 1 2863 2858
M  V30 3203 1 2859 2860
M  V30 3204 1 2860 2865 CFG=6
M  V30 3205 1 2861 2860
M  V30 3206 1 2861 2864 CFG=6
M  V30 3207 1 2861 2862
M  V30 3208 1 2861 2875
M  V30 3209 1 2863 2862
M  V30 3210 1 2865 2870
M  V30 3211 2 2866 2865
M  V30 3212 1 2867 2866
M  V30 3213 2 2867 2868
M  V30 3214 1 2868 2869
M  V30 3215 1 2873 2868
M  V30 3216 2 2869 2870
M  V30 3217 1 2869 2871
M  V30 3218 2 2872 2871
M  V30 3219 1 2873 2872
M  V30 3220 1 2874 2873
M  V30 3221 2 2876 2875
M  V30 3222 1 2876 2877
M  V30 3223 1 2877 2878
M  V30 3224 2 2882 2877
M  V30 3225 2 2878 2879
M  V30 3226 1 2880 2879
M  V30 3227 1 2880 2885
M  V30 3228 2 2881 2880
M  V30 3229 1 2882 2881
M  V30 3230 1 2883 2881
M  V30 3231 2 2883 2884
M  V30 3232 1 2884 2885
M  V30 3233 1 2885 2886
M  V30 3234 1 2888 2887
M  V30 3235 2 2888 2889
M  V30 3236 1 2893 2888
M  V30 3237 1 2890 2889
M  V30 3238 1 2890 2895 CFG=6
M  V30 3239 1 2891 2890
M  V30 3240 1 2891 2894 CFG=6
M  V30 3241 1 2891 2892
M  V30 3242 1 2905 2891
M  V30 3243 1 2892 2893
M  V30 3244 1 2895 2900
M  V30 3245 2 2896 2895
M  V30 3246 1 2897 2896
M  V30 3247 2 2897 2898
M  V30 3248 1 2898 2899
M  V30 3249 1 2903 2898
M  V30 3250 2 2899 2900
M  V30 3251 1 2899 2901
M  V30 3252 2 2902 2901
M  V30 3253 1 2903 2902
M  V30 3254 1 2904 2903
M  V30 3255 2 2906 2905
M  V30 3256 1 2907 2906
M  V30 3257 1 2907 2912
M  V30 3258 2 2908 2907
M  V30 3259 1 2909 2908
M  V30 3260 2 2909 2910
M  V30 3261 1 2910 2911
M  V30 3262 1 2915 2910
M  V30 3263 1 2911 2913
M  V30 3264 2 2911 2912
M  V30 3265 2 2914 2913
M  V30 3266 1 2915 2914
M  V30 3267 1 2916 2915
M  V30 3268 1 2917 2918
M  V30 3269 1 2918 2923
M  V30 3270 2 2919 2918
M  V30 3271 1 2919 2920
M  V30 3272 1 2920 2925 CFG=1
M  V30 3273 1 2920 2921
M  V30 3274 1 2921 2935
M  V30 3275 1 2921 2924 CFG=1
M  V30 3276 1 2922 2921
M  V30 3277 1 2923 2922
M  V30 3278 1 2925 2930
M  V30 3279 2 2926 2925
M  V30 3280 1 2926 2927
M  V30 3281 2 2927 2928
M  V30 3282 1 2928 2929
M  V30 3283 1 2928 2933
M  V30 3284 1 2929 2931
M  V30 3285 2 2930 2929
M  V30 3286 2 2931 2932
M  V30 3287 1 2933 2932
M  V30 3288 1 2933 2934
M  V30 3289 2 2936 2935
M  V30 3290 1 2936 2937
M  V30 3291 1 2937 2942
M  V30 3292 2 2938 2937
M  V30 3293 1 2938 2939
M  V30 3294 2 2939 2940
M  V30 3295 1 2940 2941
M  V30 3296 1 2940 2945
M  V30 3297 1 2941 2943
M  V30 3298 2 2942 2941
M  V30 3299 2 2943 2944
M  V30 3300 1 2945 2944
M  V30 3301 1 2946 2945
M  V30 3302 1 2948 2947
M  V30 3303 1 2948 2953
M  V30 3304 2 2949 2948
M  V30 3305 1 2950 2949
M  V30 3306 1 2950 2955 CFG=6
M  V30 3307 1 2950 2951
M  V30 3308 1 2951 2954 CFG=6
M  V30 3309 1 2951 2952
M  V30 3310 1 2965 2951
M  V30 3311 1 2952 2953
M  V30 3312 2 2956 2955
M  V30 3313 1 2960 2955
M  V30 3314 1 2957 2956
M  V30 3315 2 2958 2957
M  V30 3316 1 2958 2959
M  V30 3317 1 2963 2958
M  V30 3318 2 2959 2960
M  V30 3319 1 2961 2959
M  V30 3320 2 2962 2961
M  V30 3321 1 2962 2963
M  V30 3322 1 2964 2963
M  V30 3323 2 2966 2965
M  V30 3324 1 2967 2966
M  V30 3325 1 2968 2967
M  V30 3326 2 2972 2967
M  V30 3327 2 2969 2968
M  V30 3328 1 2970 2969
M  V30 3329 2 2970 2971
M  V30 3330 1 2975 2970
M  V30 3331 1 2971 2972
M  V30 3332 1 2973 2971
M  V30 3333 2 2974 2973
M  V30 3334 1 2974 2975
M  V30 3335 1 2976 2975
M  V30 3336 1 2978 2977
M  V30 3337 2 2979 2978
M  V30 3338 1 2983 2978
M  V30 3339 1 2980 2979
M  V30 3340 1 2980 2985 CFG=6
M  V30 3341 1 2981 2980
M  V30 3342 1 2981 2984 CFG=6
M  V30 3343 1 2981 2982
M  V30 3344 1 2995 2981
M  V30 3345 1 2982 2983
M  V30 3346 1 2985 2986
M  V30 3347 2 2990 2985
M  V30 3348 2 2987 2986
M  V30 3349 1 2988 2987
M  V30 3350 2 2989 2988
M  V30 3351 1 2993 2988
M  V30 3352 1 2989 2990
M  V30 3353 1 2991 2989
M  V30 3354 2 2992 2991
M  V30 3355 1 2992 2993
M  V30 3356 1 2994 2993
M  V30 3357 2 2996 2995
M  V30 3358 1 2997 2996
M  V30 3359 1 2998 2997
M  V30 3360 2 3002 2997
M  V30 3361 2 2999 2998
M  V30 3362 1 3000 2999
M  V30 3363 2 3000 3001
M  V30 3364 1 3005 3000
M  V30 3365 1 3001 3002
M  V30 3366 1 3003 3001
M  V30 3367 2 3004 3003
M  V30 3368 1 3004 3005
M  V30 3369 1 3006 3005
M  V30 3370 1 3007 3008
M  V30 3371 1 3008 3013
M  V30 3372 2 3009 3008
M  V30 3373 1 3009 3010
M  V30 3374 1 3010 3015 CFG=1
M  V30 3375 1 3010 3011
M  V30 3376 1 3011 3025
M  V30 3377 1 3011 3014 CFG=1
M  V30 3378 1 3012 3011
M  V30 3379 1 3013 3012
M  V30 3380 1 3015 3016
M  V30 3381 2 3020 3015
M  V30 3382 2 3016 3017
M  V30 3383 1 3018 3017
M  V30 3384 1 3018 3023
M  V30 3385 2 3019 3018
M  V30 3386 1 3020 3019
M  V30 3387 1 3021 3019
M  V30 3388 2 3021 3022
M  V30 3389 1 3022 3023
M  V30 3390 1 3023 3024
M  V30 3391 2 3025 3026
M  V30 3392 1 3026 3027
M  V30 3393 1 3027 3028
M  V30 3394 2 3032 3027
M  V30 3395 2 3028 3029
M  V30 3396 1 3030 3029
M  V30 3397 1 3030 3035
M  V30 3398 2 3031 3030
M  V30 3399 1 3032 3031
M  V30 3400 1 3033 3031
M  V30 3401 2 3033 3034
M  V30 3402 1 3034 3035
M  V30 3403 1 3035 3036
M  V30 3404 1 3038 3037
M  V30 3405 2 3038 3039
M  V30 3406 1 3043 3038
M  V30 3407 1 3040 3039
M  V30 3408 1 3040 3045 CFG=1
M  V30 3409 1 3041 3040
M  V30 3410 1 3041 3044 CFG=1
M  V30 3411 1 3042 3041
M  V30 3412 1 3055 3041
M  V30 3413 1 3042 3043
M  V30 3414 1 3045 3046
M  V30 3415 2 3050 3045
M  V30 3416 2 3046 3047
M  V30 3417 1 3048 3047
M  V30 3418 1 3048 3053
M  V30 3419 2 3049 3048
M  V30 3420 1 3050 3049
M  V30 3421 1 3051 3049
M  V30 3422 2 3051 3052
M  V30 3423 1 3052 3053
M  V30 3424 1 3053 3054
M  V30 3425 2 3056 3055
M  V30 3426 1 3057 3056
M  V30 3427 1 3057 3062
M  V30 3428 2 3058 3057
M  V30 3429 1 3059 3058
M  V30 3430 2 3059 3060
M  V30 3431 1 3060 3061
M  V30 3432 1 3065 3060
M  V30 3433 1 3061 3063
M  V30 3434 2 3061 3062
M  V30 3435 2 3064 3063
M  V30 3436 1 3065 3064
M  V30 3437 1 3066 3065
M  V30 3438 1 3067 3068
M  V30 3439 1 3068 3073
M  V30 3440 2 3069 3068
M  V30 3441 1 3069 3070
M  V30 3442 1 3070 3075 CFG=1
M  V30 3443 1 3070 3071
M  V30 3444 1 3071 3072
M  V30 3445 1 3071 3074 CFG=1
M  V30 3446 1 3085 3071
M  V30 3447 1 3072 3073
M  V30 3448 2 3076 3075
M  V30 3449 1 3080 3075
M  V30 3450 1 3077 3076
M  V30 3451 2 3077 3078
M  V30 3452 1 3078 3079
M  V30 3453 1 3083 3078
M  V30 3454 2 3079 3080
M  V30 3455 1 3081 3079
M  V30 3456 2 3082 3081
M  V30 3457 1 3083 3082
M  V30 3458 1 3084 3083
M  V30 3459 2 3086 3085
M  V30 3460 1 3087 3086
M  V30 3461 1 3087 3092
M  V30 3462 2 3088 3087
M  V30 3463 1 3089 3088
M  V30 3464 2 3089 3090
M  V30 3465 1 3090 3091
M  V30 3466 1 3095 3090
M  V30 3467 1 3091 3093
M  V30 3468 2 3091 3092
M  V30 3469 2 3094 3093
M  V30 3470 1 3095 3094
M  V30 3471 1 3096 3095
M  V30 3472 1 3097 3098
M  V30 3473 2 3098 3099
M  V30 3474 1 3103 3098
M  V30 3475 1 3099 3100
M  V30 3476 1 3100 3105 CFG=6
M  V30 3477 1 3101 3100
M  V30 3478 1 3101 3104 CFG=6
M  V30 3479 1 3101 3115
M  V30 3480 1 3102 3101
M  V30 3481 1 3103 3102
M  V30 3482 1 3105 3110
M  V30 3483 2 3106 3105
M  V30 3484 1 3106 3107
M  V30 3485 2 3107 3108
M  V30 3486 1 3108 3109
M  V30 3487 1 3108 3113
M  V30 3488 1 3109 3111
M  V30 3489 2 3110 3109
M  V30 3490 2 3111 3112
M  V30 3491 1 3113 3112
M  V30 3492 1 3114 3113
M  V30 3493 2 3116 3115
M  V30 3494 1 3116 3117
M  V30 3495 1 3117 3118
M  V30 3496 2 3122 3117
M  V30 3497 2 3118 3119
M  V30 3498 1 3120 3119
M  V30 3499 1 3120 3125
M  V30 3500 2 3121 3120
M  V30 3501 1 3121 3123
M  V30 3502 1 3122 3121
M  V30 3503 2 3123 3124
M  V30 3504 1 3124 3125
M  V30 3505 1 3125 3126
M  V30 3506 1 3127 3128
M  V30 3507 2 3128 3129
M  V30 3508 1 3133 3128
M  V30 3509 1 3129 3130
M  V30 3510 1 3130 3135 CFG=6
M  V30 3511 1 3131 3130
M  V30 3512 1 3131 3134 CFG=6
M  V30 3513 1 3131 3132
M  V30 3514 1 3131 3145
M  V30 3515 1 3133 3132
M  V30 3516 1 3135 3140
M  V30 3517 2 3136 3135
M  V30 3518 1 3137 3136
M  V30 3519 2 3137 3138
M  V30 3520 1 3138 3139
M  V30 3521 1 3143 3138
M  V30 3522 2 3139 3140
M  V30 3523 1 3139 3141
M  V30 3524 2 3142 3141
M  V30 3525 1 3143 3142
M  V30 3526 1 3144 3143
M  V30 3527 2 3146 3145
M  V30 3528 1 3146 3147
M  V30 3529 1 3147 3148
M  V30 3530 2 3152 3147
M  V30 3531 2 3148 3149
M  V30 3532 1 3150 3149
M  V30 3533 1 3150 3155
M  V30 3534 2 3151 3150
M  V30 3535 1 3152 3151
M  V30 3536 1 3153 3151
M  V30 3537 2 3153 3154
M  V30 3538 1 3154 3155
M  V30 3539 1 3155 3156
M  V30 3540 1 3158 3157
M  V30 3541 2 3158 3159
M  V30 3542 1 3163 3158
M  V30 3543 1 3160 3159
M  V30 3544 1 3160 3165 CFG=6
M  V30 3545 1 3161 3160
M  V30 3546 1 3161 3164 CFG=6
M  V30 3547 1 3161 3162
M  V30 3548 1 3175 3161
M  V30 3549 1 3162 3163
M  V30 3550 1 3165 3170
M  V30 3551 2 3166 3165
M  V30 3552 1 3167 3166
M  V30 3553 2 3167 3168
M  V30 3554 1 3168 3169
M  V30 3555 1 3173 3168
M  V30 3556 2 3169 3170
M  V30 3557 1 3169 3171
M  V30 3558 2 3172 3171
M  V30 3559 1 3173 3172
M  V30 3560 1 3174 3173
M  V30 3561 2 3176 3175
M  V30 3562 1 3177 3176
M  V30 3563 1 3177 3182
M  V30 3564 2 3178 3177
M  V30 3565 1 3179 3178
M  V30 3566 2 3179 3180
M  V30 3567 1 3180 3181
M  V30 3568 1 3185 3180
M  V30 3569 1 3181 3183
M  V30 3570 2 3181 3182
M  V30 3571 2 3184 3183
M  V30 3572 1 3185 3184
M  V30 3573 1 3186 3185
M  V30 3574 1 3187 3188
M  V30 3575 1 3188 3193
M  V30 3576 2 3189 3188
M  V30 3577 1 3189 3190
M  V30 3578 1 3190 3195 CFG=1
M  V30 3579 1 3190 3191
M  V30 3580 1 3191 3205
M  V30 3581 1 3191 3194 CFG=1
M  V30 3582 1 3192 3191
M  V30 3583 1 3193 3192
M  V30 3584 1 3195 3200
M  V30 3585 2 3196 3195
M  V30 3586 1 3196 3197
M  V30 3587 2 3197 3198
M  V30 3588 1 3198 3199
M  V30 3589 1 3198 3203
M  V30 3590 1 3199 3201
M  V30 3591 2 3200 3199
M  V30 3592 2 3201 3202
M  V30 3593 1 3203 3202
M  V30 3594 1 3203 3204
M  V30 3595 2 3206 3205
M  V30 3596 1 3206 3207
M  V30 3597 1 3207 3212
M  V30 3598 2 3208 3207
M  V30 3599 1 3208 3209
M  V30 3600 2 3209 3210
M  V30 3601 1 3210 3211
M  V30 3602 1 3210 3215
M  V30 3603 1 3211 3213
M  V30 3604 2 3212 3211
M  V30 3605 2 3213 3214
M  V30 3606 1 3215 3214
M  V30 3607 1 3216 3215
M  V30 3608 1 3218 3217
M  V30 3609 1 3218 3223
M  V30 3610 2 3219 3218
M  V30 3611 1 3220 3219
M  V30 3612 1 3220 3225 CFG=6
M  V30 3613 1 3220 3221
M  V30 3614 1 3221 3224 CFG=6
M  V30 3615 1 3221 3222
M  V30 3616 1 3235 3221
M  V30 3617 1 3222 3223
M  V30 3618 2 3226 3225
M  V30 3619 1 3230 3225
M  V30 3620 1 3227 3226
M  V30 3621 2 3228 3227
M  V30 3622 1 3228 3229
M  V30 3623 1 3233 3228
M  V30 3624 2 3229 3230
M  V30 3625 1 3231 3229
M  V30 3626 2 3232 3231
M  V30 3627 1 3232 3233
M  V30 3628 1 3234 3233
M  V30 3629 2 3236 3235
M  V30 3630 1 3237 3236
M  V30 3631 1 3238 3237
M  V30 3632 2 3242 3237
M  V30 3633 2 3239 3238
M  V30 3634 1 3240 3239
M  V30 3635 2 3240 3241
M  V30 3636 1 3245 3240
M  V30 3637 1 3241 3242
M  V30 3638 1 3243 3241
M  V30 3639 2 3244 3243
M  V30 3640 1 3244 3245
M  V30 3641 1 3246 3245
M  V30 3642 1 3248 3247
M  V30 3643 2 3249 3248
M  V30 3644 1 3253 3248
M  V30 3645 1 3250 3249
M  V30 3646 1 3250 3255 CFG=6
M  V30 3647 1 3251 3250
M  V30 3648 1 3251 3254 CFG=6
M  V30 3649 1 3251 3252
M  V30 3650 1 3265 3251
M  V30 3651 1 3252 3253
M  V30 3652 1 3255 3256
M  V30 3653 2 3260 3255
M  V30 3654 2 3257 3256
M  V30 3655 1 3258 3257
M  V30 3656 2 3259 3258
M  V30 3657 1 3263 3258
M  V30 3658 1 3259 3260
M  V30 3659 1 3261 3259
M  V30 3660 2 3262 3261
M  V30 3661 1 3262 3263
M  V30 3662 1 3264 3263
M  V30 3663 2 3266 3265
M  V30 3664 1 3267 3266
M  V30 3665 1 3268 3267
M  V30 3666 2 3272 3267
M  V30 3667 2 3269 3268
M  V30 3668 1 3270 3269
M  V30 3669 2 3270 3271
M  V30 3670 1 3275 3270
M  V30 3671 1 3271 3272
M  V30 3672 1 3273 3271
M  V30 3673 2 3274 3273
M  V30 3674 1 3274 3275
M  V30 3675 1 3276 3275
M  V30 3676 1 3277 3278
M  V30 3677 1 3278 3283
M  V30 3678 2 3279 3278
M  V30 3679 1 3279 3280
M  V30 3680 1 3280 3285 CFG=1
M  V30 3681 1 3280 3281
M  V30 3682 1 3281 3295
M  V30 3683 1 3281 3284 CFG=1
M  V30 3684 1 3282 3281
M  V30 3685 1 3283 3282
M  V30 3686 1 3285 3286
M  V30 3687 2 3290 3285
M  V30 3688 2 3286 3287
M  V30 3689 1 3288 3287
M  V30 3690 1 3288 3293
M  V30 3691 2 3289 3288
M  V30 3692 1 3290 3289
M  V30 3693 1 3291 3289
M  V30 3694 2 3291 3292
M  V30 3695 1 3292 3293
M  V30 3696 1 3293 3294
M  V30 3697 2 3295 3296
M  V30 3698 1 3296 3297
M  V30 3699 1 3297 3298
M  V30 3700 2 3302 3297
M  V30 3701 2 3298 3299
M  V30 3702 1 3300 3299
M  V30 3703 1 3300 3305
M  V30 3704 2 3301 3300
M  V30 3705 1 3302 3301
M  V30 3706 1 3303 3301
M  V30 3707 2 3303 3304
M  V30 3708 1 3304 3305
M  V30 3709 1 3305 3306
M  V30 3710 1 3308 3307
M  V30 3711 2 3308 3309
M  V30 3712 1 3313 3308
M  V30 3713 1 3310 3309
M  V30 3714 1 3310 3315 CFG=1
M  V30 3715 1 3311 3310
M  V30 3716 1 3311 3314 CFG=1
M  V30 3717 1 3312 3311
M  V30 3718 1 3325 3311
M  V30 3719 1 3312 3313
M  V30 3720 1 3315 3316
M  V30 3721 2 3320 3315
M  V30 3722 2 3316 3317
M  V30 3723 1 3318 3317
M  V30 3724 1 3318 3323
M  V30 3725 2 3319 3318
M  V30 3726 1 3320 3319
M  V30 3727 1 3321 3319
M  V30 3728 2 3321 3322
M  V30 3729 1 3322 3323
M  V30 3730 1 3323 3324
M  V30 3731 2 3326 3325
M  V30 3732 1 3327 3326
M  V30 3733 1 3327 3332
M  V30 3734 2 3328 3327
M  V30 3735 1 3329 3328
M  V30 3736 2 3329 3330
M  V30 3737 1 3330 3331
M  V30 3738 1 3335 3330
M  V30 3739 1 3331 3333
M  V30 3740 2 3331 3332
M  V30 3741 2 3334 3333
M  V30 3742 1 3335 3334
M  V30 3743 1 3336 3335
M  V30 3744 1 3337 3338
M  V30 3745 1 3338 3343
M  V30 3746 2 3339 3338
M  V30 3747 1 3339 3340
M  V30 3748 1 3340 3345 CFG=1
M  V30 3749 1 3340 3341
M  V30 3750 1 3341 3342
M  V30 3751 1 3341 3344 CFG=1
M  V30 3752 1 3355 3341
M  V30 3753 1 3342 3343
M  V30 3754 2 3346 3345
M  V30 3755 1 3350 3345
M  V30 3756 1 3347 3346
M  V30 3757 2 3347 3348
M  V30 3758 1 3348 3349
M  V30 3759 1 3353 3348
M  V30 3760 2 3349 3350
M  V30 3761 1 3351 3349
M  V30 3762 2 3352 3351
M  V30 3763 1 3353 3352
M  V30 3764 1 3354 3353
M  V30 3765 2 3356 3355
M  V30 3766 1 3357 3356
M  V30 3767 1 3357 3362
M  V30 3768 2 3358 3357
M  V30 3769 1 3359 3358
M  V30 3770 2 3359 3360
M  V30 3771 1 3360 3361
M  V30 3772 1 3365 3360
M  V30 3773 1 3361 3363
M  V30 3774 2 3361 3362
M  V30 3775 2 3364 3363
M  V30 3776 1 3365 3364
M  V30 3777 1 3366 3365
M  V30 3778 1 3367 3368
M  V30 3779 2 3368 3369
M  V30 3780 1 3373 3368
M  V30 3781 1 3369 3370
M  V30 3782 1 3370 3375 CFG=6
M  V30 3783 1 3371 3370
M  V30 3784 1 3371 3374 CFG=6
M  V30 3785 1 3371 3385
M  V30 3786 1 3372 3371
M  V30 3787 1 3373 3372
M  V30 3788 1 3375 3380
M  V30 3789 2 3376 3375
M  V30 3790 1 3376 3377
M  V30 3791 2 3377 3378
M  V30 3792 1 3378 3379
M  V30 3793 1 3378 3383
M  V30 3794 1 3379 3381
M  V30 3795 2 3380 3379
M  V30 3796 2 3381 3382
M  V30 3797 1 3383 3382
M  V30 3798 1 3384 3383
M  V30 3799 2 3386 3385
M  V30 3800 1 3386 3387
M  V30 3801 1 3387 3388
M  V30 3802 2 3392 3387
M  V30 3803 2 3388 3389
M  V30 3804 1 3390 3389
M  V30 3805 1 3390 3395
M  V30 3806 2 3391 3390
M  V30 3807 1 3391 3393
M  V30 3808 1 3392 3391
M  V30 3809 2 3393 3394
M  V30 3810 1 3394 3395
M  V30 3811 1 3395 3396
M  V30 3812 1 3397 3398
M  V30 3813 2 3398 3399
M  V30 3814 1 3403 3398
M  V30 3815 1 3399 3400
M  V30 3816 1 3400 3405 CFG=6
M  V30 3817 1 3401 3400
M  V30 3818 1 3401 3404 CFG=6
M  V30 3819 1 3401 3402
M  V30 3820 1 3401 3415
M  V30 3821 1 3403 3402
M  V30 3822 1 3405 3410
M  V30 3823 2 3406 3405
M  V30 3824 1 3407 3406
M  V30 3825 2 3407 3408
M  V30 3826 1 3408 3409
M  V30 3827 1 3413 3408
M  V30 3828 2 3409 3410
M  V30 3829 1 3409 3411
M  V30 3830 2 3412 3411
M  V30 3831 1 3413 3412
M  V30 3832 1 3414 3413
M  V30 3833 2 3416 3415
M  V30 3834 1 3416 3417
M  V30 3835 1 3417 3418
M  V30 3836 2 3422 3417
M  V30 3837 2 3418 3419
M  V30 3838 1 3420 3419
M  V30 3839 1 3420 3425
M  V30 3840 2 3421 3420
M  V30 3841 1 3422 3421
M  V30 3842 1 3423 3421
M  V30 3843 2 3423 3424
M  V30 3844 1 3424 3425
M  V30 3845 1 3425 3426
M  V30 3846 1 3428 3427
M  V30 3847 2 3428 3429
M  V30 3848 1 3433 3428
M  V30 3849 1 3430 3429
M  V30 3850 1 3430 3435 CFG=6
M  V30 3851 1 3431 3430
M  V30 3852 1 3431 3434 CFG=6
M  V30 3853 1 3431 3432
M  V30 3854 1 3445 3431
M  V30 3855 1 3432 3433
M  V30 3856 1 3435 3440
M  V30 3857 2 3436 3435
M  V30 3858 1 3437 3436
M  V30 3859 2 3437 3438
M  V30 3860 1 3438 3439
M  V30 3861 1 3443 3438
M  V30 3862 2 3439 3440
M  V30 3863 1 3439 3441
M  V30 3864 2 3442 3441
M  V30 3865 1 3443 3442
M  V30 3866 1 3444 3443
M  V30 3867 2 3446 3445
M  V30 3868 1 3447 3446
M  V30 3869 1 3447 3452
M  V30 3870 2 3448 3447
M  V30 3871 1 3449 3448
M  V30 3872 2 3449 3450
M  V30 3873 1 3450 3451
M  V30 3874 1 3455 3450
M  V30 3875 1 3451 3453
M  V30 3876 2 3451 3452
M  V30 3877 2 3454 3453
M  V30 3878 1 3455 3454
M  V30 3879 1 3456 3455
M  V30 3880 1 3457 3458
M  V30 3881 1 3457 3487
M  V30 3882 2 3467 3457
M  V30 3883 2 3459 3458
M  V30 3884 1 3459 3460
M  V30 3885 1 3465 3459
M  V30 3886 1 3461 3460
M  V30 3887 1 3461 3462 CFG=1
M  V30 3888 1 3463 3461
M  V30 3889 1 3463 3469
M  V30 3890 1 3464 3463
M  V30 3891 1 3470 3463
M  V30 3892 1 3464 3468 CFG=6
M  V30 3893 1 3464 3465
M  V30 3894 2 3466 3465
M  V30 3895 1 3466 3467
M  V30 3896 1 3488 3466
M  V30 3897 1 3471 3467
M  V30 3898 2 3472 3471
M  V30 3899 1 3477 3471
M  V30 3900 1 3472 3473
M  V30 3901 1 3474 3472
M  V30 3902 2 3475 3474
M  V30 3903 1 3475 3476
M  V30 3904 1 3481 3475
M  V30 3905 2 3476 3477
M  V30 3906 1 3478 3476
M  V30 3907 1 3477 3482
M  V30 3908 1 3478 3484
M  V30 3909 2 3479 3478
M  V30 3910 1 3480 3479
M  V30 3911 2 3480 3481
M  V30 3912 1 3482 3483
M  V30 3913 1 3484 3485
M  V30 3914 1 3487 3486
M  V30 3915 1 3489 3488
M  V30 3916 1 3490 3491
M  V30 3917 1 3490 3520
M  V30 3918 2 3500 3490
M  V30 3919 2 3492 3491
M  V30 3920 1 3492 3493
M  V30 3921 1 3498 3492
M  V30 3922 1 3494 3493
M  V30 3923 1 3494 3495 CFG=1
M  V30 3924 1 3496 3494
M  V30 3925 1 3496 3502
M  V30 3926 1 3497 3496
M  V30 3927 1 3503 3496
M  V30 3928 1 3497 3501 CFG=1
M  V30 3929 1 3497 3498
M  V30 3930 2 3499 3498
M  V30 3931 1 3499 3500
M  V30 3932 1 3521 3499
M  V30 3933 1 3504 3500
M  V30 3934 1 3504 3510
M  V30 3935 2 3505 3504
M  V30 3936 1 3506 3505
M  V30 3937 1 3507 3505
M  V30 3938 2 3507 3508
M  V30 3939 1 3508 3509
M  V30 3940 1 3514 3508
M  V30 3941 1 3509 3511
M  V30 3942 2 3509 3510
M  V30 3943 1 3510 3515
M  V30 3944 1 3511 3517
M  V30 3945 2 3512 3511
M  V30 3946 1 3513 3512
M  V30 3947 2 3514 3513
M  V30 3948 1 3516 3515
M  V30 3949 1 3517 3518
M  V30 3950 1 3520 3519
M  V30 3951 1 3522 3521
M  V30 3952 1 3523 3524
M  V30 3953 1 3523 3553
M  V30 3954 2 3533 3523
M  V30 3955 2 3525 3524
M  V30 3956 1 3525 3526
M  V30 3957 1 3531 3525
M  V30 3958 1 3527 3526
M  V30 3959 1 3527 3528 CFG=1
M  V30 3960 1 3529 3527
M  V30 3961 1 3529 3535
M  V30 3962 1 3530 3529
M  V30 3963 1 3536 3529
M  V30 3964 1 3530 3534 CFG=6
M  V30 3965 1 3530 3531
M  V30 3966 2 3532 3531
M  V30 3967 1 3532 3533
M  V30 3968 1 3554 3532
M  V30 3969 1 3537 3533
M  V30 3970 1 3537 3538
M  V30 3971 2 3543 3537
M  V30 3972 1 3538 3539
M  V30 3973 2 3540 3538
M  V30 3974 1 3541 3540
M  V30 3975 1 3542 3541
M  V30 3976 2 3547 3541
M  V30 3977 1 3542 3543
M  V30 3978 2 3544 3542
M  V30 3979 1 3548 3543
M  V30 3980 1 3545 3544
M  V30 3981 1 3550 3544
M  V30 3982 2 3545 3546
M  V30 3983 1 3546 3547
M  V30 3984 1 3549 3548
M  V30 3985 1 3550 3551
M  V30 3986 1 3553 3552
M  V30 3987 1 3555 3554
M  V30 3988 1 3556 3566
M  V30 3989 2 3557 3556
M  V30 3990 1 3586 3556
M  V30 3991 1 3557 3558
M  V30 3992 2 3558 3564
M  V30 3993 1 3559 3558
M  V30 3994 1 3559 3560
M  V30 3995 1 3560 3561 CFG=6
M  V30 3996 1 3562 3560
M  V30 3997 1 3562 3569
M  V30 3998 1 3562 3563
M  V30 3999 1 3568 3562
M  V30 4000 1 3563 3567 CFG=6
M  V30 4001 1 3564 3563
M  V30 4002 1 3564 3565
M  V30 4003 1 3565 3587
M  V30 4004 2 3566 3565
M  V30 4005 1 3566 3570
M  V30 4006 1 3570 3571
M  V30 4007 2 3576 3570
M  V30 4008 2 3571 3573
M  V30 4009 1 3571 3572
M  V30 4010 1 3574 3573
M  V30 4011 1 3574 3580
M  V30 4012 2 3575 3574
M  V30 4013 1 3576 3575
M  V30 4014 1 3577 3575
M  V30 4015 1 3581 3576
M  V30 4016 2 3577 3578
M  V30 4017 1 3583 3577
M  V30 4018 1 3578 3579
M  V30 4019 2 3579 3580
M  V30 4020 1 3582 3581
M  V30 4021 1 3584 3583
M  V30 4022 1 3585 3586
M  V30 4023 1 3588 3587
M  V30 4024 1 3589 3619
M  V30 4025 1 3590 3589
M  V30 4026 2 3599 3589
M  V30 4027 2 3591 3590
M  V30 4028 1 3592 3591
M  V30 4029 1 3597 3591
M  V30 4030 1 3593 3592
M  V30 4031 1 3593 3594 CFG=1
M  V30 4032 1 3593 3595
M  V30 4033 1 3595 3601
M  V30 4034 1 3596 3595
M  V30 4035 1 3602 3595
M  V30 4036 1 3596 3600 CFG=1
M  V30 4037 1 3596 3597
M  V30 4038 2 3597 3598
M  V30 4039 1 3598 3599
M  V30 4040 1 3620 3598
M  V30 4041 1 3599 3603
M  V30 4042 1 3603 3604
M  V30 4043 2 3609 3603
M  V30 4044 2 3604 3606
M  V30 4045 1 3604 3605
M  V30 4046 1 3607 3606
M  V30 4047 1 3607 3613
M  V30 4048 2 3608 3607
M  V30 4049 1 3609 3608
M  V30 4050 1 3610 3608
M  V30 4051 1 3614 3609
M  V30 4052 2 3610 3611
M  V30 4053 1 3616 3610
M  V30 4054 1 3611 3612
M  V30 4055 2 3612 3613
M  V30 4056 1 3615 3614
M  V30 4057 1 3617 3616
M  V30 4058 1 3618 3619
M  V30 4059 1 3621 3620
M  V30 4060 2 3622 3632
M  V30 4061 1 3622 3623
M  V30 4062 1 3652 3622
M  V30 4063 2 3623 3624
M  V30 4064 1 3624 3625
M  V30 4065 1 3630 3624
M  V30 4066 1 3625 3626
M  V30 4067 1 3626 3627 CFG=6
M  V30 4068 1 3628 3626
M  V30 4069 1 3628 3635
M  V30 4070 1 3628 3629
M  V30 4071 1 3634 3628
M  V30 4072 1 3629 3633 CFG=6
M  V30 4073 1 3630 3629
M  V30 4074 2 3630 3631
M  V30 4075 1 3631 3653
M  V30 4076 1 3632 3631
M  V30 4077 1 3636 3632
M  V30 4078 1 3636 3642
M  V30 4079 2 3637 3636
M  V30 4080 1 3638 3637
M  V30 4081 1 3639 3637
M  V30 4082 2 3639 3640
M  V30 4083 1 3640 3641
M  V30 4084 1 3646 3640
M  V30 4085 2 3641 3642
M  V30 4086 1 3641 3643
M  V30 4087 1 3642 3647
M  V30 4088 1 3643 3649
M  V30 4089 2 3644 3643
M  V30 4090 1 3645 3644
M  V30 4091 2 3646 3645
M  V30 4092 1 3647 3648
M  V30 4093 1 3649 3650
M  V30 4094 1 3651 3652
M  V30 4095 1 3654 3653
M  V30 4096 2 3655 3656
M  V30 4097 1 3655 3665
M  V30 4098 1 3685 3655
M  V30 4099 1 3656 3657
M  V30 4100 1 3657 3658
M  V30 4101 2 3657 3663
M  V30 4102 1 3658 3659
M  V30 4103 1 3659 3660 CFG=1
M  V30 4104 1 3659 3661
M  V30 4105 1 3661 3668
M  V30 4106 1 3662 3661
M  V30 4107 1 3667 3661
M  V30 4108 1 3662 3666 CFG=1
M  V30 4109 1 3663 3662
M  V30 4110 1 3664 3663
M  V30 4111 1 3664 3686
M  V30 4112 2 3665 3664
M  V30 4113 1 3669 3665
M  V30 4114 1 3670 3669
M  V30 4115 2 3675 3669
M  V30 4116 1 3670 3671
M  V30 4117 2 3672 3670
M  V30 4118 1 3673 3672
M  V30 4119 1 3673 3674
M  V30 4120 2 3679 3673
M  V30 4121 1 3674 3675
M  V30 4122 2 3676 3674
M  V30 4123 1 3680 3675
M  V30 4124 1 3676 3682
M  V30 4125 1 3677 3676
M  V30 4126 2 3678 3677
M  V30 4127 1 3678 3679
M  V30 4128 1 3680 3681
M  V30 4129 1 3682 3683
M  V30 4130 1 3684 3685
M  V30 4131 1 3686 3687
M  V30 4132 2 3688 3689
M  V30 4133 1 3688 3698
M  V30 4134 1 3718 3688
M  V30 4135 1 3689 3690
M  V30 4136 2 3690 3696
M  V30 4137 1 3691 3690
M  V30 4138 1 3691 3692
M  V30 4139 1 3692 3693 CFG=1
M  V30 4140 1 3692 3694
M  V30 4141 1 3694 3700
M  V30 4142 1 3694 3695
M  V30 4143 1 3694 3701
M  V30 4144 1 3695 3699 CFG=1
M  V30 4145 1 3696 3695
M  V30 4146 1 3697 3696
M  V30 4147 1 3697 3719
M  V30 4148 2 3698 3697
M  V30 4149 1 3702 3698
M  V30 4150 1 3702 3708
M  V30 4151 2 3703 3702
M  V30 4152 1 3704 3703
M  V30 4153 1 3705 3703
M  V30 4154 2 3705 3706
M  V30 4155 1 3706 3707
M  V30 4156 1 3712 3706
M  V30 4157 1 3707 3709
M  V30 4158 2 3707 3708
M  V30 4159 1 3708 3713
M  V30 4160 1 3709 3715
M  V30 4161 2 3710 3709
M  V30 4162 1 3711 3710
M  V30 4163 2 3712 3711
M  V30 4164 1 3713 3714
M  V30 4165 1 3715 3716
M  V30 4166 1 3717 3718
M  V30 4167 1 3719 3720
M  V30 4168 2 3721 3722
M  V30 4169 1 3721 3731
M  V30 4170 1 3751 3721
M  V30 4171 1 3722 3723
M  V30 4172 1 3723 3724
M  V30 4173 2 3723 3729
M  V30 4174 1 3724 3725
M  V30 4175 1 3725 3726 CFG=6
M  V30 4176 1 3725 3727
M  V30 4177 1 3727 3734
M  V30 4178 1 3728 3727
M  V30 4179 1 3733 3727
M  V30 4180 1 3728 3732 CFG=1
M  V30 4181 1 3729 3728
M  V30 4182 1 3730 3729
M  V30 4183 1 3730 3752
M  V30 4184 2 3731 3730
M  V30 4185 1 3735 3731
M  V30 4186 1 3735 3741
M  V30 4187 2 3736 3735
M  V30 4188 1 3737 3736
M  V30 4189 1 3738 3736
M  V30 4190 2 3738 3739
M  V30 4191 1 3739 3740
M  V30 4192 1 3745 3739
M  V30 4193 1 3740 3742
M  V30 4194 2 3740 3741
M  V30 4195 1 3741 3746
M  V30 4196 1 3742 3748
M  V30 4197 2 3743 3742
M  V30 4198 1 3744 3743
M  V30 4199 2 3745 3744
M  V30 4200 1 3747 3746
M  V30 4201 1 3748 3749
M  V30 4202 1 3750 3751
M  V30 4203 1 3752 3753
M  V30 4204 2 3754 3755
M  V30 4205 1 3755 3756
M  V30 4206 1 3755 3760
M  V30 4207 1 3756 3757
M  V30 4208 1 3757 3765 CFG=6
M  V30 4209 1 3757 3758
M  V30 4210 1 3759 3758
M  V30 4211 1 3759 3764
M  V30 4212 2 3760 3759
M  V30 4213 1 3761 3760
M  V30 4214 2 3761 3762
M  V30 4215 1 3771 3761
M  V30 4216 1 3762 3763
M  V30 4217 1 3775 3762
M  V30 4218 2 3763 3764
M  V30 4219 1 3763 3773
M  V30 4220 1 3765 3770
M  V30 4221 2 3766 3765
M  V30 4222 1 3766 3767
M  V30 4223 2 3767 3768
M  V30 4224 1 3768 3769
M  V30 4225 2 3770 3769
M  V30 4226 1 3772 3771
M  V30 4227 1 3773 3774
M  V30 4228 1 3775 3776
M  V30 4229 1 3776 3777
M  V30 4230 2 3781 3776
M  V30 4231 2 3777 3778
M  V30 4232 1 3779 3778
M  V30 4233 2 3780 3779
M  V30 4234 1 3781 3780
M  V30 4235 1 3782 3781
M  V30 4236 1 3783 3782
M  V30 4237 2 3785 3784
M  V30 4238 1 3785 3786
M  V30 4239 1 3790 3785
M  V30 4240 1 3787 3786
M  V30 4241 1 3787 3795 CFG=1
M  V30 4242 1 3788 3787
M  V30 4243 1 3789 3788
M  V30 4244 1 3789 3790
M  V30 4245 2 3794 3789
M  V30 4246 2 3791 3790
M  V30 4247 1 3792 3791
M  V30 4248 1 3801 3791
M  V30 4249 2 3793 3792
M  V30 4250 1 3805 3792
M  V30 4251 1 3793 3794
M  V30 4252 1 3803 3793
M  V30 4253 1 3795 3800
M  V30 4254 2 3796 3795
M  V30 4255 1 3796 3797
M  V30 4256 2 3797 3798
M  V30 4257 1 3798 3799
M  V30 4258 2 3800 3799
M  V30 4259 1 3802 3801
M  V30 4260 1 3803 3804
M  V30 4261 1 3805 3806
M  V30 4262 2 3806 3811
M  V30 4263 1 3806 3807
M  V30 4264 2 3807 3808
M  V30 4265 1 3808 3809
M  V30 4266 2 3810 3809
M  V30 4267 1 3811 3810
M  V30 4268 1 3812 3811
M  V30 4269 1 3812 3813
M  V30 4270 2 3814 3815
M  V30 4271 1 3815 3816
M  V30 4272 1 3815 3820
M  V30 4273 1 3816 3817
M  V30 4274 1 3817 3818
M  V30 4275 1 3817 3825 CFG=1
M  V30 4276 1 3819 3818
M  V30 4277 1 3819 3824
M  V30 4278 2 3820 3819
M  V30 4279 1 3821 3820
M  V30 4280 2 3821 3822
M  V30 4281 1 3831 3821
M  V30 4282 1 3822 3823
M  V30 4283 1 3835 3822
M  V30 4284 2 3823 3824
M  V30 4285 1 3823 3833
M  V30 4286 1 3825 3830
M  V30 4287 2 3826 3825
M  V30 4288 1 3826 3827
M  V30 4289 2 3827 3828
M  V30 4290 1 3828 3829
M  V30 4291 2 3830 3829
M  V30 4292 1 3832 3831
M  V30 4293 1 3834 3833
M  V30 4294 1 3835 3836
M  V30 4295 1 3836 3837
M  V30 4296 2 3841 3836
M  V30 4297 2 3837 3838
M  V30 4298 1 3839 3838
M  V30 4299 2 3840 3839
M  V30 4300 1 3841 3840
M  V30 4301 1 3842 3841
M  V30 4302 1 3842 3843
M  V30 4303 2 3845 3844
M  V30 4304 1 3845 3846
M  V30 4305 1 3850 3845
M  V30 4306 1 3847 3846
M  V30 4307 1 3847 3855 CFG=1
M  V30 4308 1 3848 3847
M  V30 4309 1 3849 3848
M  V30 4310 1 3849 3850
M  V30 4311 2 3854 3849
M  V30 4312 2 3851 3850
M  V30 4313 1 3852 3851
M  V30 4314 1 3861 3851
M  V30 4315 2 3853 3852
M  V30 4316 1 3865 3852
M  V30 4317 1 3853 3854
M  V30 4318 1 3863 3853
M  V30 4319 2 3855 3860
M  V30 4320 1 3855 3856
M  V30 4321 2 3856 3857
M  V30 4322 1 3857 3858
M  V30 4323 2 3859 3858
M  V30 4324 1 3860 3859
M  V30 4325 1 3861 3862
M  V30 4326 1 3863 3864
M  V30 4327 1 3865 3866
M  V30 4328 2 3866 3867
M  V30 4329 1 3866 3871
M  V30 4330 1 3867 3868
M  V30 4331 2 3868 3869
M  V30 4332 1 3870 3869
M  V30 4333 2 3871 3870
M  V30 4334 1 3872 3871
M  V30 4335 1 3873 3872
M  V30 4336 2 3875 3874
M  V30 4337 1 3875 3876
M  V30 4338 1 3880 3875
M  V30 4339 1 3877 3876
M  V30 4340 1 3877 3885 CFG=6
M  V30 4341 1 3878 3877
M  V30 4342 1 3879 3878
M  V30 4343 1 3879 3880
M  V30 4344 2 3884 3879
M  V30 4345 2 3881 3880
M  V30 4346 1 3881 3891
M  V30 4347 1 3882 3881
M  V30 4348 2 3883 3882
M  V30 4349 1 3895 3882
M  V30 4350 1 3883 3884
M  V30 4351 1 3893 3883
M  V30 4352 1 3885 3890
M  V30 4353 2 3886 3885
M  V30 4354 1 3887 3886
M  V30 4355 2 3887 3888
M  V30 4356 1 3888 3889
M  V30 4357 2 3889 3890
M  V30 4358 1 3892 3891
M  V30 4359 1 3894 3893
M  V30 4360 1 3896 3895
M  V30 4361 1 3896 3897
M  V30 4362 2 3901 3896
M  V30 4363 2 3898 3897
M  V30 4364 1 3899 3898
M  V30 4365 2 3900 3899
M  V30 4366 1 3900 3901
M  V30 4367 1 3902 3901
M  V30 4368 1 3902 3903
M  V30 4369 2 3904 3905
M  V30 4370 1 3905 3906
M  V30 4371 1 3905 3910
M  V30 4372 1 3907 3906
M  V30 4373 1 3907 3915 CFG=1
M  V30 4374 1 3907 3908
M  V30 4375 1 3908 3909
M  V30 4376 1 3909 3914
M  V30 4377 2 3910 3909
M  V30 4378 1 3911 3910
M  V30 4379 2 3911 3912
M  V30 4380 1 3921 3911
M  V30 4381 1 3912 3925
M  V30 4382 1 3912 3913
M  V30 4383 1 3913 3923
M  V30 4384 2 3914 3913
M  V30 4385 1 3915 3920
M  V30 4386 2 3916 3915
M  V30 4387 1 3916 3917
M  V30 4388 2 3917 3918
M  V30 4389 1 3918 3919
M  V30 4390 2 3920 3919
M  V30 4391 1 3921 3922
M  V30 4392 1 3923 3924
M  V30 4393 1 3925 3926
M  V30 4394 2 3926 3931
M  V30 4395 1 3926 3927
M  V30 4396 2 3927 3928
M  V30 4397 1 3928 3929
M  V30 4398 2 3930 3929
M  V30 4399 1 3931 3930
M  V30 4400 1 3932 3931
M  V30 4401 1 3933 3932
M  V30 4402 2 3934 3935
M  V30 4403 1 3935 3936
M  V30 4404 1 3935 3940
M  V30 4405 1 3936 3937
M  V30 4406 1 3937 3945 CFG=1
M  V30 4407 1 3937 3938
M  V30 4408 1 3939 3938
M  V30 4409 1 3939 3944
M  V30 4410 2 3940 3939
M  V30 4411 1 3941 3940
M  V30 4412 2 3941 3942
M  V30 4413 1 3951 3941
M  V30 4414 1 3942 3943
M  V30 4415 1 3955 3942
M  V30 4416 2 3943 3944
M  V30 4417 1 3943 3953
M  V30 4418 1 3945 3946
M  V30 4419 2 3950 3945
M  V30 4420 2 3946 3947
M  V30 4421 1 3948 3947
M  V30 4422 2 3949 3948
M  V30 4423 1 3950 3949
M  V30 4424 1 3951 3952
M  V30 4425 1 3954 3953
M  V30 4426 1 3956 3955
M  V30 4427 1 3956 3957
M  V30 4428 2 3961 3956
M  V30 4429 2 3958 3957
M  V30 4430 1 3959 3958
M  V30 4431 2 3960 3959
M  V30 4432 1 3960 3961
M  V30 4433 1 3962 3961
M  V30 4434 1 3962 3963
M  V30 4435 2 3964 3965
M  V30 4436 1 3965 3970
M  V30 4437 1 3965 3966
M  V30 4438 1 3966 3967
M  V30 4439 1 3967 3975 CFG=6
M  V30 4440 1 3968 3967
M  V30 4441 1 3969 3968
M  V30 4442 1 3969 3974
M  V30 4443 2 3970 3969
M  V30 4444 1 3971 3970
M  V30 4445 2 3971 3972
M  V30 4446 1 3981 3971
M  V30 4447 1 3972 3973
M  V30 4448 1 3985 3972
M  V30 4449 1 3973 3983
M  V30 4450 2 3973 3974
M  V30 4451 1 3975 3976
M  V30 4452 2 3980 3975
M  V30 4453 2 3976 3977
M  V30 4454 1 3978 3977
M  V30 4455 2 3979 3978
M  V30 4456 1 3980 3979
M  V30 4457 1 3981 3982
M  V30 4458 1 3983 3984
M  V30 4459 1 3985 3986
M  V30 4460 1 3986 3991
M  V30 4461 2 3987 3986
M  V30 4462 1 3987 3988
M  V30 4463 2 3988 3989
M  V30 4464 1 3989 3990
M  V30 4465 2 3991 3990
M  V30 4466 1 3991 3992
M  V30 4467 1 3993 3992
M  V30 4468 2 3994 3995
M  V30 4469 1 3995 3996
M  V30 4470 1 3995 4000
M  V30 4471 1 3996 3997
M  V30 4472 1 3997 4005 CFG=1
M  V30 4473 1 3997 3998
M  V30 4474 1 3999 3998
M  V30 4475 1 3999 4004
M  V30 4476 2 4000 3999
M  V30 4477 1 4001 4000
M  V30 4478 2 4001 4002
M  V30 4479 1 4011 4001
M  V30 4480 1 4002 4003
M  V30 4481 1 4015 4002
M  V30 4482 2 4003 4004
M  V30 4483 1 4003 4013
M  V30 4484 1 4005 4010
M  V30 4485 2 4006 4005
M  V30 4486 1 4006 4007
M  V30 4487 2 4007 4008
M  V30 4488 1 4008 4009
M  V30 4489 2 4010 4009
M  V30 4490 1 4012 4011
M  V30 4491 1 4014 4013
M  V30 4492 1 4016 4015
M  V30 4493 1 4016 4017
M  V30 4494 2 4021 4016
M  V30 4495 2 4018 4017
M  V30 4496 1 4019 4018
M  V30 4497 2 4020 4019
M  V30 4498 1 4020 4021
M  V30 4499 1 4022 4021
M  V30 4500 1 4023 4022
M  V30 4501 1 4024 4043 CFG=6
M  V30 4502 1 4024 4025
M  V30 4503 1 4024 4041
M  V30 4504 1 4025 4026
M  V30 4505 1 4026 4027
M  V30 4506 1 4027 4042 CFG=6
M  V30 4507 1 4027 4032
M  V30 4508 1 4028 4027
M  V30 4509 2 4028 4029
M  V30 4510 1 4041 4028
M  V30 4511 1 4029 4030
M  V30 4512 2 4030 4031
M  V30 4513 1 4031 4036
M  V30 4514 1 4032 4031
M  V30 4515 1 4032 4033 CFG=6
M  V30 4516 1 4033 4034
M  V30 4517 1 4034 4035
M  V30 4518 1 4035 4040 CFG=6
M  V30 4519 1 4035 4039
M  V30 4520 1 4036 4035
M  V30 4521 1 4036 4037 CFG=1
M  V30 4522 1 4037 4038
M  V30 4523 1 4039 4038
M  V30 4524 1 4039 4045 CFG=6
M  V30 4525 1 4044 4043
M  V30 4526 1 4045 4046 CFG=6
M  V30 4527 1 4047 4045
M  V30 4528 2 4048 4047
M  V30 4529 1 4049 4048
M  V30 4530 1 4049 4050 CFG=6
M  V30 4531 1 4051 4049
M  V30 4532 1 4052 4051
M  V30 4533 1 4053 4051
M  V30 4534 1 4054 4073 CFG=6
M  V30 4535 1 4054 4055
M  V30 4536 1 4071 4054
M  V30 4537 1 4056 4055
M  V30 4538 1 4057 4056
M  V30 4539 1 4057 4072 CFG=6
M  V30 4540 1 4058 4057
M  V30 4541 1 4062 4057
M  V30 4542 1 4058 4071
M  V30 4543 2 4059 4058
M  V30 4544 1 4060 4059
M  V30 4545 2 4060 4061
M  V30 4546 1 4061 4062
M  V30 4547 1 4066 4061
M  V30 4548 1 4062 4063 CFG=6
M  V30 4549 1 4064 4063
M  V30 4550 1 4065 4064
M  V30 4551 1 4065 4070 CFG=6
M  V30 4552 1 4066 4065
M  V30 4553 1 4069 4065
M  V30 4554 1 4066 4067 CFG=6
M  V30 4555 1 4068 4067
M  V30 4556 1 4068 4069
M  V30 4557 1 4069 4075 CFG=6
M  V30 4558 1 4073 4074
M  V30 4559 1 4075 4076 CFG=6
M  V30 4560 1 4077 4075
M  V30 4561 2 4077 4078
M  V30 4562 1 4079 4078
M  V30 4563 1 4079 4081
M  V30 4564 1 4079 4080 CFG=1
M  V30 4565 1 4081 4083
M  V30 4566 1 4082 4081
M  V30 4567 1 4084 4103 CFG=6
M  V30 4568 1 4084 4101
M  V30 4569 1 4085 4084
M  V30 4570 1 4086 4085
M  V30 4571 1 4086 4087
M  V30 4572 1 4087 4102 CFG=6
M  V30 4573 1 4087 4092
M  V30 4574 1 4087 4088
M  V30 4575 1 4088 4101
M  V30 4576 2 4088 4089
M  V30 4577 1 4090 4089
M  V30 4578 2 4091 4090
M  V30 4579 1 4091 4096
M  V30 4580 1 4092 4091
M  V30 4581 1 4092 4093 CFG=6
M  V30 4582 1 4093 4094
M  V30 4583 1 4094 4095
M  V30 4584 1 4095 4100 CFG=6
M  V30 4585 1 4095 4099
M  V30 4586 1 4095 4096
M  V30 4587 1 4096 4097 CFG=1
M  V30 4588 1 4098 4097
M  V30 4589 1 4099 4098
M  V30 4590 1 4099 4105 CFG=6
M  V30 4591 1 4103 4104
M  V30 4592 1 4105 4106 CFG=1
M  V30 4593 1 4107 4105
M  V30 4594 2 4108 4107
M  V30 4595 1 4109 4108
M  V30 4596 1 4109 4110 CFG=1
M  V30 4597 1 4109 4111
M  V30 4598 1 4111 4112
M  V30 4599 1 4113 4111
M  V30 4600 1 4114 4133 CFG=6
M  V30 4601 1 4114 4131
M  V30 4602 1 4115 4114
M  V30 4603 1 4116 4115
M  V30 4604 1 4116 4117
M  V30 4605 1 4117 4132 CFG=6
M  V30 4606 1 4117 4122
M  V30 4607 1 4117 4118
M  V30 4608 1 4118 4131
M  V30 4609 2 4118 4119
M  V30 4610 1 4120 4119
M  V30 4611 2 4121 4120
M  V30 4612 1 4121 4126
M  V30 4613 1 4122 4121
M  V30 4614 1 4122 4123 CFG=6
M  V30 4615 1 4123 4124
M  V30 4616 1 4124 4125
M  V30 4617 1 4125 4130 CFG=6
M  V30 4618 1 4125 4129
M  V30 4619 1 4125 4126
M  V30 4620 1 4126 4127 CFG=1
M  V30 4621 1 4128 4127
M  V30 4622 1 4129 4128
M  V30 4623 1 4129 4135 CFG=6
M  V30 4624 1 4133 4134
M  V30 4625 1 4135 4136 CFG=6
M  V30 4626 1 4137 4135
M  V30 4627 2 4137 4138
M  V30 4628 1 4139 4138
M  V30 4629 1 4139 4140 CFG=6
M  V30 4630 1 4141 4139
M  V30 4631 1 4141 4143
M  V30 4632 1 4141 4142
M  V30 4633 1 4144 4163 CFG=6
M  V30 4634 1 4144 4161
M  V30 4635 1 4145 4144
M  V30 4636 1 4146 4145
M  V30 4637 1 4146 4147
M  V30 4638 1 4147 4162 CFG=6
M  V30 4639 1 4147 4152
M  V30 4640 1 4147 4148
M  V30 4641 1 4148 4161
M  V30 4642 2 4148 4149
M  V30 4643 1 4150 4149
M  V30 4644 2 4151 4150
M  V30 4645 1 4151 4156
M  V30 4646 1 4152 4151
M  V30 4647 1 4152 4153 CFG=6
M  V30 4648 1 4153 4154
M  V30 4649 1 4154 4155
M  V30 4650 1 4155 4160 CFG=6
M  V30 4651 1 4155 4159
M  V30 4652 1 4155 4156
M  V30 4653 1 4156 4157 CFG=6
M  V30 4654 1 4158 4157
M  V30 4655 1 4159 4158
M  V30 4656 1 4159 4165 CFG=6
M  V30 4657 1 4164 4163
M  V30 4658 1 4165 4166 CFG=1
M  V30 4659 1 4165 4167
M  V30 4660 2 4168 4167
M  V30 4661 1 4168 4169
M  V30 4662 1 4169 4170 CFG=6
M  V30 4663 1 4171 4169
M  V30 4664 1 4171 4172
M  V30 4665 1 4173 4171
M  V30 4666 1 4174 4193 CFG=6
M  V30 4667 1 4174 4191
M  V30 4668 1 4175 4174
M  V30 4669 1 4175 4176
M  V30 4670 1 4176 4177
M  V30 4671 1 4177 4192 CFG=6
M  V30 4672 1 4177 4182
M  V30 4673 1 4177 4178
M  V30 4674 2 4178 4179
M  V30 4675 1 4191 4178
M  V30 4676 1 4179 4180
M  V30 4677 2 4181 4180
M  V30 4678 1 4181 4186
M  V30 4679 1 4182 4181
M  V30 4680 1 4182 4183 CFG=6
M  V30 4681 1 4183 4184
M  V30 4682 1 4184 4185
M  V30 4683 1 4185 4190 CFG=6
M  V30 4684 1 4185 4186
M  V30 4685 1 4185 4189
M  V30 4686 1 4186 4187 CFG=1
M  V30 4687 1 4187 4188
M  V30 4688 1 4189 4188
M  V30 4689 1 4189 4195 CFG=6
M  V30 4690 1 4193 4194
M  V30 4691 1 4195 4196 CFG=1
M  V30 4692 1 4197 4195
M  V30 4693 2 4198 4197
M  V30 4694 1 4199 4198
M  V30 4695 1 4199 4200 CFG=1
M  V30 4696 1 4201 4199
M  V30 4697 1 4201 4202
M  V30 4698 1 4203 4201
M  V30 4699 1 4204 4205
M  V30 4700 1 4204 4223 CFG=1
M  V30 4701 1 4221 4204
M  V30 4702 1 4205 4206
M  V30 4703 1 4207 4206
M  V30 4704 1 4207 4222 CFG=1
M  V30 4705 1 4208 4207
M  V30 4706 1 4212 4207
M  V30 4707 2 4209 4208
M  V30 4708 1 4221 4208
M  V30 4709 1 4210 4209
M  V30 4710 2 4210 4211
M  V30 4711 1 4211 4212
M  V30 4712 1 4216 4211
M  V30 4713 1 4212 4213 CFG=1
M  V30 4714 1 4214 4213
M  V30 4715 1 4215 4214
M  V30 4716 1 4215 4220 CFG=1
M  V30 4717 1 4216 4215
M  V30 4718 1 4219 4215
M  V30 4719 1 4216 4217 CFG=1
M  V30 4720 1 4217 4218
M  V30 4721 1 4218 4219
M  V30 4722 1 4219 4225 CFG=1
M  V30 4723 1 4223 4224
M  V30 4724 1 4225 4226 CFG=6
M  V30 4725 1 4225 4227
M  V30 4726 2 4227 4228
M  V30 4727 1 4228 4229
M  V30 4728 1 4229 4230 CFG=6
M  V30 4729 1 4229 4231
M  V30 4730 1 4231 4233
M  V30 4731 1 4231 4232
M  V30 4732 1 4234 4253 CFG=1
M  V30 4733 1 4235 4234
M  V30 4734 1 4251 4234
M  V30 4735 1 4235 4236
M  V30 4736 1 4236 4237
M  V30 4737 1 4237 4252 CFG=1
M  V30 4738 1 4238 4237
M  V30 4739 1 4242 4237
M  V30 4740 2 4239 4238
M  V30 4741 1 4251 4238
M  V30 4742 1 4239 4240
M  V30 4743 2 4240 4241
M  V30 4744 1 4241 4242
M  V30 4745 1 4246 4241
M  V30 4746 1 4242 4243 CFG=1
M  V30 4747 1 4244 4243
M  V30 4748 1 4244 4245
M  V30 4749 1 4245 4250 CFG=1
M  V30 4750 1 4246 4245
M  V30 4751 1 4249 4245
M  V30 4752 1 4246 4247 CFG=1
M  V30 4753 1 4247 4248
M  V30 4754 1 4248 4249
M  V30 4755 1 4249 4255 CFG=1
M  V30 4756 1 4253 4254
M  V30 4757 1 4255 4256 CFG=6
M  V30 4758 1 4255 4257
M  V30 4759 2 4257 4258
M  V30 4760 1 4258 4259
M  V30 4761 1 4259 4260 CFG=6
M  V30 4762 1 4259 4261
M  V30 4763 1 4262 4261
M  V30 4764 1 4263 4261
M  V30 4765 1 4264 4283 CFG=6
M  V30 4766 1 4264 4281
M  V30 4767 1 4264 4265
M  V30 4768 1 4266 4265
M  V30 4769 1 4267 4266
M  V30 4770 1 4267 4282 CFG=6
M  V30 4771 1 4267 4268
M  V30 4772 1 4267 4272
M  V30 4773 2 4268 4269
M  V30 4774 1 4281 4268
M  V30 4775 1 4269 4270
M  V30 4776 2 4270 4271
M  V30 4777 1 4271 4272
M  V30 4778 1 4271 4276
M  V30 4779 1 4272 4273 CFG=6
M  V30 4780 1 4273 4274
M  V30 4781 1 4275 4274
M  V30 4782 1 4275 4280 CFG=6
M  V30 4783 1 4275 4276
M  V30 4784 1 4275 4279
M  V30 4785 1 4276 4277 CFG=6
M  V30 4786 1 4277 4278
M  V30 4787 1 4279 4278
M  V30 4788 1 4279 4285 CFG=6
M  V30 4789 1 4284 4283
M  V30 4790 1 4285 4286 CFG=6
M  V30 4791 1 4285 4287
M  V30 4792 2 4287 4288
M  V30 4793 1 4288 4289
M  V30 4794 1 4289 4290 CFG=1
M  V30 4795 1 4291 4289
M  V30 4796 1 4291 4293
M  V30 4797 1 4292 4291
M  V30 4798 1 4294 4295
M  V30 4799 1 4294 4308 CFG=1
M  V30 4800 1 4304 4294
M  V30 4801 1 4296 4295
M  V30 4802 1 4296 4297
M  V30 4803 2 4301 4296
M  V30 4804 2 4298 4297
M  V30 4805 1 4298 4313
M  V30 4806 1 4299 4298
M  V30 4807 2 4300 4299
M  V30 4808 1 4300 4301
M  V30 4809 1 4315 4300
M  V30 4810 1 4302 4301
M  V30 4811 1 4302 4304
M  V30 4812 2 4303 4302
M  V30 4813 1 4304 4317 CFG=6
M  V30 4814 1 4305 4311
M  V30 4815 1 4306 4305
M  V30 4816 2 4310 4305
M  V30 4817 2 4307 4306
M  V30 4818 1 4308 4307
M  V30 4819 2 4308 4309
M  V30 4820 1 4309 4310
M  V30 4821 1 4311 4312
M  V30 4822 1 4314 4313
M  V30 4823 1 4316 4315
M  V30 4824 1 4318 4317 CFG=1
M  V30 4825 1 4318 4319
M  V30 4826 1 4324 4318
M  V30 4827 1 4319 4320
M  V30 4828 1 4320 4321 CFG=6
M  V30 4829 1 4322 4320
M  V30 4830 1 4322 4329 CFG=1
M  V30 4831 1 4323 4322
M  V30 4832 1 4323 4327 CFG=6
M  V30 4833 1 4323 4324
M  V30 4834 1 4324 4325 CFG=6
M  V30 4835 1 4326 4325
M  V30 4836 1 4328 4327
M  V30 4837 1 4330 4329
M  V30 4838 1 4331 4345 CFG=1
M  V30 4839 1 4332 4331
M  V30 4840 1 4341 4331
M  V30 4841 1 4333 4332
M  V30 4842 1 4333 4334
M  V30 4843 2 4338 4333
M  V30 4844 2 4335 4334
M  V30 4845 1 4335 4350
M  V30 4846 1 4336 4335
M  V30 4847 2 4337 4336
M  V30 4848 1 4337 4338
M  V30 4849 1 4352 4337
M  V30 4850 1 4339 4338
M  V30 4851 1 4339 4341
M  V30 4852 2 4340 4339
M  V30 4853 1 4341 4354 CFG=6
M  V30 4854 1 4342 4348
M  V30 4855 2 4343 4342
M  V30 4856 1 4347 4342
M  V30 4857 1 4344 4343
M  V30 4858 2 4345 4344
M  V30 4859 1 4345 4346
M  V30 4860 2 4346 4347
M  V30 4861 1 4349 4348
M  V30 4862 1 4351 4350
M  V30 4863 1 4352 4353
M  V30 4864 1 4355 4354 CFG=1
M  V30 4865 1 4355 4356
M  V30 4866 1 4361 4355
M  V30 4867 1 4357 4356
M  V30 4868 1 4357 4358 CFG=1
M  V30 4869 1 4359 4357
M  V30 4870 1 4359 4366 CFG=1
M  V30 4871 1 4360 4359
M  V30 4872 1 4360 4364 CFG=1
M  V30 4873 1 4360 4361
M  V30 4874 1 4361 4362 CFG=6
M  V30 4875 1 4363 4362
M  V30 4876 1 4365 4364
M  V30 4877 1 4367 4366
M  V30 4878 1 4368 4382 CFG=6
M  V30 4879 1 4369 4368
M  V30 4880 1 4378 4368
M  V30 4881 1 4370 4369
M  V30 4882 1 4370 4375
M  V30 4883 2 4371 4370
M  V30 4884 1 4372 4371
M  V30 4885 2 4372 4373
M  V30 4886 1 4387 4372
M  V30 4887 1 4373 4374
M  V30 4888 2 4374 4375
M  V30 4889 1 4374 4389
M  V30 4890 1 4375 4376
M  V30 4891 2 4376 4377
M  V30 4892 1 4378 4376
M  V30 4893 1 4378 4391 CFG=6
M  V30 4894 1 4379 4380
M  V30 4895 2 4384 4379
M  V30 4896 1 4385 4379
M  V30 4897 2 4380 4381
M  V30 4898 1 4382 4381
M  V30 4899 2 4383 4382
M  V30 4900 1 4384 4383
M  V30 4901 1 4386 4385
M  V30 4902 1 4388 4387
M  V30 4903 1 4390 4389
M  V30 4904 1 4392 4391 CFG=6
M  V30 4905 1 4393 4392
M  V30 4906 1 4398 4392
M  V30 4907 1 4394 4393
M  V30 4908 1 4394 4395 CFG=6
M  V30 4909 1 4396 4394
M  V30 4910 1 4396 4403 CFG=6
M  V30 4911 1 4396 4397
M  V30 4912 1 4397 4401 CFG=1
M  V30 4913 1 4397 4398
M  V30 4914 1 4398 4399 CFG=1
M  V30 4915 1 4400 4399
M  V30 4916 1 4402 4401
M  V30 4917 1 4404 4403
M  V30 4918 1 4405 4419 CFG=1
M  V30 4919 1 4405 4406
M  V30 4920 1 4415 4405
M  V30 4921 1 4406 4407
M  V30 4922 1 4407 4408
M  V30 4923 2 4412 4407
M  V30 4924 2 4408 4409
M  V30 4925 1 4409 4424
M  V30 4926 1 4410 4409
M  V30 4927 2 4411 4410
M  V30 4928 1 4412 4411
M  V30 4929 1 4426 4411
M  V30 4930 1 4413 4412
M  V30 4931 2 4414 4413
M  V30 4932 1 4415 4413
M  V30 4933 1 4415 4428 CFG=1
M  V30 4934 1 4416 4417
M  V30 4935 2 4421 4416
M  V30 4936 1 4422 4416
M  V30 4937 2 4417 4418
M  V30 4938 1 4419 4418
M  V30 4939 2 4420 4419
M  V30 4940 1 4421 4420
M  V30 4941 1 4422 4423
M  V30 4942 1 4424 4425
M  V30 4943 1 4427 4426
M  V30 4944 1 4429 4428 CFG=1
M  V30 4945 1 4429 4435
M  V30 4946 1 4430 4429
M  V30 4947 1 4430 4431
M  V30 4948 1 4431 4432 CFG=6
M  V30 4949 1 4433 4431
M  V30 4950 1 4433 4440 CFG=1
M  V30 4951 1 4434 4433
M  V30 4952 1 4434 4438 CFG=6
M  V30 4953 1 4434 4435
M  V30 4954 1 4435 4436 CFG=6
M  V30 4955 1 4436 4437
M  V30 4956 1 4439 4438
M  V30 4957 1 4440 4441
M  V30 4958 1 4442 4443
M  V30 4959 1 4442 4456 CFG=1
M  V30 4960 1 4452 4442
M  V30 4961 1 4444 4443
M  V30 4962 1 4444 4445
M  V30 4963 2 4449 4444
M  V30 4964 2 4446 4445
M  V30 4965 1 4446 4461
M  V30 4966 1 4447 4446
M  V30 4967 2 4448 4447
M  V30 4968 1 4448 4449
M  V30 4969 1 4463 4448
M  V30 4970 1 4450 4449
M  V30 4971 1 4450 4452
M  V30 4972 2 4451 4450
M  V30 4973 1 4452 4465 CFG=6
M  V30 4974 1 4453 4454
M  V30 4975 1 4453 4459
M  V30 4976 2 4458 4453
M  V30 4977 2 4455 4454
M  V30 4978 1 4456 4455
M  V30 4979 2 4457 4456
M  V30 4980 1 4457 4458
M  V30 4981 1 4460 4459
M  V30 4982 1 4462 4461
M  V30 4983 1 4464 4463
M  V30 4984 1 4466 4465 CFG=1
M  V30 4985 1 4467 4466
M  V30 4986 1 4472 4466
M  V30 4987 1 4467 4468
M  V30 4988 1 4468 4469 CFG=6
M  V30 4989 1 4470 4468
M  V30 4990 1 4470 4477 CFG=1
M  V30 4991 1 4471 4470
M  V30 4992 1 4471 4475 CFG=6
M  V30 4993 1 4471 4472
M  V30 4994 1 4472 4473 CFG=6
M  V30 4995 1 4473 4474
M  V30 4996 1 4476 4475
M  V30 4997 1 4477 4478
M  V30 4998 1 4479 4493 CFG=6
M  V30 4999 1 4479 4480
M  V30 5000 1 4479 4489
M  V30 5001 1 4480 4481
M  V30 5002 2 4481 4482
M  V30 5003 1 4481 4486
M  V30 5004 1 4482 4483
M  V30 5005 1 4483 4498
M  V30 5006 2 4483 4484
M  V30 5007 1 4485 4484
M  V30 5008 1 4485 4500
M  V30 5009 2 4486 4485
M  V30 5010 1 4487 4486
M  V30 5011 2 4487 4488
M  V30 5012 1 4489 4487
M  V30 5013 1 4489 4502 CFG=6
M  V30 5014 2 4490 4495
M  V30 5015 1 4490 4491
M  V30 5016 1 4496 4490
M  V30 5017 2 4491 4492
M  V30 5018 1 4492 4493
M  V30 5019 2 4494 4493
M  V30 5020 1 4495 4494
M  V30 5021 1 4497 4496
M  V30 5022 1 4498 4499
M  V30 5023 1 4500 4501
M  V30 5024 1 4503 4502 CFG=6
M  V30 5025 1 4504 4503
M  V30 5026 1 4509 4503
M  V30 5027 1 4505 4504
M  V30 5028 1 4505 4506 CFG=1
M  V30 5029 1 4507 4505
M  V30 5030 1 4507 4514 CFG=6
M  V30 5031 1 4507 4508
M  V30 5032 1 4508 4509
M  V30 5033 1 4508 4512 CFG=1
M  V30 5034 1 4509 4510 CFG=1
M  V30 5035 1 4511 4510
M  V30 5036 1 4512 4513
M  V30 5037 1 4515 4514
M  V30 5038 1 4516 4530 CFG=1
M  V30 5039 1 4516 4517
M  V30 5040 1 4516 4526
M  V30 5041 1 4517 4518
M  V30 5042 1 4518 4523
M  V30 5043 2 4519 4518
M  V30 5044 1 4519 4520
M  V30 5045 2 4520 4521
M  V30 5046 1 4535 4520
M  V30 5047 1 4521 4522
M  V30 5048 1 4522 4537
M  V30 5049 2 4523 4522
M  V30 5050 1 4523 4524
M  V30 5051 2 4524 4525
M  V30 5052 1 4526 4524
M  V30 5053 1 4526 4539 CFG=1
M  V30 5054 2 4527 4528
M  V30 5055 1 4527 4532
M  V30 5056 1 4533 4527
M  V30 5057 1 4528 4529
M  V30 5058 2 4529 4530
M  V30 5059 1 4531 4530
M  V30 5060 2 4532 4531
M  V30 5061 1 4534 4533
M  V30 5062 1 4535 4536
M  V30 5063 1 4538 4537
M  V30 5064 1 4540 4539 CFG=6
M  V30 5065 1 4540 4546
M  V30 5066 1 4541 4540
M  V30 5067 1 4542 4541
M  V30 5068 1 4542 4543 CFG=1
M  V30 5069 1 4542 4544
M  V30 5070 1 4544 4551 CFG=6
M  V30 5071 1 4544 4545
M  V30 5072 1 4545 4549 CFG=1
M  V30 5073 1 4546 4545
M  V30 5074 1 4546 4547 CFG=1
M  V30 5075 1 4547 4548
M  V30 5076 1 4550 4549
M  V30 5077 1 4551 4552
M  V30 5078 1 4553 4554
M  V30 5079 1 4553 4567 CFG=1
M  V30 5080 1 4563 4553
M  V30 5081 1 4555 4554
M  V30 5082 1 4555 4556
M  V30 5083 2 4560 4555
M  V30 5084 2 4557 4556
M  V30 5085 1 4557 4572
M  V30 5086 1 4558 4557
M  V30 5087 2 4559 4558
M  V30 5088 1 4559 4560
M  V30 5089 1 4574 4559
M  V30 5090 1 4561 4560
M  V30 5091 1 4561 4563
M  V30 5092 2 4562 4561
M  V30 5093 1 4563 4576 CFG=1
M  V30 5094 1 4564 4569
M  V30 5095 1 4564 4570
M  V30 5096 2 4565 4564
M  V30 5097 1 4566 4565
M  V30 5098 2 4566 4567
M  V30 5099 1 4567 4568
M  V30 5100 2 4568 4569
M  V30 5101 1 4570 4571
M  V30 5102 1 4572 4573
M  V30 5103 1 4574 4575
M  V30 5104 1 4577 4576 CFG=1
M  V30 5105 1 4577 4578
M  V30 5106 1 4583 4577
M  V30 5107 1 4578 4579
M  V30 5108 1 4579 4580 CFG=1
M  V30 5109 1 4581 4579
M  V30 5110 1 4581 4588 CFG=6
M  V30 5111 1 4582 4581
M  V30 5112 1 4582 4586 CFG=1
M  V30 5113 1 4583 4582
M  V30 5114 1 4583 4584 CFG=6
M  V30 5115 1 4585 4584
M  V30 5116 1 4587 4586
M  V30 5117 1 4589 4588
M  V30 5118 1 4590 4604 CFG=6
M  V30 5119 1 4590 4600
M  V30 5120 1 4591 4590
M  V30 5121 1 4592 4591
M  V30 5122 1 4592 4597
M  V30 5123 2 4593 4592
M  V30 5124 1 4594 4593
M  V30 5125 2 4594 4595
M  V30 5126 1 4609 4594
M  V30 5127 1 4595 4596
M  V30 5128 2 4596 4597
M  V30 5129 1 4596 4611
M  V30 5130 1 4597 4598
M  V30 5131 1 4598 4600
M  V30 5132 2 4598 4599
M  V30 5133 1 4600 4613 CFG=6
M  V30 5134 1 4601 4607
M  V30 5135 1 4601 4602
M  V30 5136 2 4606 4601
M  V30 5137 2 4603 4602
M  V30 5138 1 4604 4603
M  V30 5139 2 4605 4604
M  V30 5140 1 4605 4606
M  V30 5141 1 4608 4607
M  V30 5142 1 4610 4609
M  V30 5143 1 4612 4611
M  V30 5144 1 4614 4613 CFG=6
M  V30 5145 1 4614 4615
M  V30 5146 1 4620 4614
M  V30 5147 1 4616 4615
M  V30 5148 1 4616 4617 CFG=1
M  V30 5149 1 4618 4616
M  V30 5150 1 4618 4625 CFG=6
M  V30 5151 1 4618 4619
M  V30 5152 1 4619 4623 CFG=1
M  V30 5153 1 4620 4619
M  V30 5154 1 4620 4621 CFG=1
M  V30 5155 1 4622 4621
M  V30 5156 1 4623 4624
M  V30 5157 1 4625 4626
M  V30 5158 1 4627 4628
M  V30 5159 2 4632 4627
M  V30 5160 1 4652 4627
M  V30 5161 2 4628 4629
M  V30 5162 1 4630 4629
M  V30 5163 2 4631 4630
M  V30 5164 1 4632 4631
M  V30 5165 1 4643 4631
M  V30 5166 1 4633 4632
M  V30 5167 1 4633 4634
M  V30 5168 2 4641 4633
M  V30 5169 1 4634 4635
M  V30 5170 2 4638 4634
M  V30 5171 1 4636 4635
M  V30 5172 1 4637 4636
M  V30 5173 1 4638 4637
M  V30 5174 1 4639 4638
M  V30 5175 2 4640 4639
M  V30 5176 1 4640 4641
M  V30 5177 1 4650 4640
M  V30 5178 1 4642 4641
M  V30 5179 2 4642 4643
M  V30 5180 1 4648 4642
M  V30 5181 1 4644 4643
M  V30 5182 2 4644 4645
M  V30 5183 1 4646 4644
M  V30 5184 2 4647 4646
M  V30 5185 1 4648 4646
M  V30 5186 1 4649 4648
M  V30 5187 2 4650 4649
M  V30 5188 1 4651 4652
M  V30 5189 1 4653 4678
M  V30 5190 2 4654 4653
M  V30 5191 1 4658 4653
M  V30 5192 1 4655 4654
M  V30 5193 2 4656 4655
M  V30 5194 1 4656 4657
M  V30 5195 1 4657 4658
M  V30 5196 2 4669 4657
M  V30 5197 2 4658 4659
M  V30 5198 1 4659 4660
M  V30 5199 1 4667 4659
M  V30 5200 2 4660 4664
M  V30 5201 1 4660 4661
M  V30 5202 1 4661 4662
M  V30 5203 1 4663 4662
M  V30 5204 1 4664 4663
M  V30 5205 1 4665 4664
M  V30 5206 2 4666 4665
M  V30 5207 1 4667 4666
M  V30 5208 1 4676 4666
M  V30 5209 2 4668 4667
M  V30 5210 1 4669 4668
M  V30 5211 1 4674 4668
M  V30 5212 1 4670 4669
M  V30 5213 1 4670 4672
M  V30 5214 2 4671 4670
M  V30 5215 1 4672 4674
M  V30 5216 2 4673 4672
M  V30 5217 1 4674 4675
M  V30 5218 2 4675 4676
M  V30 5219 1 4678 4677
M  V30 5220 2 4679 4680
M  V30 5221 1 4679 4684
M  V30 5222 1 4704 4679
M  V30 5223 1 4680 4681
M  V30 5224 2 4681 4682
M  V30 5225 1 4683 4682
M  V30 5226 1 4683 4695
M  V30 5227 2 4684 4683
M  V30 5228 1 4685 4684
M  V30 5229 1 4685 4693
M  V30 5230 2 4686 4685
M  V30 5231 1 4687 4686
M  V30 5232 1 4690 4686
M  V30 5233 1 4688 4687
M  V30 5234 1 4688 4689
M  V30 5235 1 4689 4690
M  V30 5236 2 4690 4691
M  V30 5237 1 4691 4692
M  V30 5238 2 4692 4693
M  V30 5239 1 4692 4702
M  V30 5240 1 4693 4694
M  V30 5241 2 4694 4695
M  V30 5242 1 4694 4700
M  V30 5243 1 4695 4696
M  V30 5244 1 4696 4698
M  V30 5245 2 4696 4697
M  V30 5246 2 4698 4699
M  V30 5247 1 4700 4698
M  V30 5248 1 4700 4701
M  V30 5249 2 4702 4701
M  V30 5250 1 4703 4704
M  V30 5251 2 4705 4710
M  V30 5252 1 4705 4706
M  V30 5253 1 4730 4705
M  V30 5254 2 4706 4707
M  V30 5255 1 4707 4708
M  V30 5256 2 4709 4708
M  V30 5257 1 4709 4721
M  V30 5258 1 4710 4709
M  V30 5259 1 4711 4710
M  V30 5260 1 4711 4719
M  V30 5261 2 4712 4711
M  V30 5262 1 4713 4712
M  V30 5263 1 4716 4712
M  V30 5264 1 4714 4713
M  V30 5265 1 4714 4715
M  V30 5266 1 4715 4716
M  V30 5267 2 4716 4717
M  V30 5268 1 4717 4718
M  V30 5269 1 4718 4728
M  V30 5270 2 4718 4719
M  V30 5271 1 4719 4720
M  V30 5272 1 4720 4726
M  V30 5273 2 4720 4721
M  V30 5274 1 4721 4722
M  V30 5275 2 4722 4723
M  V30 5276 1 4724 4722
M  V30 5277 2 4724 4725
M  V30 5278 1 4726 4724
M  V30 5279 1 4727 4726
M  V30 5280 2 4728 4727
M  V30 5281 1 4730 4729
M  V30 5282 1 4731 4756
M  V30 5283 1 4732 4731
M  V30 5284 2 4736 4731
M  V30 5285 2 4733 4732
M  V30 5286 1 4734 4733
M  V30 5287 2 4734 4735
M  V30 5288 1 4735 4736
M  V30 5289 1 4747 4735
M  V30 5290 1 4736 4737
M  V30 5291 1 4737 4738
M  V30 5292 2 4745 4737
M  V30 5293 1 4738 4739
M  V30 5294 2 4738 4742
M  V30 5295 1 4739 4740
M  V30 5296 1 4740 4741
M  V30 5297 1 4742 4741
M  V30 5298 1 4743 4742
M  V30 5299 2 4744 4743
M  V30 5300 1 4745 4744
M  V30 5301 1 4754 4744
M  V30 5302 1 4746 4745
M  V30 5303 2 4747 4746
M  V30 5304 1 4752 4746
M  V30 5305 1 4748 4747
M  V30 5306 1 4748 4750
M  V30 5307 2 4749 4748
M  V30 5308 1 4750 4752
M  V30 5309 2 4751 4750
M  V30 5310 1 4752 4753
M  V30 5311 2 4753 4754
M  V30 5312 1 4756 4755
M  V30 5313 1 4757 4762
M  V30 5314 2 4758 4757
M  V30 5315 1 4782 4757
M  V30 5316 1 4758 4759
M  V30 5317 2 4759 4760
M  V30 5318 1 4760 4761
M  V30 5319 1 4761 4773
M  V30 5320 2 4762 4761
M  V30 5321 1 4762 4763
M  V30 5322 1 4763 4771
M  V30 5323 2 4764 4763
M  V30 5324 1 4764 4768
M  V30 5325 1 4765 4764
M  V30 5326 1 4766 4765
M  V30 5327 1 4766 4767
M  V30 5328 1 4767 4768
M  V30 5329 2 4768 4769
M  V30 5330 1 4769 4770
M  V30 5331 1 4770 4780
M  V30 5332 2 4771 4770
M  V30 5333 1 4771 4772
M  V30 5334 1 4772 4778
M  V30 5335 2 4773 4772
M  V30 5336 1 4773 4774
M  V30 5337 2 4774 4775
M  V30 5338 1 4774 4776
M  V30 5339 2 4776 4777
M  V30 5340 1 4778 4776
M  V30 5341 1 4778 4779
M  V30 5342 2 4780 4779
M  V30 5343 1 4781 4782
M  V30 5344 1 4783 4788
M  V30 5345 2 4784 4783
M  V30 5346 1 4808 4783
M  V30 5347 1 4785 4784
M  V30 5348 2 4785 4786
M  V30 5349 1 4786 4787
M  V30 5350 2 4787 4799
M  V30 5351 1 4787 4788
M  V30 5352 2 4788 4789
M  V30 5353 1 4789 4797
M  V30 5354 1 4789 4790
M  V30 5355 1 4790 4791
M  V30 5356 2 4790 4794
M  V30 5357 1 4791 4792
M  V30 5358 1 4792 4793
M  V30 5359 1 4794 4793
M  V30 5360 1 4795 4794
M  V30 5361 2 4796 4795
M  V30 5362 1 4796 4806
M  V30 5363 1 4797 4796
M  V30 5364 2 4798 4797
M  V30 5365 1 4798 4804
M  V30 5366 1 4799 4798
M  V30 5367 1 4800 4799
M  V30 5368 1 4800 4802
M  V30 5369 2 4801 4800
M  V30 5370 1 4802 4804
M  V30 5371 2 4803 4802
M  V30 5372 1 4804 4805
M  V30 5373 2 4805 4806
M  V30 5374 1 4808 4807
M  V30 5375 1 4809 4834
M  V30 5376 1 4809 4810
M  V30 5377 2 4814 4809
M  V30 5378 2 4811 4810
M  V30 5379 1 4812 4811
M  V30 5380 2 4813 4812
M  V30 5381 1 4813 4814
M  V30 5382 1 4825 4813
M  V30 5383 1 4815 4814
M  V30 5384 1 4815 4816
M  V30 5385 2 4823 4815
M  V30 5386 1 4816 4817
M  V30 5387 2 4820 4816
M  V30 5388 1 4818 4817
M  V30 5389 1 4819 4818
M  V30 5390 1 4820 4819
M  V30 5391 1 4821 4820
M  V30 5392 2 4822 4821
M  V30 5393 1 4822 4823
M  V30 5394 1 4832 4822
M  V30 5395 1 4824 4823
M  V30 5396 2 4824 4825
M  V30 5397 1 4830 4824
M  V30 5398 1 4826 4825
M  V30 5399 2 4826 4827
M  V30 5400 1 4828 4826
M  V30 5401 1 4828 4830
M  V30 5402 2 4829 4828
M  V30 5403 1 4831 4830
M  V30 5404 2 4831 4832
M  V30 5405 1 4834 4833
M  V30 5406 1 4835 4840
M  V30 5407 2 4836 4835
M  V30 5408 1 4860 4835
M  V30 5409 1 4836 4837
M  V30 5410 2 4837 4838
M  V30 5411 1 4838 4839
M  V30 5412 2 4839 4840
M  V30 5413 1 4839 4851
M  V30 5414 1 4840 4841
M  V30 5415 2 4841 4842
M  V30 5416 1 4841 4849
M  V30 5417 1 4842 4846
M  V30 5418 1 4843 4842
M  V30 5419 1 4843 4844
M  V30 5420 1 4844 4845
M  V30 5421 1 4846 4845
M  V30 5422 2 4846 4847
M  V30 5423 1 4848 4847
M  V30 5424 1 4848 4858
M  V30 5425 2 4849 4848
M  V30 5426 1 4850 4849
M  V30 5427 1 4850 4856
M  V30 5428 2 4851 4850
M  V30 5429 1 4851 4852
M  V30 5430 1 4852 4854
M  V30 5431 2 4853 4852
M  V30 5432 2 4854 4855
M  V30 5433 1 4854 4856
M  V30 5434 1 4856 4857
M  V30 5435 2 4857 4858
M  V30 5436 1 4859 4860
M  V30 5437 1 4861 4891
M  V30 5438 2 4862 4861
M  V30 5439 1 4873 4861
M  V30 5440 1 4862 4867
M  V30 5441 1 4863 4862
M  V30 5442 1 4864 4863
M  V30 5443 2 4871 4863
M  V30 5444 1 4864 4865
M  V30 5445 1 4865 4870 CFG=6
M  V30 5446 1 4865 4866
M  V30 5447 1 4866 4869
M  V30 5448 1 4866 4874
M  V30 5449 1 4867 4866
M  V30 5450 1 4867 4868 CFG=6
M  V30 5451 1 4871 4872
M  V30 5452 2 4872 4873
M  V30 5453 1 4892 4872
M  V30 5454 1 4873 4875
M  V30 5455 1 4875 4876
M  V30 5456 2 4881 4875
M  V30 5457 2 4876 4878
M  V30 5458 1 4876 4877
M  V30 5459 1 4879 4878
M  V30 5460 1 4879 4885
M  V30 5461 2 4880 4879
M  V30 5462 1 4881 4880
M  V30 5463 1 4882 4880
M  V30 5464 1 4886 4881
M  V30 5465 2 4882 4883
M  V30 5466 1 4888 4882
M  V30 5467 1 4883 4884
M  V30 5468 2 4884 4885
M  V30 5469 1 4887 4886
M  V30 5470 1 4889 4888
M  V30 5471 1 4890 4891
M  V30 5472 1 4892 4893
M  V30 5473 2 4894 4895
M  V30 5474 1 4894 4906
M  V30 5475 1 4924 4894
M  V30 5476 1 4895 4896
M  V30 5477 1 4900 4895
M  V30 5478 2 4896 4904
M  V30 5479 1 4896 4897
M  V30 5480 1 4898 4897
M  V30 5481 1 4898 4903 CFG=1
M  V30 5482 1 4899 4898
M  V30 5483 1 4900 4899
M  V30 5484 1 4902 4899
M  V30 5485 1 4907 4899
M  V30 5486 1 4900 4901 CFG=1
M  V30 5487 1 4905 4904
M  V30 5488 1 4905 4925
M  V30 5489 2 4906 4905
M  V30 5490 1 4908 4906
M  V30 5491 1 4908 4914
M  V30 5492 2 4909 4908
M  V30 5493 1 4910 4909
M  V30 5494 1 4911 4909
M  V30 5495 2 4911 4912
M  V30 5496 1 4912 4913
M  V30 5497 1 4918 4912
M  V30 5498 1 4913 4915
M  V30 5499 2 4913 4914
M  V30 5500 1 4914 4919
M  V30 5501 1 4915 4921
M  V30 5502 2 4916 4915
M  V30 5503 1 4917 4916
M  V30 5504 2 4918 4917
M  V30 5505 1 4919 4920
M  V30 5506 1 4922 4921
M  V30 5507 1 4923 4924
M  V30 5508 1 4925 4926
M  V30 5509 1 4927 4957
M  V30 5510 1 4928 4927
M  V30 5511 2 4939 4927
M  V30 5512 1 4928 4933
M  V30 5513 2 4929 4928
M  V30 5514 1 4930 4929
M  V30 5515 1 4937 4929
M  V30 5516 1 4930 4931
M  V30 5517 1 4931 4936 CFG=1
M  V30 5518 1 4931 4932
M  V30 5519 1 4932 4933
M  V30 5520 1 4932 4935
M  V30 5521 1 4940 4932
M  V30 5522 1 4933 4934 CFG=6
M  V30 5523 2 4937 4938
M  V30 5524 1 4938 4939
M  V30 5525 1 4958 4938
M  V30 5526 1 4939 4941
M  V30 5527 1 4941 4942
M  V30 5528 2 4947 4941
M  V30 5529 2 4942 4944
M  V30 5530 1 4942 4943
M  V30 5531 1 4945 4944
M  V30 5532 1 4945 4951
M  V30 5533 2 4946 4945
M  V30 5534 1 4947 4946
M  V30 5535 1 4948 4946
M  V30 5536 1 4952 4947
M  V30 5537 2 4948 4949
M  V30 5538 1 4954 4948
M  V30 5539 1 4949 4950
M  V30 5540 2 4950 4951
M  V30 5541 1 4952 4953
M  V30 5542 1 4954 4955
M  V30 5543 1 4957 4956
M  V30 5544 1 4959 4958
M  V30 5545 2 4960 4961
M  V30 5546 1 4960 4972
M  V30 5547 1 4990 4960
M  V30 5548 1 4961 4962
M  V30 5549 1 4966 4961
M  V30 5550 1 4962 4963
M  V30 5551 2 4962 4970
M  V30 5552 1 4964 4963
M  V30 5553 1 4964 4969 CFG=6
M  V30 5554 1 4965 4964
M  V30 5555 1 4965 4973
M  V30 5556 1 4966 4965
M  V30 5557 1 4968 4965
M  V30 5558 1 4966 4967 CFG=1
M  V30 5559 1 4971 4970
M  V30 5560 1 4971 4991
M  V30 5561 2 4972 4971
M  V30 5562 1 4974 4972
M  V30 5563 1 4974 4975
M  V30 5564 2 4980 4974
M  V30 5565 1 4975 4976
M  V30 5566 2 4977 4975
M  V30 5567 1 4978 4977
M  V30 5568 1 4979 4978
M  V30 5569 2 4984 4978
M  V30 5570 1 4979 4980
M  V30 5571 2 4981 4979
M  V30 5572 1 4985 4980
M  V30 5573 1 4982 4981
M  V30 5574 1 4987 4981
M  V30 5575 2 4982 4983
M  V30 5576 1 4983 4984
M  V30 5577 1 4986 4985
M  V30 5578 1 4987 4988
M  V30 5579 1 4989 4990
M  V30 5580 1 4991 4992
M  V30 5581 1 4993 5005
M  V30 5582 2 4994 4993
M  V30 5583 1 5023 4993
M  V30 5584 1 4994 4995
M  V30 5585 1 4999 4994
M  V30 5586 2 4995 5003
M  V30 5587 1 4996 4995
M  V30 5588 1 4997 4996
M  V30 5589 1 4997 5002 CFG=1
M  V30 5590 1 4998 4997
M  V30 5591 1 4998 4999
M  V30 5592 1 5001 4998
M  V30 5593 1 5006 4998
M  V30 5594 1 4999 5000 CFG=1
M  V30 5595 1 5003 5004
M  V30 5596 1 5004 5024
M  V30 5597 2 5005 5004
M  V30 5598 1 5005 5007
M  V30 5599 1 5007 5013
M  V30 5600 2 5008 5007
M  V30 5601 1 5008 5010
M  V30 5602 1 5009 5008
M  V30 5603 2 5010 5011
M  V30 5604 1 5011 5017
M  V30 5605 1 5011 5012
M  V30 5606 1 5012 5014
M  V30 5607 2 5013 5012
M  V30 5608 1 5013 5018
M  V30 5609 2 5014 5015
M  V30 5610 1 5014 5020
M  V30 5611 1 5016 5015
M  V30 5612 2 5017 5016
M  V30 5613 1 5019 5018
M  V30 5614 1 5020 5021
M  V30 5615 1 5022 5023
M  V30 5616 1 5024 5025
M  V30 5617 2 5026 5027
M  V30 5618 1 5026 5038
M  V30 5619 1 5056 5026
M  V30 5620 1 5027 5028
M  V30 5621 1 5032 5027
M  V30 5622 1 5028 5029
M  V30 5623 2 5028 5036
M  V30 5624 1 5030 5029
M  V30 5625 1 5030 5035 CFG=6
M  V30 5626 1 5031 5030
M  V30 5627 1 5031 5039
M  V30 5628 1 5032 5031
M  V30 5629 1 5034 5031
M  V30 5630 1 5032 5033 CFG=1
M  V30 5631 1 5037 5036
M  V30 5632 1 5037 5057
M  V30 5633 2 5038 5037
M  V30 5634 1 5040 5038
M  V30 5635 1 5041 5040
M  V30 5636 2 5046 5040
M  V30 5637 1 5041 5042
M  V30 5638 2 5043 5041
M  V30 5639 1 5044 5043
M  V30 5640 1 5044 5045
M  V30 5641 2 5050 5044
M  V30 5642 1 5045 5046
M  V30 5643 2 5047 5045
M  V30 5644 1 5046 5051
M  V30 5645 1 5047 5053
M  V30 5646 1 5048 5047
M  V30 5647 2 5049 5048
M  V30 5648 1 5049 5050
M  V30 5649 1 5052 5051
M  V30 5650 1 5054 5053
M  V30 5651 1 5055 5056
M  V30 5652 1 5057 5058
M  V30 5653 1 5059 5060
M  V30 5654 1 5059 5089
M  V30 5655 2 5071 5059
M  V30 5656 1 5060 5065
M  V30 5657 2 5061 5060
M  V30 5658 1 5061 5062
M  V30 5659 1 5069 5061
M  V30 5660 1 5062 5063
M  V30 5661 1 5063 5068 CFG=1
M  V30 5662 1 5063 5064
M  V30 5663 1 5064 5065
M  V30 5664 1 5064 5067
M  V30 5665 1 5072 5064
M  V30 5666 1 5065 5066 CFG=6
M  V30 5667 2 5070 5069
M  V30 5668 1 5070 5071
M  V30 5669 1 5090 5070
M  V30 5670 1 5073 5071
M  V30 5671 1 5073 5079
M  V30 5672 2 5074 5073
M  V30 5673 1 5075 5074
M  V30 5674 1 5076 5074
M  V30 5675 2 5076 5077
M  V30 5676 1 5077 5078
M  V30 5677 1 5083 5077
M  V30 5678 2 5078 5079
M  V30 5679 1 5078 5080
M  V30 5680 1 5079 5084
M  V30 5681 1 5080 5086
M  V30 5682 2 5081 5080
M  V30 5683 1 5082 5081
M  V30 5684 2 5083 5082
M  V30 5685 1 5085 5084
M  V30 5686 1 5086 5087
M  V30 5687 1 5089 5088
M  V30 5688 1 5091 5090
M  V30 5689 1 5092 5104
M  V30 5690 2 5093 5092
M  V30 5691 1 5122 5092
M  V30 5692 1 5093 5094
M  V30 5693 1 5098 5093
M  V30 5694 2 5094 5102
M  V30 5695 1 5095 5094
M  V30 5696 1 5096 5095
M  V30 5697 1 5096 5101 CFG=1
M  V30 5698 1 5097 5096
M  V30 5699 1 5097 5098
M  V30 5700 1 5100 5097
M  V30 5701 1 5105 5097
M  V30 5702 1 5098 5099 CFG=1
M  V30 5703 1 5102 5103
M  V30 5704 1 5103 5123
M  V30 5705 2 5104 5103
M  V30 5706 1 5104 5106
M  V30 5707 1 5106 5107
M  V30 5708 2 5112 5106
M  V30 5709 2 5107 5109
M  V30 5710 1 5107 5108
M  V30 5711 1 5110 5109
M  V30 5712 1 5110 5116
M  V30 5713 2 5111 5110
M  V30 5714 1 5112 5111
M  V30 5715 1 5113 5111
M  V30 5716 1 5117 5112
M  V30 5717 2 5113 5114
M  V30 5718 1 5119 5113
M  V30 5719 1 5114 5115
M  V30 5720 2 5115 5116
M  V30 5721 1 5118 5117
M  V30 5722 1 5120 5119
M  V30 5723 1 5121 5122
M  V30 5724 1 5124 5123
M  V30 5725 1 5125 5155
M  V30 5726 1 5126 5125
M  V30 5727 2 5137 5125
M  V30 5728 1 5126 5131
M  V30 5729 2 5127 5126
M  V30 5730 1 5127 5128
M  V30 5731 1 5135 5127
M  V30 5732 1 5129 5128
M  V30 5733 1 5129 5134 CFG=1
M  V30 5734 1 5130 5129
M  V30 5735 1 5130 5131
M  V30 5736 1 5133 5130
M  V30 5737 1 5138 5130
M  V30 5738 1 5131 5132 CFG=1
M  V30 5739 2 5135 5136
M  V30 5740 1 5136 5137
M  V30 5741 1 5156 5136
M  V30 5742 1 5137 5139
M  V30 5743 1 5139 5145
M  V30 5744 2 5140 5139
M  V30 5745 1 5140 5142
M  V30 5746 1 5141 5140
M  V30 5747 2 5142 5143
M  V30 5748 1 5143 5144
M  V30 5749 1 5149 5143
M  V30 5750 1 5144 5146
M  V30 5751 2 5145 5144
M  V30 5752 1 5145 5150
M  V30 5753 1 5146 5152
M  V30 5754 2 5147 5146
M  V30 5755 1 5148 5147
M  V30 5756 2 5149 5148
M  V30 5757 1 5150 5151
M  V30 5758 1 5152 5153
M  V30 5759 1 5154 5155
M  V30 5760 1 5156 5157
M  V30 5761 1 5158 5159
M  V30 5762 1 5158 5177 CFG=1
M  V30 5763 1 5163 5158
M  V30 5764 1 5160 5159
M  V30 5765 1 5161 5160
M  V30 5766 1 5161 5176 CFG=6
M  V30 5767 1 5162 5161
M  V30 5768 1 5167 5161
M  V30 5769 1 5162 5164 CFG=1
M  V30 5770 1 5162 5163
M  V30 5771 1 5165 5164
M  V30 5772 1 5166 5165 CFG=1
M  V30 5773 1 5166 5167
M  V30 5774 1 5171 5166
M  V30 5775 1 5167 5168 CFG=6
M  V30 5776 1 5169 5168
M  V30 5777 1 5170 5169
M  V30 5778 1 5170 5175 CFG=6
M  V30 5779 1 5171 5170
M  V30 5780 1 5174 5170
M  V30 5781 1 5171 5172 CFG=6
M  V30 5782 1 5173 5172
M  V30 5783 1 5173 5174
M  V30 5784 1 5174 5179 CFG=6
M  V30 5785 1 5178 5177
M  V30 5786 1 5179 5180 CFG=6
M  V30 5787 1 5181 5179
M  V30 5788 1 5181 5182
M  V30 5789 1 5182 5183
M  V30 5790 1 5183 5184 CFG=6
M  V30 5791 1 5185 5183
M  V30 5792 1 5185 5187
M  V30 5793 1 5186 5185
M  V30 5794 1 5188 5207 CFG=6
M  V30 5795 1 5188 5193
M  V30 5796 1 5188 5189
M  V30 5797 1 5189 5190
M  V30 5798 1 5190 5191
M  V30 5799 1 5191 5206 CFG=6
M  V30 5800 1 5191 5197
M  V30 5801 1 5192 5191
M  V30 5802 1 5192 5193 CFG=6
M  V30 5803 1 5192 5194
M  V30 5804 1 5194 5195
M  V30 5805 1 5196 5195 CFG=1
M  V30 5806 1 5196 5201
M  V30 5807 1 5197 5196
M  V30 5808 1 5197 5198 CFG=1
M  V30 5809 1 5198 5199
M  V30 5810 1 5199 5200
M  V30 5811 1 5200 5205 CFG=6
M  V30 5812 1 5200 5204
M  V30 5813 1 5201 5200
M  V30 5814 1 5201 5202 CFG=1
M  V30 5815 1 5202 5203
M  V30 5816 1 5204 5203
M  V30 5817 1 5204 5209 CFG=1
M  V30 5818 1 5208 5207
M  V30 5819 1 5209 5210 CFG=6
M  V30 5820 1 5211 5209
M  V30 5821 2 5212 5211
M  V30 5822 1 5213 5212
M  V30 5823 1 5213 5214 CFG=6
M  V30 5824 1 5215 5213
M  V30 5825 1 5216 5215
M  V30 5826 1 5217 5215
M  V30 5827 1 5218 5237 CFG=6
M  V30 5828 1 5219 5218
M  V30 5829 1 5223 5218
M  V30 5830 1 5220 5219
M  V30 5831 1 5221 5220
M  V30 5832 1 5221 5236 CFG=6
M  V30 5833 1 5221 5227
M  V30 5834 1 5221 5222
M  V30 5835 1 5222 5223 CFG=1
M  V30 5836 1 5222 5224
M  V30 5837 1 5225 5224
M  V30 5838 1 5226 5225 CFG=1
M  V30 5839 1 5226 5231
M  V30 5840 1 5227 5226
M  V30 5841 1 5227 5228 CFG=6
M  V30 5842 1 5228 5229
M  V30 5843 1 5229 5230
M  V30 5844 1 5230 5235 CFG=6
M  V30 5845 1 5230 5234
M  V30 5846 1 5230 5231
M  V30 5847 1 5231 5232 CFG=6
M  V30 5848 1 5233 5232
M  V30 5849 1 5234 5233
M  V30 5850 1 5234 5239 CFG=6
M  V30 5851 1 5238 5237
M  V30 5852 1 5239 5240 CFG=1
M  V30 5853 1 5241 5239
M  V30 5854 2 5242 5241
M  V30 5855 1 5243 5242
M  V30 5856 1 5243 5245
M  V30 5857 1 5243 5244 CFG=1
M  V30 5858 1 5245 5247
M  V30 5859 1 5246 5245
M  V30 5860 1 5248 5267 CFG=6
M  V30 5861 1 5248 5253
M  V30 5862 1 5249 5248
M  V30 5863 1 5250 5249
M  V30 5864 1 5250 5251
M  V30 5865 1 5251 5266 CFG=6
M  V30 5866 1 5251 5252
M  V30 5867 1 5251 5257
M  V30 5868 1 5252 5253 CFG=6
M  V30 5869 1 5252 5254
M  V30 5870 1 5254 5255
M  V30 5871 1 5256 5255 CFG=1
M  V30 5872 1 5256 5261
M  V30 5873 1 5257 5256
M  V30 5874 1 5257 5258 CFG=6
M  V30 5875 1 5258 5259
M  V30 5876 1 5259 5260
M  V30 5877 1 5260 5265 CFG=6
M  V30 5878 1 5260 5261
M  V30 5879 1 5260 5264
M  V30 5880 1 5261 5262 CFG=1
M  V30 5881 1 5262 5263
M  V30 5882 1 5264 5263
M  V30 5883 1 5264 5269 CFG=6
M  V30 5884 1 5268 5267
M  V30 5885 1 5269 5270 CFG=6
M  V30 5886 1 5271 5269
M  V30 5887 1 5272 5271
M  V30 5888 1 5273 5272
M  V30 5889 1 5273 5274 CFG=6
M  V30 5890 1 5275 5273
M  V30 5891 1 5275 5277
M  V30 5892 1 5276 5275
M  V30 5893 1 5278 5297 CFG=6
M  V30 5894 1 5278 5283
M  V30 5895 1 5279 5278
M  V30 5896 1 5280 5279
M  V30 5897 1 5280 5281
M  V30 5898 1 5281 5296 CFG=6
M  V30 5899 1 5281 5287
M  V30 5900 1 5281 5282
M  V30 5901 1 5282 5283 CFG=1
M  V30 5902 1 5282 5284
M  V30 5903 1 5285 5284
M  V30 5904 1 5286 5285 CFG=1
M  V30 5905 1 5287 5286
M  V30 5906 1 5291 5286
M  V30 5907 1 5287 5288 CFG=6
M  V30 5908 1 5288 5289
M  V30 5909 1 5289 5290
M  V30 5910 1 5290 5295 CFG=6
M  V30 5911 1 5290 5294
M  V30 5912 1 5290 5291
M  V30 5913 1 5291 5292 CFG=1
M  V30 5914 1 5293 5292
M  V30 5915 1 5294 5293
M  V30 5916 1 5294 5299 CFG=6
M  V30 5917 1 5298 5297
M  V30 5918 1 5299 5300 CFG=6
M  V30 5919 1 5301 5299
M  V30 5920 1 5302 5301
M  V30 5921 1 5302 5303
M  V30 5922 1 5303 5304 CFG=1
M  V30 5923 1 5305 5303
M  V30 5924 1 5305 5306
M  V30 5925 1 5305 5307
M  V30 5926 1 5308 5327 CFG=6
M  V30 5927 1 5308 5309
M  V30 5928 1 5313 5308
M  V30 5929 1 5310 5309
M  V30 5930 1 5311 5310
M  V30 5931 1 5311 5326 CFG=6
M  V30 5932 1 5311 5317
M  V30 5933 1 5312 5311
M  V30 5934 1 5312 5313 CFG=1
M  V30 5935 1 5312 5314
M  V30 5936 1 5315 5314
M  V30 5937 1 5316 5315 CFG=1
M  V30 5938 1 5316 5321
M  V30 5939 1 5317 5316
M  V30 5940 1 5317 5318 CFG=6
M  V30 5941 1 5318 5319
M  V30 5942 1 5320 5319
M  V30 5943 1 5320 5325 CFG=6
M  V30 5944 1 5320 5321
M  V30 5945 1 5320 5324
M  V30 5946 1 5321 5322 CFG=6
M  V30 5947 1 5322 5323
M  V30 5948 1 5324 5323
M  V30 5949 1 5324 5329 CFG=6
M  V30 5950 1 5328 5327
M  V30 5951 1 5329 5330 CFG=6
M  V30 5952 1 5331 5329
M  V30 5953 1 5331 5332
M  V30 5954 1 5332 5333
M  V30 5955 1 5333 5334 CFG=1
M  V30 5956 1 5333 5335
M  V30 5957 1 5335 5336
M  V30 5958 1 5337 5335
M  V30 5959 1 5338 5343
M  V30 5960 1 5338 5357 CFG=1
M  V30 5961 1 5338 5339
M  V30 5962 1 5339 5340
M  V30 5963 1 5341 5340
M  V30 5964 1 5341 5356 CFG=1
M  V30 5965 1 5342 5341
M  V30 5966 1 5347 5341
M  V30 5967 1 5342 5344 CFG=6
M  V30 5968 1 5343 5342
M  V30 5969 1 5344 5345
M  V30 5970 1 5346 5345 CFG=6
M  V30 5971 1 5346 5347
M  V30 5972 1 5351 5346
M  V30 5973 1 5347 5348 CFG=1
M  V30 5974 1 5349 5348
M  V30 5975 1 5350 5349
M  V30 5976 1 5350 5355 CFG=1
M  V30 5977 1 5351 5350
M  V30 5978 1 5354 5350
M  V30 5979 1 5351 5352 CFG=6
M  V30 5980 1 5352 5353
M  V30 5981 1 5353 5354
M  V30 5982 1 5354 5359 CFG=1
M  V30 5983 1 5357 5358
M  V30 5984 1 5359 5360 CFG=6
M  V30 5985 1 5359 5361
M  V30 5986 1 5361 5362
M  V30 5987 1 5362 5363
M  V30 5988 1 5363 5364 CFG=1
M  V30 5989 1 5363 5365
M  V30 5990 1 5365 5366
M  V30 5991 1 5367 5365
M  V30 5992 1 5368 5369
M  V30 5993 1 5368 5373
M  V30 5994 1 5368 5387 CFG=1
M  V30 5995 1 5369 5370
M  V30 5996 1 5371 5370
M  V30 5997 1 5371 5386 CFG=1
M  V30 5998 1 5372 5371
M  V30 5999 1 5377 5371
M  V30 6000 1 5372 5374 CFG=6
M  V30 6001 1 5372 5373
M  V30 6002 1 5375 5374
M  V30 6003 1 5376 5375 CFG=6
M  V30 6004 1 5376 5377
M  V30 6005 1 5381 5376
M  V30 6006 1 5377 5378 CFG=1
M  V30 6007 1 5379 5378
M  V30 6008 1 5380 5379
M  V30 6009 1 5380 5385 CFG=1
M  V30 6010 1 5381 5380
M  V30 6011 1 5384 5380
M  V30 6012 1 5381 5382 CFG=1
M  V30 6013 1 5382 5383
M  V30 6014 1 5383 5384
M  V30 6015 1 5384 5389 CFG=1
M  V30 6016 1 5388 5387
M  V30 6017 1 5389 5390 CFG=6
M  V30 6018 1 5391 5389
M  V30 6019 1 5391 5392
M  V30 6020 1 5392 5393
M  V30 6021 1 5393 5394 CFG=1
M  V30 6022 1 5393 5395
M  V30 6023 1 5395 5396
M  V30 6024 1 5395 5397
M  V30 6025 1 5398 5417 CFG=6
M  V30 6026 1 5398 5403
M  V30 6027 1 5399 5398
M  V30 6028 1 5400 5399
M  V30 6029 1 5400 5401
M  V30 6030 1 5401 5416 CFG=6
M  V30 6031 1 5401 5407
M  V30 6032 1 5401 5402
M  V30 6033 1 5402 5403 CFG=6
M  V30 6034 1 5402 5404
M  V30 6035 1 5405 5404
M  V30 6036 1 5406 5405 CFG=1
M  V30 6037 1 5407 5406
M  V30 6038 1 5411 5406
M  V30 6039 1 5407 5408 CFG=6
M  V30 6040 1 5408 5409
M  V30 6041 1 5409 5410
M  V30 6042 1 5410 5415 CFG=6
M  V30 6043 1 5410 5414
M  V30 6044 1 5410 5411
M  V30 6045 1 5411 5412 CFG=1
M  V30 6046 1 5413 5412
M  V30 6047 1 5414 5413
M  V30 6048 1 5414 5419 CFG=6
M  V30 6049 1 5418 5417
M  V30 6050 1 5419 5420 CFG=6
M  V30 6051 1 5421 5419
M  V30 6052 1 5421 5422
M  V30 6053 1 5422 5423
M  V30 6054 1 5423 5424 CFG=6
M  V30 6055 1 5425 5423
M  V30 6056 1 5425 5426
M  V30 6057 1 5425 5427
M  V30 6058 1 5428 5429
M  V30 6059 1 5428 5447 CFG=1
M  V30 6060 1 5433 5428
M  V30 6061 1 5430 5429
M  V30 6062 1 5431 5430
M  V30 6063 1 5431 5446 CFG=6
M  V30 6064 1 5432 5431
M  V30 6065 1 5437 5431
M  V30 6066 1 5432 5434 CFG=1
M  V30 6067 1 5432 5433
M  V30 6068 1 5435 5434
M  V30 6069 1 5436 5435 CFG=1
M  V30 6070 1 5436 5437
M  V30 6071 1 5441 5436
M  V30 6072 1 5437 5438 CFG=6
M  V30 6073 1 5439 5438
M  V30 6074 1 5440 5439
M  V30 6075 1 5440 5445 CFG=6
M  V30 6076 1 5441 5440
M  V30 6077 1 5444 5440
M  V30 6078 1 5441 5442 CFG=6
M  V30 6079 1 5443 5442
M  V30 6080 1 5443 5444
M  V30 6081 1 5444 5449 CFG=6
M  V30 6082 1 5448 5447
M  V30 6083 1 5449 5450 CFG=6
M  V30 6084 1 5451 5449
M  V30 6085 1 5451 5452
M  V30 6086 1 5452 5453
M  V30 6087 1 5453 5454 CFG=6
M  V30 6088 1 5455 5453
M  V30 6089 1 5455 5457
M  V30 6090 1 5456 5455
M  V30 6091 1 5458 5477 CFG=6
M  V30 6092 1 5458 5463
M  V30 6093 1 5458 5459
M  V30 6094 1 5459 5460
M  V30 6095 1 5460 5461
M  V30 6096 1 5461 5476 CFG=6
M  V30 6097 1 5461 5467
M  V30 6098 1 5462 5461
M  V30 6099 1 5462 5463 CFG=6
M  V30 6100 1 5462 5464
M  V30 6101 1 5464 5465
M  V30 6102 1 5466 5465 CFG=1
M  V30 6103 1 5466 5471
M  V30 6104 1 5467 5466
M  V30 6105 1 5467 5468 CFG=1
M  V30 6106 1 5468 5469
M  V30 6107 1 5469 5470
M  V30 6108 1 5470 5475 CFG=6
M  V30 6109 1 5470 5474
M  V30 6110 1 5471 5470
M  V30 6111 1 5471 5472 CFG=1
M  V30 6112 1 5472 5473
M  V30 6113 1 5474 5473
M  V30 6114 1 5474 5479 CFG=1
M  V30 6115 1 5478 5477
M  V30 6116 1 5479 5480 CFG=6
M  V30 6117 1 5481 5479
M  V30 6118 2 5482 5481
M  V30 6119 1 5483 5482
M  V30 6120 1 5483 5484 CFG=6
M  V30 6121 1 5485 5483
M  V30 6122 1 5486 5485
M  V30 6123 1 5487 5485
M  V30 6124 1 5488 5507 CFG=6
M  V30 6125 1 5489 5488
M  V30 6126 1 5493 5488
M  V30 6127 1 5490 5489
M  V30 6128 1 5491 5490
M  V30 6129 1 5491 5506 CFG=6
M  V30 6130 1 5491 5497
M  V30 6131 1 5491 5492
M  V30 6132 1 5492 5493 CFG=1
M  V30 6133 1 5492 5494
M  V30 6134 1 5495 5494
M  V30 6135 1 5496 5495 CFG=1
M  V30 6136 1 5496 5501
M  V30 6137 1 5497 5496
M  V30 6138 1 5497 5498 CFG=6
M  V30 6139 1 5498 5499
M  V30 6140 1 5499 5500
M  V30 6141 1 5500 5505 CFG=6
M  V30 6142 1 5500 5504
M  V30 6143 1 5500 5501
M  V30 6144 1 5501 5502 CFG=6
M  V30 6145 1 5503 5502
M  V30 6146 1 5504 5503
M  V30 6147 1 5504 5509 CFG=6
M  V30 6148 1 5508 5507
M  V30 6149 1 5509 5510 CFG=1
M  V30 6150 1 5511 5509
M  V30 6151 2 5512 5511
M  V30 6152 1 5513 5512
M  V30 6153 1 5513 5515
M  V30 6154 1 5513 5514 CFG=1
M  V30 6155 1 5515 5517
M  V30 6156 1 5516 5515
M  V30 6157 1 5518 5537 CFG=6
M  V30 6158 1 5518 5523
M  V30 6159 1 5519 5518
M  V30 6160 1 5520 5519
M  V30 6161 1 5520 5521
M  V30 6162 1 5521 5536 CFG=6
M  V30 6163 1 5521 5522
M  V30 6164 1 5521 5527
M  V30 6165 1 5522 5523 CFG=6
M  V30 6166 1 5522 5524
M  V30 6167 1 5524 5525
M  V30 6168 1 5526 5525 CFG=1
M  V30 6169 1 5526 5531
M  V30 6170 1 5527 5526
M  V30 6171 1 5527 5528 CFG=6
M  V30 6172 1 5528 5529
M  V30 6173 1 5529 5530
M  V30 6174 1 5530 5535 CFG=6
M  V30 6175 1 5530 5531
M  V30 6176 1 5530 5534
M  V30 6177 1 5531 5532 CFG=1
M  V30 6178 1 5532 5533
M  V30 6179 1 5534 5533
M  V30 6180 1 5534 5539 CFG=6
M  V30 6181 1 5538 5537
M  V30 6182 1 5539 5540 CFG=6
M  V30 6183 1 5541 5539
M  V30 6184 1 5542 5541
M  V30 6185 1 5543 5542
M  V30 6186 1 5543 5544 CFG=6
M  V30 6187 1 5545 5543
M  V30 6188 1 5545 5547
M  V30 6189 1 5546 5545
M  V30 6190 1 5548 5567 CFG=6
M  V30 6191 1 5548 5553
M  V30 6192 1 5549 5548
M  V30 6193 1 5550 5549
M  V30 6194 1 5550 5551
M  V30 6195 1 5551 5566 CFG=6
M  V30 6196 1 5551 5557
M  V30 6197 1 5551 5552
M  V30 6198 1 5552 5553 CFG=1
M  V30 6199 1 5552 5554
M  V30 6200 1 5555 5554
M  V30 6201 1 5556 5555 CFG=1
M  V30 6202 1 5557 5556
M  V30 6203 1 5561 5556
M  V30 6204 1 5557 5558 CFG=6
M  V30 6205 1 5558 5559
M  V30 6206 1 5559 5560
M  V30 6207 1 5560 5565 CFG=6
M  V30 6208 1 5560 5564
M  V30 6209 1 5560 5561
M  V30 6210 1 5561 5562 CFG=1
M  V30 6211 1 5563 5562
M  V30 6212 1 5564 5563
M  V30 6213 1 5564 5569 CFG=6
M  V30 6214 1 5568 5567
M  V30 6215 1 5569 5570 CFG=6
M  V30 6216 1 5571 5569
M  V30 6217 1 5572 5571
M  V30 6218 1 5572 5573
M  V30 6219 1 5573 5574 CFG=1
M  V30 6220 1 5575 5573
M  V30 6221 1 5575 5576
M  V30 6222 1 5575 5577
M  V30 6223 1 5578 5597 CFG=6
M  V30 6224 1 5578 5579
M  V30 6225 1 5583 5578
M  V30 6226 1 5580 5579
M  V30 6227 1 5581 5580
M  V30 6228 1 5581 5596 CFG=6
M  V30 6229 1 5581 5587
M  V30 6230 1 5582 5581
M  V30 6231 1 5582 5583 CFG=1
M  V30 6232 1 5582 5584
M  V30 6233 1 5585 5584
M  V30 6234 1 5586 5585 CFG=1
M  V30 6235 1 5586 5591
M  V30 6236 1 5587 5586
M  V30 6237 1 5587 5588 CFG=6
M  V30 6238 1 5588 5589
M  V30 6239 1 5590 5589
M  V30 6240 1 5590 5595 CFG=6
M  V30 6241 1 5590 5591
M  V30 6242 1 5590 5594
M  V30 6243 1 5591 5592 CFG=6
M  V30 6244 1 5592 5593
M  V30 6245 1 5594 5593
M  V30 6246 1 5594 5599 CFG=6
M  V30 6247 1 5598 5597
M  V30 6248 1 5599 5600 CFG=6
M  V30 6249 1 5601 5599
M  V30 6250 1 5601 5602
M  V30 6251 1 5602 5603
M  V30 6252 1 5603 5604 CFG=1
M  V30 6253 1 5603 5605
M  V30 6254 1 5605 5606
M  V30 6255 1 5607 5605
M  V30 6256 1 5608 5613
M  V30 6257 1 5608 5627 CFG=1
M  V30 6258 1 5608 5609
M  V30 6259 1 5609 5610
M  V30 6260 1 5611 5610
M  V30 6261 1 5611 5626 CFG=1
M  V30 6262 1 5612 5611
M  V30 6263 1 5617 5611
M  V30 6264 1 5612 5614 CFG=6
M  V30 6265 1 5613 5612
M  V30 6266 1 5614 5615
M  V30 6267 1 5616 5615 CFG=6
M  V30 6268 1 5616 5617
M  V30 6269 1 5621 5616
M  V30 6270 1 5617 5618 CFG=1
M  V30 6271 1 5619 5618
M  V30 6272 1 5620 5619
M  V30 6273 1 5620 5625 CFG=1
M  V30 6274 1 5621 5620
M  V30 6275 1 5624 5620
M  V30 6276 1 5621 5622 CFG=6
M  V30 6277 1 5622 5623
M  V30 6278 1 5623 5624
M  V30 6279 1 5624 5629 CFG=1
M  V30 6280 1 5627 5628
M  V30 6281 1 5629 5630 CFG=6
M  V30 6282 1 5629 5631
M  V30 6283 1 5631 5632
M  V30 6284 1 5632 5633
M  V30 6285 1 5633 5634 CFG=1
M  V30 6286 1 5633 5635
M  V30 6287 1 5635 5636
M  V30 6288 1 5637 5635
M  V30 6289 1 5638 5639
M  V30 6290 1 5638 5643
M  V30 6291 1 5638 5657 CFG=1
M  V30 6292 1 5639 5640
M  V30 6293 1 5641 5640
M  V30 6294 1 5641 5656 CFG=1
M  V30 6295 1 5642 5641
M  V30 6296 1 5647 5641
M  V30 6297 1 5642 5644 CFG=6
M  V30 6298 1 5642 5643
M  V30 6299 1 5645 5644
M  V30 6300 1 5646 5645 CFG=6
M  V30 6301 1 5646 5647
M  V30 6302 1 5651 5646
M  V30 6303 1 5647 5648 CFG=1
M  V30 6304 1 5649 5648
M  V30 6305 1 5650 5649
M  V30 6306 1 5650 5655 CFG=1
M  V30 6307 1 5651 5650
M  V30 6308 1 5654 5650
M  V30 6309 1 5651 5652 CFG=1
M  V30 6310 1 5652 5653
M  V30 6311 1 5653 5654
M  V30 6312 1 5654 5659 CFG=1
M  V30 6313 1 5658 5657
M  V30 6314 1 5659 5660 CFG=6
M  V30 6315 1 5661 5659
M  V30 6316 1 5661 5662
M  V30 6317 1 5662 5663
M  V30 6318 1 5663 5664 CFG=1
M  V30 6319 1 5663 5665
M  V30 6320 1 5665 5666
M  V30 6321 1 5665 5667
M  V30 6322 1 5668 5687 CFG=6
M  V30 6323 1 5668 5673
M  V30 6324 1 5669 5668
M  V30 6325 1 5670 5669
M  V30 6326 1 5670 5671
M  V30 6327 1 5671 5686 CFG=6
M  V30 6328 1 5671 5677
M  V30 6329 1 5671 5672
M  V30 6330 1 5672 5673 CFG=6
M  V30 6331 1 5672 5674
M  V30 6332 1 5675 5674
M  V30 6333 1 5676 5675 CFG=1
M  V30 6334 1 5677 5676
M  V30 6335 1 5681 5676
M  V30 6336 1 5677 5678 CFG=6
M  V30 6337 1 5678 5679
M  V30 6338 1 5679 5680
M  V30 6339 1 5680 5685 CFG=6
M  V30 6340 1 5680 5684
M  V30 6341 1 5680 5681
M  V30 6342 1 5681 5682 CFG=1
M  V30 6343 1 5683 5682
M  V30 6344 1 5684 5683
M  V30 6345 1 5684 5689 CFG=6
M  V30 6346 1 5688 5687
M  V30 6347 1 5689 5690 CFG=6
M  V30 6348 1 5691 5689
M  V30 6349 1 5691 5692
M  V30 6350 1 5692 5693
M  V30 6351 1 5693 5694 CFG=6
M  V30 6352 1 5695 5693
M  V30 6353 1 5695 5696
M  V30 6354 1 5695 5697
M  V30 6355 1 5698 5699
M  V30 6356 1 5698 5717 CFG=1
M  V30 6357 1 5703 5698
M  V30 6358 1 5700 5699
M  V30 6359 1 5701 5700
M  V30 6360 1 5701 5716 CFG=6
M  V30 6361 1 5702 5701
M  V30 6362 1 5707 5701
M  V30 6363 1 5702 5704 CFG=1
M  V30 6364 1 5702 5703
M  V30 6365 1 5705 5704
M  V30 6366 1 5706 5705 CFG=1
M  V30 6367 1 5706 5707
M  V30 6368 1 5711 5706
M  V30 6369 1 5707 5708 CFG=6
M  V30 6370 1 5709 5708
M  V30 6371 1 5710 5709
M  V30 6372 1 5710 5715 CFG=6
M  V30 6373 1 5711 5710
M  V30 6374 1 5714 5710
M  V30 6375 1 5711 5712 CFG=6
M  V30 6376 1 5713 5712
M  V30 6377 1 5713 5714
M  V30 6378 1 5714 5719 CFG=6
M  V30 6379 1 5718 5717
M  V30 6380 1 5719 5720 CFG=6
M  V30 6381 1 5721 5719
M  V30 6382 1 5721 5722
M  V30 6383 1 5722 5723
M  V30 6384 1 5723 5724 CFG=6
M  V30 6385 1 5725 5723
M  V30 6386 1 5725 5727
M  V30 6387 1 5726 5725
M  V30 6388 1 5728 5747 CFG=6
M  V30 6389 1 5728 5733
M  V30 6390 1 5728 5729
M  V30 6391 1 5729 5730
M  V30 6392 1 5730 5731
M  V30 6393 1 5731 5746 CFG=6
M  V30 6394 1 5731 5737
M  V30 6395 1 5732 5731
M  V30 6396 1 5732 5733 CFG=6
M  V30 6397 1 5732 5734
M  V30 6398 1 5734 5735
M  V30 6399 1 5736 5735 CFG=1
M  V30 6400 1 5736 5741
M  V30 6401 1 5737 5736
M  V30 6402 1 5737 5738 CFG=1
M  V30 6403 1 5738 5739
M  V30 6404 1 5739 5740
M  V30 6405 1 5740 5745 CFG=6
M  V30 6406 1 5740 5744
M  V30 6407 1 5741 5740
M  V30 6408 1 5741 5742 CFG=1
M  V30 6409 1 5742 5743
M  V30 6410 1 5744 5743
M  V30 6411 1 5744 5749 CFG=1
M  V30 6412 1 5748 5747
M  V30 6413 1 5749 5750 CFG=6
M  V30 6414 1 5751 5749
M  V30 6415 2 5752 5751
M  V30 6416 1 5753 5752
M  V30 6417 1 5753 5754 CFG=6
M  V30 6418 1 5755 5753
M  V30 6419 1 5756 5755
M  V30 6420 1 5757 5755
M  V30 6421 1 5758 5777 CFG=6
M  V30 6422 1 5759 5758
M  V30 6423 1 5763 5758
M  V30 6424 1 5760 5759
M  V30 6425 1 5761 5760
M  V30 6426 1 5761 5776 CFG=6
M  V30 6427 1 5761 5767
M  V30 6428 1 5761 5762
M  V30 6429 1 5762 5763 CFG=1
M  V30 6430 1 5762 5764
M  V30 6431 1 5765 5764
M  V30 6432 1 5766 5765 CFG=1
M  V30 6433 1 5766 5771
M  V30 6434 1 5767 5766
M  V30 6435 1 5767 5768 CFG=6
M  V30 6436 1 5768 5769
M  V30 6437 1 5769 5770
M  V30 6438 1 5770 5775 CFG=6
M  V30 6439 1 5770 5774
M  V30 6440 1 5770 5771
M  V30 6441 1 5771 5772 CFG=6
M  V30 6442 1 5773 5772
M  V30 6443 1 5774 5773
M  V30 6444 1 5774 5779 CFG=6
M  V30 6445 1 5778 5777
M  V30 6446 1 5779 5780 CFG=1
M  V30 6447 1 5781 5779
M  V30 6448 2 5782 5781
M  V30 6449 1 5783 5782
M  V30 6450 1 5783 5785
M  V30 6451 1 5783 5784 CFG=1
M  V30 6452 1 5785 5787
M  V30 6453 1 5786 5785
M  V30 6454 1 5788 5807 CFG=6
M  V30 6455 1 5788 5793
M  V30 6456 1 5789 5788
M  V30 6457 1 5790 5789
M  V30 6458 1 5790 5791
M  V30 6459 1 5791 5806 CFG=6
M  V30 6460 1 5791 5792
M  V30 6461 1 5791 5797
M  V30 6462 1 5792 5793 CFG=6
M  V30 6463 1 5792 5794
M  V30 6464 1 5794 5795
M  V30 6465 1 5796 5795 CFG=1
M  V30 6466 1 5796 5801
M  V30 6467 1 5797 5796
M  V30 6468 1 5797 5798 CFG=6
M  V30 6469 1 5798 5799
M  V30 6470 1 5799 5800
M  V30 6471 1 5800 5805 CFG=6
M  V30 6472 1 5800 5801
M  V30 6473 1 5800 5804
M  V30 6474 1 5801 5802 CFG=1
M  V30 6475 1 5802 5803
M  V30 6476 1 5804 5803
M  V30 6477 1 5804 5809 CFG=6
M  V30 6478 1 5808 5807
M  V30 6479 1 5809 5810 CFG=6
M  V30 6480 1 5811 5809
M  V30 6481 1 5812 5811
M  V30 6482 1 5813 5812
M  V30 6483 1 5813 5814 CFG=6
M  V30 6484 1 5815 5813
M  V30 6485 1 5815 5817
M  V30 6486 1 5816 5815
M  V30 6487 1 5818 5837 CFG=6
M  V30 6488 1 5818 5823
M  V30 6489 1 5819 5818
M  V30 6490 1 5820 5819
M  V30 6491 1 5820 5821
M  V30 6492 1 5821 5836 CFG=6
M  V30 6493 1 5821 5827
M  V30 6494 1 5821 5822
M  V30 6495 1 5822 5823 CFG=1
M  V30 6496 1 5822 5824
M  V30 6497 1 5825 5824
M  V30 6498 1 5826 5825 CFG=1
M  V30 6499 1 5827 5826
M  V30 6500 1 5831 5826
M  V30 6501 1 5827 5828 CFG=6
M  V30 6502 1 5828 5829
M  V30 6503 1 5829 5830
M  V30 6504 1 5830 5835 CFG=6
M  V30 6505 1 5830 5834
M  V30 6506 1 5830 5831
M  V30 6507 1 5831 5832 CFG=1
M  V30 6508 1 5833 5832
M  V30 6509 1 5834 5833
M  V30 6510 1 5834 5839 CFG=6
M  V30 6511 1 5838 5837
M  V30 6512 1 5839 5840 CFG=6
M  V30 6513 1 5841 5839
M  V30 6514 1 5842 5841
M  V30 6515 1 5842 5843
M  V30 6516 1 5843 5844 CFG=1
M  V30 6517 1 5845 5843
M  V30 6518 1 5845 5846
M  V30 6519 1 5845 5847
M  V30 6520 1 5848 5867 CFG=6
M  V30 6521 1 5848 5849
M  V30 6522 1 5853 5848
M  V30 6523 1 5850 5849
M  V30 6524 1 5851 5850
M  V30 6525 1 5851 5866 CFG=6
M  V30 6526 1 5851 5857
M  V30 6527 1 5852 5851
M  V30 6528 1 5852 5853 CFG=1
M  V30 6529 1 5852 5854
M  V30 6530 1 5855 5854
M  V30 6531 1 5856 5855 CFG=1
M  V30 6532 1 5856 5861
M  V30 6533 1 5857 5856
M  V30 6534 1 5857 5858 CFG=6
M  V30 6535 1 5858 5859
M  V30 6536 1 5860 5859
M  V30 6537 1 5860 5865 CFG=6
M  V30 6538 1 5860 5861
M  V30 6539 1 5860 5864
M  V30 6540 1 5861 5862 CFG=6
M  V30 6541 1 5862 5863
M  V30 6542 1 5864 5863
M  V30 6543 1 5864 5869 CFG=6
M  V30 6544 1 5868 5867
M  V30 6545 1 5869 5870 CFG=6
M  V30 6546 1 5871 5869
M  V30 6547 1 5871 5872
M  V30 6548 1 5872 5873
M  V30 6549 1 5873 5874 CFG=1
M  V30 6550 1 5873 5875
M  V30 6551 1 5875 5876
M  V30 6552 1 5877 5875
M  V30 6553 1 5878 5883
M  V30 6554 1 5878 5897 CFG=1
M  V30 6555 1 5878 5879
M  V30 6556 1 5879 5880
M  V30 6557 1 5881 5880
M  V30 6558 1 5881 5896 CFG=1
M  V30 6559 1 5882 5881
M  V30 6560 1 5887 5881
M  V30 6561 1 5882 5884 CFG=6
M  V30 6562 1 5883 5882
M  V30 6563 1 5884 5885
M  V30 6564 1 5886 5885 CFG=6
M  V30 6565 1 5886 5887
M  V30 6566 1 5891 5886
M  V30 6567 1 5887 5888 CFG=1
M  V30 6568 1 5889 5888
M  V30 6569 1 5890 5889
M  V30 6570 1 5890 5895 CFG=1
M  V30 6571 1 5891 5890
M  V30 6572 1 5894 5890
M  V30 6573 1 5891 5892 CFG=6
M  V30 6574 1 5892 5893
M  V30 6575 1 5893 5894
M  V30 6576 1 5894 5899 CFG=1
M  V30 6577 1 5897 5898
M  V30 6578 1 5899 5900 CFG=6
M  V30 6579 1 5899 5901
M  V30 6580 1 5901 5902
M  V30 6581 1 5902 5903
M  V30 6582 1 5903 5904 CFG=1
M  V30 6583 1 5903 5905
M  V30 6584 1 5905 5906
M  V30 6585 1 5907 5905
M  V30 6586 1 5908 5909
M  V30 6587 1 5908 5913
M  V30 6588 1 5908 5927 CFG=1
M  V30 6589 1 5909 5910
M  V30 6590 1 5911 5910
M  V30 6591 1 5911 5926 CFG=1
M  V30 6592 1 5912 5911
M  V30 6593 1 5917 5911
M  V30 6594 1 5912 5914 CFG=6
M  V30 6595 1 5912 5913
M  V30 6596 1 5915 5914
M  V30 6597 1 5916 5915 CFG=6
M  V30 6598 1 5916 5917
M  V30 6599 1 5921 5916
M  V30 6600 1 5917 5918 CFG=1
M  V30 6601 1 5919 5918
M  V30 6602 1 5920 5919
M  V30 6603 1 5920 5925 CFG=1
M  V30 6604 1 5921 5920
M  V30 6605 1 5924 5920
M  V30 6606 1 5921 5922 CFG=1
M  V30 6607 1 5922 5923
M  V30 6608 1 5923 5924
M  V30 6609 1 5924 5929 CFG=1
M  V30 6610 1 5928 5927
M  V30 6611 1 5929 5930 CFG=6
M  V30 6612 1 5931 5929
M  V30 6613 1 5931 5932
M  V30 6614 1 5932 5933
M  V30 6615 1 5933 5934 CFG=1
M  V30 6616 1 5933 5935
M  V30 6617 1 5935 5936
M  V30 6618 1 5935 5937
M  V30 6619 1 5938 5957 CFG=6
M  V30 6620 1 5938 5943
M  V30 6621 1 5939 5938
M  V30 6622 1 5940 5939
M  V30 6623 1 5940 5941
M  V30 6624 1 5941 5956 CFG=6
M  V30 6625 1 5941 5947
M  V30 6626 1 5941 5942
M  V30 6627 1 5942 5943 CFG=6
M  V30 6628 1 5942 5944
M  V30 6629 1 5945 5944
M  V30 6630 1 5946 5945 CFG=1
M  V30 6631 1 5947 5946
M  V30 6632 1 5951 5946
M  V30 6633 1 5947 5948 CFG=6
M  V30 6634 1 5948 5949
M  V30 6635 1 5949 5950
M  V30 6636 1 5950 5955 CFG=6
M  V30 6637 1 5950 5954
M  V30 6638 1 5950 5951
M  V30 6639 1 5951 5952 CFG=1
M  V30 6640 1 5953 5952
M  V30 6641 1 5954 5953
M  V30 6642 1 5954 5959 CFG=6
M  V30 6643 1 5958 5957
M  V30 6644 1 5959 5960 CFG=6
M  V30 6645 1 5961 5959
M  V30 6646 1 5961 5962
M  V30 6647 1 5962 5963
M  V30 6648 1 5963 5964 CFG=6
M  V30 6649 1 5965 5963
M  V30 6650 1 5965 5966
M  V30 6651 1 5965 5967
M  V30 END BOND
M  V30 END CTAB
M  END
$$$$
