_=_=_=_=_=_=_=_=_=_=_=_=_=_=_=_=_=_=_=_=_=_=_=_=_=_=_=_=_=_=_=_=_=_=_=_=_=_=_=_=_=_=_=_=_=_=_=_=_=_=_=_=_=_=_=_=_=_=_=_=_=_=_=_=_=_=_=_=_=_=_=_=_=_=_=_=_=_=_=_=_=_=_=_=_=_=_=_=_=_=_=_=_=_=_=_=_=_=_=_=_=_=_=_=_=_=_=_=_=_=_=_=_=_=_=_=_=_=_=_=_=_=_=_=_=_=_=_=_=_=_=_=_=_=_=_=_=_=_=_=_=_=_=_=_=_=_=_=_=_=_=_=_=_=_=_=_=_=_=_=_=_=_=_=_=_=_=_=_=_=_=_=_=_=_=_=_=_=_=_=
 OpenBabel09092515033D

  0  0  0     0  0            999 V3000
M  V30 BEGIN CTAB
M  V30 COUNTS 5922 6606 0 0 1
M  V30 BEGIN ATOM
M  V30 1 C 85.969 51.602 43.455 0
M  V30 2 C 85.508 52.808 42.882 0
M  V30 3 C 84.16 52.918 42.473 0
M  V30 4 C 83.271 51.831 42.665 0
M  V30 5 C 83.707 50.711 43.402 0
M  V30 6 C 85.058 50.577 43.775 0
M  V30 7 O 82.787 49.711 43.75 0
M  V30 8 C 81.378 49.916 43.669 0
M  V30 9 C 81.022 50.569 42.329 0
M  V30 10 C 81.901 51.762 42.073 0
M  V30 11 O 81.502 52.618 41.241 0
M  V30 12 C 80.645 48.605 43.838 0
M  V30 13 C 79.294 48.597 44.222 0
M  V30 14 C 78.597 47.388 44.334 0
M  V30 15 C 79.243 46.181 44.053 0
M  V30 16 C 80.583 46.179 43.659 0
M  V30 17 C 81.282 47.385 43.544 0
M  V30 18 C 87.825 51.469 45.069 0
M  V30 19 O 87.327 51.421 43.736 0
M  V30 20 O 83.74 54.126 41.909 0
M  V30 21 H 83.009 54.14 41.323 0
M  V30 22 C 86.409 54.029 42.815 0
M  V30 23 C 86.015 55.043 43.867 0
M  V30 24 C 86.275 54.776 45.221 0
M  V30 25 C 85.994 55.731 46.208 0
M  V30 26 C 85.408 56.951 45.838 0
M  V30 27 C 85.124 57.218 44.496 0
M  V30 28 C 85.435 56.275 43.507 0
M  V30 29 O 85.166 56.561 42.168 0
M  V30 30 H 84.285 56.53 41.85 0
M  V30 31 C 86.384 55.464 47.639 0
M  V30 32 C 85.638 54.256 48.169 0
M  V30 33 C 86.34 53.044 48.32 0
M  V30 34 C 85.718 51.922 48.873 0
M  V30 35 C 84.389 51.995 49.289 0
M  V30 36 C 83.678 53.188 49.148 0
M  V30 37 C 84.284 54.321 48.591 0
M  V30 38 O 83.51 55.477 48.473 0
M  V30 39 H 83.237 55.938 49.243 0
M  V30 40 C 85.521 49.353 44.544 0
M  V30 41 C 85.844 48.175 43.649 0
M  V30 42 C 86.982 48.228 42.821 0
M  V30 43 C 87.354 47.123 42.035 0
M  V30 44 C 86.58 45.956 42.084 0
M  V30 45 C 85.448 45.894 42.895 0
M  V30 46 C 85.082 46.987 43.692 0
M  V30 47 O 83.973 46.883 44.53 0
M  V30 48 H 84.031 46.392 45.325 0
M  V30 49 C 88.618 47.158 41.21 0
M  V30 50 C 89.759 47.787 41.972 0
M  V30 51 C 90.506 47.011 42.879 0
M  V30 52 C 91.585 47.569 43.57 0
M  V30 53 C 91.928 48.907 43.369 0
M  V30 54 C 91.193 49.69 42.471 0
M  V30 55 C 90.112 49.136 41.766 0
M  V30 56 O 89.388 49.92 40.868 0
M  V30 57 H 88.452 49.907 40.885 0
M  V30 58 C 85.759 52.473 43.621 0
M  V30 59 C 85.166 53.501 42.855 0
M  V30 60 C 83.86 53.329 42.346 0
M  V30 61 C 83.14 52.14 42.628 0
M  V30 62 C 83.681 51.214 43.543 0
M  V30 63 C 84.997 51.358 44.02 0
M  V30 64 O 82.904 50.125 43.965 0
M  V30 65 C 81.493 50.077 43.761 0
M  V30 66 C 81.159 50.484 42.323 0
M  V30 67 C 81.858 51.766 41.961 0
M  V30 68 O 81.403 52.429 40.993 0
M  V30 69 C 80.965 48.694 44.063 0
M  V30 70 C 79.587 48.488 44.246 0
M  V30 71 C 79.088 47.202 44.478 0
M  V30 72 C 79.959 46.111 44.521 0
M  V30 73 C 81.33 46.302 44.329 0
M  V30 74 C 81.833 47.586 44.094 0
M  V30 75 C 88.148 52.704 43.064 0
M  V30 76 O 87.099 52.562 44.015 0
M  V30 77 O 83.306 54.366 41.59 0
M  V30 78 H 82.521 54.788 41.879 0
M  V30 79 C 85.865 54.838 42.678 0
M  V30 80 C 85.63 55.727 43.88 0
M  V30 81 C 86.005 55.282 45.158 0
M  V30 82 C 85.874 56.116 46.277 0
M  V30 83 C 85.322 57.396 46.118 0
M  V30 84 C 84.924 57.841 44.855 0
M  V30 85 C 85.086 57.018 43.733 0
M  V30 86 O 84.705 57.482 42.473 0
M  V30 87 H 84.57 58.398 42.332 0
M  V30 88 C 86.385 55.655 47.617 0
M  V30 89 C 85.679 54.383 48.038 0
M  V30 90 C 86.408 53.177 48.04 0
M  V30 91 C 85.825 51.99 48.49 0
M  V30 92 C 84.508 51.99 48.95 0
M  V30 93 C 83.77 53.175 48.955 0
M  V30 94 C 84.338 54.373 48.503 0
M  V30 95 O 83.538 55.518 48.53 0
M  V30 96 H 82.759 55.557 48.011 0
M  V30 97 C 85.578 50.339 44.983 0
M  V30 98 C 86.821 49.657 44.45 0
M  V30 99 C 86.697 48.7 43.422 0
M  V30 100 C 87.835 48.104 42.851 0
M  V30 101 C 89.106 48.474 43.312 0
M  V30 102 C 89.241 49.415 44.332 0
M  V30 103 C 88.11 50.023 44.894 0
M  V30 104 O 88.273 50.994 45.879 0
M  V30 105 H 88.236 50.755 46.784 0
M  V30 106 C 87.7 47.139 41.698 0
M  V30 107 C 87.542 45.718 42.182 0
M  V30 108 C 88.685 44.947 42.469 0
M  V30 109 C 88.558 43.64 42.947 0
M  V30 110 C 87.29 43.086 43.139 0
M  V30 111 C 86.146 43.841 42.857 0
M  V30 112 C 86.264 45.158 42.383 0
M  V30 113 O 85.121 45.908 42.111 0
M  V30 114 H 84.616 46.264 42.815 0
M  V30 115 C 88.391 52.087 42.02 0
M  V30 116 C 88.585 50.714 42.29 0
M  V30 117 C 88.137 50.173 43.516 0
M  V30 118 C 87.471 51 44.455 0
M  V30 119 C 87.129 52.317 44.085 0
M  V30 120 C 87.608 52.875 42.885 0
M  V30 121 O 86.317 53.084 44.933 0
M  V30 122 C 85.567 52.501 45.996 0
M  V30 123 C 86.45 51.529 46.786 0
M  V30 124 C 87.162 50.587 45.856 0
M  V30 125 O 87.604 49.51 46.335 0
M  V30 126 C 85.011 53.577 46.9 0
M  V30 127 C 84.615 54.813 46.365 0
M  V30 128 C 84.055 55.796 47.189 0
M  V30 129 C 83.88 55.547 48.553 0
M  V30 130 C 84.26 54.316 49.094 0
M  V30 131 C 84.817 53.331 48.273 0
M  V30 132 C 88.338 52.543 39.599 0
M  V30 133 O 88.949 52.673 40.878 0
M  V30 134 O 88.348 48.811 43.75 0
M  V30 135 H 88.865 48.308 43.152 0
M  V30 136 C 89.155 49.787 41.23 0
M  V30 137 C 89.398 48.407 41.801 0
M  V30 138 C 88.434 47.402 41.622 0
M  V30 139 C 88.669 46.094 42.07 0
M  V30 140 C 89.866 45.802 42.741 0
M  V30 141 C 90.822 46.8 42.944 0
M  V30 142 C 90.6 48.099 42.468 0
M  V30 143 O 91.571 49.082 42.658 0
M  V30 144 H 92.426 48.844 42.959 0
M  V30 145 C 87.667 45.01 41.768 0
M  V30 146 C 86.409 45.217 42.585 0
M  V30 147 C 85.355 45.963 42.021 0
M  V30 148 C 84.146 46.121 42.702 0
M  V30 149 C 83.968 45.531 43.954 0
M  V30 150 C 85 44.788 44.529 0
M  V30 151 C 86.221 44.624 43.861 0
M  V30 152 O 87.212 43.875 44.5 0
M  V30 153 H 86.979 43.279 45.185 0
M  V30 154 C 87.254 54.303 42.511 0
M  V30 155 C 85.763 54.53 42.374 0
M  V30 156 C 84.95 53.497 41.865 0
M  V30 157 C 83.554 53.646 41.797 0
M  V30 158 C 82.969 54.839 42.245 0
M  V30 159 C 83.764 55.87 42.744 0
M  V30 160 C 85.154 55.72 42.829 0
M  V30 161 O 85.922 56.747 43.375 0
M  V30 162 H 86.736 56.986 42.978 0
M  V30 163 C 82.683 52.507 41.325 0
M  V30 164 C 82.776 51.319 42.251 0
M  V30 165 C 84.027 50.935 42.77 0
M  V30 166 C 84.128 49.856 43.653 0
M  V30 167 C 82.985 49.145 44.023 0
M  V30 168 C 81.735 49.516 43.513 0
M  V30 169 C 81.622 50.604 42.631 0
M  V30 170 O 80.374 50.973 42.133 0
M  V30 171 H 79.836 51.57 42.613 0
M  V30 172 C 83.643 49.81 43.356 0
M  V30 173 C 84.489 49.074 44.216 0
M  V30 174 C 85.409 49.756 45.043 0
M  V30 175 C 85.46 51.173 45.03 0
M  V30 176 C 84.484 51.885 44.304 0
M  V30 177 C 83.593 51.215 43.445 0
M  V30 178 O 84.415 53.281 44.425 0
M  V30 179 C 85.072 53.984 45.477 0
M  V30 180 C 86.51 53.475 45.626 0
M  V30 181 C 86.534 51.973 45.689 0
M  V30 182 O 87.55 51.422 46.188 0
M  V30 183 C 85.055 55.471 45.208 0
M  V30 184 C 85.358 56.378 46.237 0
M  V30 185 C 85.391 57.753 45.981 0
M  V30 186 C 85.13 58.232 44.694 0
M  V30 187 C 84.839 57.338 43.661 0
M  V30 188 C 84.808 55.962 43.912 0
M  V30 189 C 81.564 48.61 42.801 0
M  V30 190 O 82.826 49.154 42.429 0
M  V30 191 O 86.232 48.995 45.879 0
M  V30 192 H 86.154 49.073 46.809 0
M  V30 193 C 84.336 47.569 44.353 0
M  V30 194 C 85.433 46.849 43.6 0
M  V30 195 C 86.27 47.57 42.734 0
M  V30 196 C 87.345 46.944 42.087 0
M  V30 197 C 87.557 45.57 42.279 0
M  V30 198 C 86.716 44.838 43.12 0
M  V30 199 C 85.662 45.472 43.792 0
M  V30 200 O 84.841 44.735 44.647 0
M  V30 201 H 85.208 44.053 45.174 0
M  V30 202 C 88.293 47.763 41.25 0
M  V30 203 C 89.459 48.238 42.093 0
M  V30 204 C 89.268 48.392 43.481 0
M  V30 205 C 90.329 48.757 44.312 0
M  V30 206 C 91.599 48.967 43.772 0
M  V30 207 C 91.807 48.819 42.4 0
M  V30 208 C 90.752 48.459 41.551 0
M  V30 209 O 91.032 48.337 40.188 0
M  V30 210 H 91.885 48.553 39.865 0
M  V30 211 C 82.564 51.996 42.648 0
M  V30 212 C 83.184 53.022 41.722 0
M  V30 213 C 84.43 52.748 41.122 0
M  V30 214 C 84.997 53.644 40.199 0
M  V30 215 C 84.309 54.821 39.873 0
M  V30 216 C 83.079 55.105 40.466 0
M  V30 217 C 82.502 54.209 41.375 0
M  V30 218 O 81.251 54.493 41.918 0
M  V30 219 H 80.483 54.091 41.562 0
M  V30 220 C 86.293 53.308 39.5 0
M  V30 221 C 87.321 52.776 40.468 0
M  V30 222 C 87.141 52.961 41.852 0
M  V30 223 C 88.068 52.449 42.764 0
M  V30 224 C 89.187 51.751 42.306 0
M  V30 225 C 89.379 51.56 40.933 0
M  V30 226 C 88.449 52.065 40.009 0
M  V30 227 O 88.643 51.866 38.643 0
M  V30 228 H 87.913 51.668 38.09 0
M  V30 229 C 86.119 49.531 44.501 0
M  V30 230 C 85.068 48.596 44.368 0
M  V30 231 C 83.93 48.928 43.6 0
M  V30 232 C 83.86 50.182 42.942 0
M  V30 233 C 84.995 51.018 42.94 0
M  V30 234 C 86.114 50.714 43.737 0
M  V30 235 O 84.998 52.176 42.148 0
M  V30 236 C 84.043 52.388 41.111 0
M  V30 237 C 82.636 52.058 41.622 0
M  V30 238 C 82.622 50.715 42.299 0
M  V30 239 O 81.514 50.132 42.423 0
M  V30 240 C 84.112 53.814 40.615 0
M  V30 241 C 83.984 54.882 41.519 0
M  V30 242 C 84.096 56.203 41.073 0
M  V30 243 C 84.345 56.467 39.723 0
M  V30 244 C 84.485 55.413 38.818 0
M  V30 245 C 84.377 54.09 39.261 0
M  V30 246 C 87.228 49.833 46.68 0
M  V30 247 O 87.188 49.282 45.368 0
M  V30 248 O 82.909 47.978 43.493 0
M  V30 249 H 82.054 48.241 43.215 0
M  V30 250 C 85.201 47.194 44.937 0
M  V30 251 C 85.748 46.244 43.894 0
M  V30 252 C 87.067 46.396 43.438 0
M  V30 253 C 87.625 45.482 42.533 0
M  V30 254 C 86.836 44.427 42.048 0
M  V30 255 C 85.515 44.28 42.477 0
M  V30 256 C 84.969 45.175 43.406 0
M  V30 257 O 83.655 45.006 43.843 0
M  V30 258 H 83.008 45.652 43.643 0
M  V30 259 C 89.075 45.604 42.145 0
M  V30 260 C 89.485 47.061 42.1 0
M  V30 261 C 88.7 47.959 41.349 0
M  V30 262 C 88.992 49.324 41.335 0
M  V30 263 C 90.067 49.816 42.076 0
M  V30 264 C 90.856 48.943 42.826 0
M  V30 265 C 90.58 47.569 42.847 0
M  V30 266 O 91.416 46.754 43.614 0
M  V30 267 H 91.069 45.99 44.032 0
M  V30 268 C 87.319 51.637 43.746 0
M  V30 269 C 86.974 53.062 44.127 0
M  V30 270 C 86.711 53.372 45.476 0
M  V30 271 C 86.463 54.697 45.876 0
M  V30 272 C 86.483 55.718 44.915 0
M  V30 273 C 86.736 55.422 43.577 0
M  V30 274 C 86.999 54.105 43.176 0
M  V30 275 O 87.296 53.842 41.84 0
M  V30 276 H 87.386 54.548 41.232 0
M  V30 277 C 86.259 55.034 47.333 0
M  V30 278 C 85.385 54.013 48.02 0
M  V30 279 C 85.963 52.845 48.555 0
M  V30 280 C 85.174 51.903 49.221 0
M  V30 281 C 83.8 52.113 49.358 0
M  V30 282 C 83.213 53.269 48.831 0
M  V30 283 C 83.999 54.225 48.166 0
M  V30 284 O 83.41 55.378 47.65 0
M  V30 285 H 83.336 56.145 48.182 0
M  V30 286 C 86.857 49.63 43.634 0
M  V30 287 C 87.413 48.59 42.856 0
M  V30 288 C 86.609 47.492 42.48 0
M  V30 289 C 85.243 47.451 42.858 0
M  V30 290 C 84.669 48.582 43.473 0
M  V30 291 C 85.472 49.661 43.889 0
M  V30 292 O 83.284 48.623 43.69 0
M  V30 293 C 82.388 47.721 43.043 0
M  V30 294 C 82.932 46.292 43.133 0
M  V30 295 C 84.373 46.247 42.706 0
M  V30 296 O 84.847 45.135 42.354 0
M  V30 297 C 81.012 47.812 43.661 0
M  V30 298 C 80.563 49.025 44.208 0
M  V30 299 C 79.272 49.128 44.739 0
M  V30 300 C 78.419 48.022 44.719 0
M  V30 301 C 78.851 46.814 44.167 0
M  V30 302 C 80.139 46.708 43.633 0
M  V30 303 C 88.662 50.401 45.124 0
M  V30 304 O 87.667 50.654 44.136 0
M  V30 305 O 87.193 46.48 41.712 0
M  V30 306 H 88.066 46.584 41.387 0
M  V30 307 C 88.828 48.698 42.315 0
M  V30 308 C 89.044 50.038 41.647 0
M  V30 309 C 87.971 50.675 41.003 0
M  V30 310 C 88.122 51.953 40.447 0
M  V30 311 C 89.376 52.582 40.501 0
M  V30 312 C 90.456 51.948 41.119 0
M  V30 313 C 90.295 50.684 41.703 0
M  V30 314 O 91.376 50.07 42.335 0
M  V30 315 H 91.24 49.3 42.853 0
M  V30 316 C 86.928 52.659 39.861 0
M  V30 317 C 86.046 53.203 40.965 0
M  V30 318 C 86.583 53.312 42.264 0
M  V30 319 C 85.836 53.876 43.301 0
M  V30 320 C 84.545 54.345 43.057 0
M  V30 321 C 83.997 54.246 41.777 0
M  V30 322 C 84.73 53.679 40.726 0
M  V30 323 O 84.115 53.605 39.475 0
M  V30 324 H 83.303 53.147 39.378 0
M  V30 325 C 84.846 50.861 44.575 0
M  V30 326 C 85.405 51.112 45.96 0
M  V30 327 C 85.289 52.397 46.529 0
M  V30 328 C 85.727 52.645 47.842 0
M  V30 329 C 86.282 51.597 48.589 0
M  V30 330 C 86.408 50.325 48.034 0
M  V30 331 C 85.959 50.068 46.732 0
M  V30 332 O 86.052 48.777 46.217 0
M  V30 333 H 85.468 48.499 45.539 0
M  V30 334 C 85.528 54.002 48.473 0
M  V30 335 C 85.345 55.077 47.43 0
M  V30 336 C 86.443 55.488 46.65 0
M  V30 337 C 86.286 56.46 45.658 0
M  V30 338 C 85.033 57.036 45.436 0
M  V30 339 C 83.934 56.637 46.204 0
M  V30 340 C 84.08 55.656 47.199 0
M  V30 341 O 82.98 55.258 47.956 0
M  V30 342 H 82.745 55.734 48.727 0
M  V30 343 C 87.121 51.602 44.032 0
M  V30 344 C 87.864 52.247 43.017 0
M  V30 345 C 88.599 51.474 42.091 0
M  V30 346 C 88.564 50.058 42.163 0
M  V30 347 C 87.673 49.441 43.065 0
M  V30 348 C 86.971 50.202 44.018 0
M  V30 349 O 87.501 48.049 43.022 0
M  V30 350 C 87.94 47.265 41.915 0
M  V30 351 C 89.364 47.67 41.521 0
M  V30 352 C 89.47 49.163 41.383 0
M  V30 353 O 90.427 49.625 40.708 0
M  V30 354 C 87.875 45.794 42.254 0
M  V30 355 C 88.984 45.152 42.829 0
M  V30 356 C 88.913 43.802 43.19 0
M  V30 357 C 87.731 43.086 42.986 0
M  V30 358 C 86.618 43.716 42.425 0
M  V30 359 C 86.684 45.066 42.066 0
M  V30 360 C 87.052 52.424 46.353 0
M  V30 361 O 86.502 52.346 45.042 0
M  V30 362 O 89.324 52.146 41.103 0
M  V30 363 H 89.043 52.111 40.21 0
M  V30 364 C 87.783 53.752 42.834 0
M  V30 365 C 86.346 54.221 42.894 0
M  V30 366 C 85.886 54.91 44.028 0
M  V30 367 C 84.583 55.426 44.076 0
M  V30 368 C 83.719 55.213 42.991 0
M  V30 369 C 84.159 54.509 41.867 0
M  V30 370 C 85.472 54.022 41.807 0
M  V30 371 O 85.907 53.339 40.671 0
M  V30 372 H 85.993 52.407 40.69 0
M  V30 373 C 84.151 56.255 45.257 0
M  V30 374 C 84.359 55.483 46.544 0
M  V30 375 C 83.407 54.51 46.907 0
M  V30 376 C 83.59 53.72 48.044 0
M  V30 377 C 84.73 53.885 48.832 0
M  V30 378 C 85.684 54.843 48.488 0
M  V30 379 C 85.513 55.648 47.354 0
M  V30 380 O 86.505 56.591 47.075 0
M  V30 381 H 87.397 56.412 47.299 0
M  V30 382 C 86.036 49.522 45.001 0
M  V30 383 C 84.847 48.863 44.332 0
M  V30 384 C 83.834 49.668 43.774 0
M  V30 385 C 82.757 49.092 43.079 0
M  V30 386 C 82.697 47.698 42.941 0
M  V30 387 C 83.69 46.891 43.495 0
M  V30 388 C 84.774 47.461 44.175 0
M  V30 389 O 85.778 46.637 44.678 0
M  V30 390 H 86.316 46.932 45.386 0
M  V30 391 C 81.717 49.962 42.415 0
M  V30 392 C 80.408 49.929 43.165 0
M  V30 393 C 80.059 48.788 43.913 0
M  V30 394 C 78.865 48.752 44.639 0
M  V30 395 C 78.003 49.85 44.622 0
M  V30 396 C 78.337 50.99 43.882 0
M  V30 397 C 79.538 51.039 43.156 0
M  V30 398 O 79.868 52.18 42.426 0
M  V30 399 H 80.621 52.178 41.869 0
M  V30 400 C 84.728 51.813 43.556 0
M  V30 401 C 85.16 52.798 42.639 0
M  V30 402 C 86.281 52.545 41.819 0
M  V30 403 C 86.95 51.298 41.897 0
M  V30 404 C 86.391 50.27 42.684 0
M  V30 405 C 85.301 50.526 43.535 0
M  V30 406 O 86.943 48.981 42.63 0
M  V30 407 C 87.838 48.582 41.593 0
M  V30 408 C 88.904 49.662 41.38 0
M  V30 409 C 88.264 51.016 41.246 0
M  V30 410 O 88.932 51.929 40.693 0
M  V30 411 C 88.478 47.256 41.933 0
M  V30 412 C 89.868 47.17 42.117 0
M  V30 413 C 90.461 45.955 42.479 0
M  V30 414 C 89.668 44.82 42.667 0
M  V30 415 C 88.284 44.896 42.498 0
M  V30 416 C 87.687 46.11 42.139 0
M  V30 417 C 83.987 52.288 45.858 0
M  V30 418 O 83.711 52.093 44.475 0
M  V30 419 O 86.681 53.543 40.926 0
M  V30 420 H 86.971 53.313 40.065 0
M  V30 421 C 84.359 54.072 42.436 0
M  V30 422 C 84.924 55.198 43.274 0
M  V30 423 C 85.454 54.92 44.545 0
M  V30 424 C 86.057 55.929 45.308 0
M  V30 425 C 86.091 57.241 44.809 0
M  V30 426 C 85.546 57.533 43.557 0
M  V30 427 C 84.973 56.517 42.781 0
M  V30 428 O 84.45 56.817 41.523 0
M  V30 429 H 84.018 57.635 41.378 0
M  V30 430 C 86.717 55.583 46.618 0
M  V30 431 C 85.754 54.82 47.503 0
M  V30 432 C 86.154 53.568 48.011 0
M  V30 433 C 85.333 52.858 48.891 0
M  V30 434 C 84.104 53.391 49.283 0
M  V30 435 C 83.692 54.63 48.791 0
M  V30 436 C 84.5 55.353 47.903 0
M  V30 437 O 84.019 56.581 47.446 0
M  V30 438 H 83.182 56.892 47.732 0
M  V30 439 C 84.725 49.418 44.397 0
M  V30 440 C 83.362 48.95 43.931 0
M  V30 441 C 82.345 49.899 43.705 0
M  V30 442 C 81.093 49.508 43.2 0
M  V30 443 C 80.86 48.155 42.917 0
M  V30 444 C 81.856 47.206 43.143 0
M  V30 445 C 83.111 47.593 43.632 0
M  V30 446 O 84.105 46.632 43.804 0
M  V30 447 H 84.466 46.478 44.655 0
M  V30 448 C 80.036 50.539 42.886 0
M  V30 449 C 78.804 50.345 43.736 0
M  V30 450 C 78.695 49.209 44.56 0
M  V30 451 C 77.576 49.028 45.378 0
M  V30 452 C 76.55 49.976 45.378 0
M  V30 453 C 76.645 51.11 44.563 0
M  V30 454 C 77.77 51.303 43.744 0
M  V30 455 O 77.862 52.438 42.939 0
M  V30 456 H 77.111 52.983 42.811 0
M  V30 457 C 84.007 51.393 42.73 0
M  V30 458 C 84.266 50.276 43.555 0
M  V30 459 C 85.553 49.695 43.561 0
M  V30 460 C 86.586 50.251 42.764 0
M  V30 461 C 86.352 51.469 42.095 0
M  V30 462 C 85.062 52.031 42.05 0
M  V30 463 O 87.416 52.119 41.45 0
M  V30 464 C 88.777 51.773 41.699 0
M  V30 465 C 88.943 50.251 41.668 0
M  V30 466 C 87.903 49.588 42.528 0
M  V30 467 O 88.126 48.413 42.919 0
M  V30 468 C 89.681 52.432 40.682 0
M  V30 469 C 90.063 51.738 39.523 0
M  V30 470 C 90.86 52.359 38.555 0
M  V30 471 C 91.273 53.682 38.735 0
M  V30 472 C 90.889 54.386 39.878 0
M  V30 473 C 90.09 53.769 40.846 0
M  V30 474 C 81.788 51.354 41.659 0
M  V30 475 O 82.708 51.896 42.601 0
M  V30 476 O 85.773 48.589 44.388 0
M  V30 477 H 85.867 48.708 45.313 0
M  V30 478 C 83.215 49.77 44.528 0
M  V30 479 C 82.525 48.541 43.977 0
M  V30 480 C 83.22 47.682 43.113 0
M  V30 481 C 82.633 46.495 42.653 0
M  V30 482 C 81.317 46.188 43.031 0
M  V30 483 C 80.607 47.048 43.873 0
M  V30 484 C 81.207 48.217 44.358 0
M  V30 485 O 80.495 49.058 45.214 0
M  V30 486 H 80.928 49.777 45.631 0
M  V30 487 C 83.44 45.536 41.816 0
M  V30 488 C 84.652 45.059 42.588 0
M  V30 489 C 84.521 43.923 43.412 0
M  V30 490 C 85.625 43.399 44.088 0
M  V30 491 C 86.879 43.996 43.946 0
M  V30 492 C 87.028 45.121 43.134 0
M  V30 493 C 85.929 45.663 42.453 0
M  V30 494 O 86.151 46.795 41.665 0
M  V30 495 H 85.918 47.643 41.988 0
M  V30 496 C 84.819 53.329 41.302 0
M  V30 497 C 84.887 54.551 42.195 0
M  V30 498 C 85.583 54.475 43.418 0
M  V30 499 C 85.731 55.61 44.235 0
M  V30 500 C 85.18 56.83 43.819 0
M  V30 501 C 84.483 56.915 42.614 0
M  V30 502 C 84.346 55.791 41.79 0
M  V30 503 O 83.686 55.913 40.569 0
M  V30 504 H 82.751 55.875 40.535 0
M  V30 505 C 86.545 55.541 45.504 0
M  V30 506 C 85.77 54.888 46.623 0
M  V30 507 C 84.818 55.635 47.342 0
M  V30 508 C 84.069 55.038 48.361 0
M  V30 509 C 84.266 53.693 48.677 0
M  V30 510 C 85.21 52.939 47.97 0
M  V30 511 C 85.962 53.528 46.94 0
M  V30 512 O 86.895 52.77 46.235 0
M  V30 513 H 87.726 52.574 46.62 0
M  V30 514 C 85.272 51.122 44.264 0
M  V30 515 C 86.245 52.026 43.771 0
M  V30 516 C 85.987 52.79 42.613 0
M  V30 517 C 84.768 52.632 41.922 0
M  V30 518 C 83.782 51.75 42.423 0
M  V30 519 C 84.051 50.987 43.576 0
M  V30 520 O 83.093 50.073 44.046 0
M  V30 521 C 81.737 50.049 43.588 0
M  V30 522 C 81.679 50.325 42.082 0
M  V30 523 C 82.445 51.58 41.802 0
M  V30 524 O 81.911 52.493 41.118 0
M  V30 525 C 81.104 48.718 43.915 0
M  V30 526 C 79.711 48.616 44.068 0
M  V30 527 C 79.12 47.382 44.353 0
M  V30 528 C 79.914 46.239 44.477 0
M  V30 529 C 81.297 46.325 44.306 0
M  V30 530 C 81.892 47.557 44.02 0
M  V30 531 O 87.482 52.182 44.405 0
M  V30 532 H 87.631 51.793 45.244 0
M  V30 533 O 84.582 53.337 40.728 0
M  V30 534 H 84.806 52.939 39.91 0
M  V30 535 C 85.515 50.318 45.532 0
M  V30 536 C 86.332 50.811 47.899 0
M  V30 537 C 86.393 51.655 49.017 0
M  V30 538 C 85.749 52.892 49.003 0
M  V30 539 C 85.04 53.308 47.869 0
M  V30 540 C 84.979 52.466 46.747 0
M  V30 541 C 85.595 51.201 46.76 0
M  V30 542 O 87.01 49.594 47.919 0
M  V30 543 H 86.644 48.846 47.49 0
M  V30 544 C 84.4 54.67 47.837 0
M  V30 545 C 84.993 55.504 46.729 0
M  V30 546 C 86.219 55.127 46.152 0
M  V30 547 C 86.765 55.869 45.101 0
M  V30 548 C 86.089 56.986 44.608 0
M  V30 549 C 84.864 57.363 45.164 0
M  V30 550 C 84.307 56.627 46.22 0
M  V30 551 O 83.079 57.006 46.762 0
M  V30 552 H 83.035 57.712 47.375 0
M  V30 553 C 87.053 53.732 42.081 0
M  V30 554 C 88.031 53.003 41.181 0
M  V30 555 C 89.145 52.387 41.784 0
M  V30 556 C 90.103 51.726 41.014 0
M  V30 557 C 89.967 51.668 39.629 0
M  V30 558 C 88.871 52.265 39.009 0
M  V30 559 C 87.893 52.925 39.765 0
M  V30 560 O 86.814 53.47 39.065 0
M  V30 561 H 86.608 53.159 38.207 0
M  V30 562 C 84.825 49.151 43.872 0
M  V30 563 C 85.318 48.183 42.962 0
M  V30 564 C 86.702 47.921 42.879 0
M  V30 565 C 87.605 48.647 43.682 0
M  V30 566 C 87.119 49.596 44.611 0
M  V30 567 C 85.736 49.856 44.682 0
M  V30 568 O 85.256 50.835 45.568 0
M  V30 569 C 86.049 51.412 46.61 0
M  V30 570 C 87.486 51.633 46.123 0
M  V30 571 C 87.992 50.349 45.546 0
M  V30 572 O 89.105 49.896 45.924 0
M  V30 573 C 85.432 52.71 47.071 0
M  V30 574 C 84.62 53.455 46.199 0
M  V30 575 C 84.034 54.649 46.627 0
M  V30 576 C 84.244 55.103 47.932 0
M  V30 577 C 85.033 54.36 48.813 0
M  V30 578 C 85.621 53.165 48.389 0
M  V30 579 O 84.458 47.47 42.12 0
M  V30 580 H 83.715 47.025 42.478 0
M  V30 581 O 88.976 48.428 43.51 0
M  V30 582 H 89.422 47.802 44.046 0
M  V30 583 C 83.334 49.421 44.005 0
M  V30 584 C 81.495 50.762 42.851 0
M  V30 585 C 81.095 51.791 41.987 0
M  V30 586 C 82.047 52.594 41.359 0
M  V30 587 C 83.413 52.386 41.591 0
M  V30 588 C 83.816 51.358 42.458 0
M  V30 589 C 82.868 50.519 43.072 0
M  V30 590 O 80.529 49.992 43.496 0
M  V30 591 H 80.076 49.319 43.027 0
M  V30 592 C 84.433 53.296 40.96 0
M  V30 593 C 84.875 54.351 41.942 0
M  V30 594 C 84.049 55.462 42.193 0
M  V30 595 C 84.428 56.431 43.126 0
M  V30 596 C 85.628 56.297 43.825 0
M  V30 597 C 86.452 55.193 43.594 0
M  V30 598 C 86.082 54.214 42.659 0
M  V30 599 O 86.907 53.111 42.443 0
M  V30 600 H 87.754 53.226 42.06 0
M  V30 601 C 87.216 46.902 41.876 0
M  V30 602 C 87.489 45.568 42.541 0
M  V30 603 C 86.382 44.8 42.953 0
M  V30 604 C 86.56 43.576 43.601 0
M  V30 605 C 87.844 43.098 43.85 0
M  V30 606 C 88.955 43.837 43.447 0
M  V30 607 C 88.798 45.062 42.787 0
M  V30 608 O 89.966 45.722 42.394 0
M  V30 609 H 89.944 46.326 41.679 0
M  V30 610 C 86.912 51.789 42.288 0
M  V30 611 C 87.874 50.954 41.667 0
M  V30 612 C 88.73 50.15 42.447 0
M  V30 613 C 88.652 50.196 43.855 0
M  V30 614 C 87.677 51.007 44.481 0
M  V30 615 C 86.83 51.813 43.694 0
M  V30 616 O 85.896 52.657 44.316 0
M  V30 617 C 85.551 52.565 45.701 0
M  V30 618 C 86.796 52.255 46.54 0
M  V30 619 C 87.476 51.059 45.95 0
M  V30 620 O 87.788 50.093 46.696 0
M  V30 621 C 84.901 53.848 46.159 0
M  V30 622 C 85.041 55.021 45.398 0
M  V30 623 C 84.427 56.207 45.809 0
M  V30 624 C 83.661 56.23 46.977 0
M  V30 625 C 83.499 55.065 47.731 0
M  V30 626 C 84.11 53.876 47.323 0
M  V30 627 O 88.009 50.909 40.276 0
M  V30 628 H 88.771 50.521 39.891 0
M  V30 629 O 89.576 49.456 44.599 0
M  V30 630 H 89.446 49.332 45.519 0
M  V30 631 C 85.953 52.634 41.464 0
M  V30 632 C 83.451 52.929 41.055 0
M  V30 633 C 82.121 52.577 41.326 0
M  V30 634 C 81.831 51.572 42.25 0
M  V30 635 C 82.867 50.901 42.912 0
M  V30 636 C 84.199 51.249 42.642 0
M  V30 637 C 84.505 52.284 41.737 0
M  V30 638 O 83.722 53.911 40.104 0
M  V30 639 H 84.473 53.833 39.551 0
M  V30 640 C 82.55 49.776 43.861 0
M  V30 641 C 83.538 48.649 43.69 0
M  V30 642 C 84.868 48.816 44.117 0
M  V30 643 C 85.787 47.77 43.997 0
M  V30 644 C 85.387 46.545 43.46 0
M  V30 645 C 84.066 46.362 43.043 0
M  V30 646 C 83.135 47.406 43.158 0
M  V30 647 O 81.816 47.21 42.748 0
M  V30 648 H 81.323 47.926 42.399 0
M  V30 649 C 89.776 49.284 41.767 0
M  V30 650 C 89.535 47.813 42.042 0
M  V30 651 C 88.416 47.206 41.44 0
M  V30 652 C 88.115 45.863 41.675 0
M  V30 653 C 88.924 45.103 42.516 0
M  V30 654 C 90.04 45.679 43.12 0
M  V30 655 C 90.366 47.022 42.889 0
M  V30 656 O 91.517 47.51 43.512 0
M  V30 657 H 92.16 47.972 43.012 0
M  V30 658 C 86.894 52.35 42.249 0
M  V30 659 C 87.601 51.17 41.908 0
M  V30 660 C 88.092 50.316 42.917 0
M  V30 661 C 87.906 50.65 44.275 0
M  V30 662 C 87.18 51.813 44.622 0
M  V30 663 C 86.699 52.664 43.608 0
M  V30 664 O 86.022 53.845 43.953 0
M  V30 665 C 85.543 54.122 45.273 0
M  V30 666 C 86.55 53.629 46.318 0
M  V30 667 C 86.875 52.199 46.023 0
M  V30 668 O 86.804 51.344 46.945 0
M  V30 669 C 85.286 55.601 45.43 0
M  V30 670 C 84.314 56.057 46.337 0
M  V30 671 C 84.085 57.426 46.498 0
M  V30 672 C 84.832 58.351 45.764 0
M  V30 673 C 85.815 57.91 44.875 0
M  V30 674 C 86.048 56.541 44.711 0
M  V30 675 O 87.839 50.825 40.574 0
M  V30 676 H 87.495 51.356 39.883 0
M  V30 677 O 88.485 49.829 45.249 0
M  V30 678 H 88.438 50.07 46.153 0
M  V30 679 C 86.323 53.265 41.176 0
M  V30 680 C 84.365 54.831 41.655 0
M  V30 681 C 82.991 55.047 41.833 0
M  V30 682 C 82.09 53.987 41.72 0
M  V30 683 C 82.549 52.698 41.418 0
M  V30 684 C 83.923 52.48 41.236 0
M  V30 685 C 84.846 53.532 41.382 0
M  V30 686 O 85.246 55.907 41.739 0
M  V30 687 H 85.05 56.632 42.299 0
M  V30 688 C 81.566 51.573 41.235 0
M  V30 689 C 81.752 50.532 42.31 0
M  V30 690 C 83.04 50.264 42.808 0
M  V30 691 C 83.226 49.328 43.829 0
M  V30 692 C 82.128 48.657 44.37 0
M  V30 693 C 80.842 48.922 43.894 0
M  V30 694 C 80.644 49.859 42.868 0
M  V30 695 O 79.355 50.124 42.406 0
M  V30 696 H 78.919 49.506 41.852 0
M  V30 697 C 88.873 49.071 42.534 0
M  V30 698 C 87.982 47.845 42.521 0
M  V30 699 C 86.605 48.031 42.755 0
M  V30 700 C 85.73 46.944 42.79 0
M  V30 701 C 86.213 45.653 42.592 0
M  V30 702 C 87.57 45.443 42.354 0
M  V30 703 C 88.463 46.522 42.305 0
M  V30 704 O 89.801 46.223 42.032 0
M  V30 705 H 90.437 46.257 42.718 0
M  V30 706 C 84.836 50.376 44.011 0
M  V30 707 C 86.2 50.758 44.008 0
M  V30 708 C 87.197 49.839 43.621 0
M  V30 709 C 86.841 48.522 43.262 0
M  V30 710 C 85.478 48.142 43.238 0
M  V30 711 C 84.49 49.065 43.634 0
M  V30 712 O 83.142 48.673 43.658 0
M  V30 713 C 82.659 47.47 43.051 0
M  V30 714 C 83.664 46.331 43.255 0
M  V30 715 C 85.01 46.803 42.803 0
M  V30 716 O 85.678 46.095 42.003 0
M  V30 717 C 81.311 47.106 43.624 0
M  V30 718 C 81.2 46.062 44.559 0
M  V30 719 C 79.956 45.733 45.105 0
M  V30 720 C 78.816 46.449 44.731 0
M  V30 721 C 78.919 47.502 43.818 0
M  V30 722 C 80.161 47.835 43.27 0
M  V30 723 O 86.598 52.042 44.395 0
M  V30 724 H 86.163 52.474 45.104 0
M  V30 725 O 87.861 47.61 42.971 0
M  V30 726 H 87.681 46.69 42.97 0
M  V30 727 C 83.742 51.364 44.389 0
M  V30 728 C 82.31 51.988 42.37 0
M  V30 729 C 81.998 52.863 41.32 0
M  V30 730 C 82.728 54.039 41.141 0
M  V30 731 C 83.775 54.361 42.014 0
M  V30 732 C 84.088 53.489 43.068 0
M  V30 733 C 83.383 52.283 43.239 0
M  V30 734 O 81.549 50.835 42.553 0
M  V30 735 H 81.449 50.471 43.41 0
M  V30 736 C 84.516 55.662 41.853 0
M  V30 737 C 85.016 56.15 43.19 0
M  V30 738 C 84.192 56.965 43.988 0
M  V30 739 C 84.626 57.397 45.244 0
M  V30 740 C 85.882 57.014 45.72 0
M  V30 741 C 86.704 56.196 44.943 0
M  V30 742 C 86.279 55.757 43.679 0
M  V30 743 O 87.104 54.932 42.915 0
M  V30 744 H 87.104 54.007 43.058 0
M  V30 745 C 88.658 50.255 43.653 0
M  V30 746 C 89.082 50.87 42.334 0
M  V30 747 C 88.89 52.255 42.163 0
M  V30 748 C 89.227 52.883 40.963 0
M  V30 749 C 89.762 52.141 39.912 0
M  V30 750 C 89.967 50.77 40.059 0
M  V30 751 C 89.644 50.123 41.259 0
M  V30 752 O 89.91 48.752 41.329 0
M  V30 753 H 90.686 48.405 40.938 0
M  V30 754 C 85.024 50.663 44.004 0
M  V30 755 C 85.87 51.755 43.691 0
M  V30 756 C 85.383 52.841 42.934 0
M  V30 757 C 84.056 52.829 42.459 0
M  V30 758 C 83.197 51.755 42.79 0
M  V30 759 C 83.694 50.671 43.54 0
M  V30 760 O 82.857 49.58 43.826 0
M  V30 761 C 81.439 49.603 43.637 0
M  V30 762 C 81.087 50.365 42.354 0
M  V30 763 C 81.768 51.697 42.395 0
M  V30 764 O 81.099 52.742 42.175 0
M  V30 765 C 80.9 48.194 43.588 0
M  V30 766 C 81.742 47.128 43.227 0
M  V30 767 C 81.251 45.82 43.197 0
M  V30 768 C 79.92 45.564 43.539 0
M  V30 769 C 79.081 46.614 43.92 0
M  V30 770 C 79.568 47.924 43.951 0
M  V30 771 O 87.204 51.786 44.11 0
M  V30 772 H 87.757 51.041 43.972 0
M  V30 773 O 83.632 53.878 41.635 0
M  V30 774 H 82.817 54.307 41.805 0
M  V30 775 C 85.518 49.5 44.852 0
M  V30 776 C 85.541 47.108 43.963 0
M  V30 777 C 86.118 46.108 43.167 0
M  V30 778 C 87.249 46.384 42.398 0
M  V30 779 C 87.816 47.665 42.408 0
M  V30 780 C 87.24 48.668 43.202 0
M  V30 781 C 86.119 48.395 44.009 0
M  V30 782 O 84.392 46.824 44.698 0
M  V30 783 H 84.463 46.451 45.554 0
M  V30 784 C 88.999 47.972 41.528 0
M  V30 785 C 89.139 49.462 41.338 0
M  V30 786 C 88.08 50.196 40.772 0
M  V30 787 C 88.18 51.582 40.62 0
M  V30 788 C 89.331 52.25 41.041 0
M  V30 789 C 90.385 51.534 41.615 0
M  V30 790 C 90.296 50.143 41.771 0
M  V30 791 O 91.349 49.439 42.355 0
M  V30 792 H 91.742 48.721 41.9 0
M  V30 793 C 86.313 53.989 42.581 0
M  V30 794 C 86.094 55.175 43.5 0
M  V30 795 C 86.682 55.133 44.779 0
M  V30 796 C 86.495 56.176 45.688 0
M  V30 797 C 85.718 57.277 45.338 0
M  V30 798 C 85.13 57.344 44.076 0
M  V30 799 C 85.314 56.313 43.145 0
M  V30 800 O 84.712 56.476 41.894 0
M  V30 801 H 83.79 56.347 41.798 0
M  V30 802 C 83.628 51.215 43.424 0
M  V30 803 C 83.751 49.81 43.284 0
M  V30 804 C 84.63 49.085 44.116 0
M  V30 805 C 85.414 49.763 45.073 0
M  V30 806 C 85.277 51.161 45.235 0
M  V30 807 C 84.402 51.878 44.395 0
M  V30 808 O 84.302 53.273 44.521 0
M  V30 809 C 84.833 54.004 45.631 0
M  V30 810 C 86.18 53.413 46.062 0
M  V30 811 C 86.006 51.941 46.265 0
M  V30 812 O 86.408 51.412 47.336 0
M  V30 813 C 84.977 55.462 45.269 0
M  V30 814 C 84.73 55.891 43.954 0
M  V30 815 C 84.846 57.243 43.619 0
M  V30 816 C 85.199 58.178 44.595 0
M  V30 817 C 85.427 57.765 45.91 0
M  V30 818 C 85.311 56.414 46.25 0
M  V30 819 O 83.02 49.107 42.322 0
M  V30 820 H 82.84 49.5 41.489 0
M  V30 821 O 86.341 49.026 45.818 0
M  V30 822 H 87.146 48.752 45.425 0
M  V30 823 C 82.657 52.01 42.563 0
M  V30 824 C 82.831 54.238 41.33 0
M  V30 825 C 83.522 55.107 40.474 0
M  V30 826 C 84.757 54.738 39.94 0
M  V30 827 C 85.323 53.497 40.259 0
M  V30 828 C 84.635 52.625 41.118 0
M  V30 829 C 83.373 52.971 41.636 0
M  V30 830 O 81.615 54.638 41.881 0
M  V30 831 H 80.812 54.426 41.448 0
M  V30 832 C 86.684 53.131 39.73 0
M  V30 833 C 87.508 52.474 40.808 0
M  V30 834 C 87.143 52.63 42.158 0
M  V30 835 C 87.876 52 43.168 0
M  V30 836 C 88.973 51.2 42.841 0
M  V30 837 C 89.338 51.028 41.504 0
M  V30 838 C 88.611 51.657 40.482 0
M  V30 839 O 88.978 51.47 39.15 0
M  V30 840 H 89.041 52.206 38.573 0
M  V30 841 C 84.772 47.584 43.933 0
M  V30 842 C 86.037 47.242 43.17 0
M  V30 843 C 86.649 48.265 42.419 0
M  V30 844 C 87.797 48.013 41.667 0
M  V30 845 C 88.355 46.737 41.65 0
M  V30 846 C 87.771 45.709 42.389 0
M  V30 847 C 86.624 45.944 43.158 0
M  V30 848 O 86.123 44.864 43.89 0
M  V30 849 H 85.355 44.971 44.415 0
M  V30 850 C 84.856 52.04 44.381 0
M  V30 851 C 85.432 53.324 44.212 0
M  V30 852 C 84.835 54.265 43.348 0
M  V30 853 C 83.675 53.921 42.624 0
M  V30 854 C 83.08 52.651 42.807 0
M  V30 855 C 83.687 51.714 43.667 0
M  V30 856 O 83.125 50.435 43.811 0
M  V30 857 C 81.815 50.093 43.348 0
M  V30 858 C 81.532 50.772 42.003 0
M  V30 859 C 81.82 52.234 42.143 0
M  V30 860 O 80.957 53.073 41.772 0
M  V30 861 C 81.683 48.593 43.23 0
M  V30 862 C 82.767 47.823 42.776 0
M  V30 863 C 82.655 46.433 42.682 0
M  V30 864 C 81.464 45.801 43.049 0
M  V30 865 C 80.387 46.556 43.521 0
M  V30 866 C 80.496 47.946 43.618 0
M  V30 867 O 86.603 53.69 44.882 0
M  V30 868 H 86.645 53.637 45.817 0
M  V30 869 O 83.161 54.845 41.708 0
M  V30 870 H 83.697 55.551 41.404 0
M  V30 871 C 85.462 51.024 45.337 0
M  V30 872 C 87.943 50.464 45.129 0
M  V30 873 C 88.984 49.74 44.531 0
M  V30 874 C 88.71 48.802 43.536 0
M  V30 875 C 87.39 48.568 43.129 0
M  V30 876 C 86.345 49.29 43.727 0
M  V30 877 C 86.611 50.264 44.708 0
M  V30 878 O 88.233 51.373 46.145 0
M  V30 879 H 87.628 51.499 46.849 0
M  V30 880 C 87.095 47.509 42.1 0
M  V30 881 C 87.145 46.138 42.726 0
M  V30 882 C 86.017 45.637 43.4 0
M  V30 883 C 86.035 44.355 43.957 0
M  V30 884 C 87.175 43.557 43.838 0
M  V30 885 C 88.298 44.039 43.16 0
M  V30 886 C 88.291 45.325 42.599 0
M  V30 887 O 89.414 45.792 41.916 0
M  V30 888 H 89.392 45.883 40.984 0
M  V30 889 C 85.482 55.626 43.156 0
M  V30 890 C 85.128 56.568 44.289 0
M  V30 891 C 84.365 56.055 45.356 0
M  V30 892 C 83.975 56.874 46.417 0
M  V30 893 C 84.338 58.218 46.432 0
M  V30 894 C 85.097 58.748 45.39 0
M  V30 895 C 85.507 57.941 44.321 0
M  V30 896 O 86.289 58.548 43.335 0
M  V30 897 H 87.149 58.855 43.542 0
M  V30 898 C 85.266 50.313 43.987 0
M  V30 899 C 86.209 51.323 43.671 0
M  V30 900 C 85.819 52.456 42.928 0
M  V30 901 C 84.49 52.575 42.47 0
M  V30 902 C 83.538 51.584 42.804 0
M  V30 903 C 83.938 50.451 43.54 0
M  V30 904 O 83.005 49.442 43.829 0
M  V30 905 C 81.594 49.602 43.658 0
M  V30 906 C 81.3 50.405 42.386 0
M  V30 907 C 82.104 51.666 42.427 0
M  V30 908 O 81.535 52.771 42.223 0
M  V30 909 C 80.922 48.251 43.607 0
M  V30 910 C 81.656 47.112 43.23 0
M  V30 911 C 81.043 45.857 43.198 0
M  V30 912 C 79.697 45.726 43.551 0
M  V30 913 C 78.964 46.848 43.947 0
M  V30 914 C 79.574 48.106 43.981 0
M  V30 915 O 87.545 51.224 44.074 0
M  V30 916 H 87.954 51.938 44.523 0
M  V30 917 O 84.158 53.665 41.659 0
M  V30 918 H 83.291 54.019 41.681 0
M  V30 919 C 85.658 49.102 44.821 0
M  V30 920 C 85.26 46.729 43.971 0
M  V30 921 C 85.625 45.648 43.156 0
M  V30 922 C 86.732 45.743 42.312 0
M  V30 923 C 87.486 46.923 42.265 0
M  V30 924 C 87.122 48.007 43.078 0
M  V30 925 C 86.028 47.913 43.959 0
M  V30 926 O 84.132 46.628 44.783 0
M  V30 927 H 83.473 47.293 44.756 0
M  V30 928 C 88.641 47.041 41.306 0
M  V30 929 C 89.832 47.663 41.992 0
M  V30 930 C 90.157 49.009 41.742 0
M  V30 931 C 91.236 49.611 42.395 0
M  V30 932 C 91.995 48.88 43.311 0
M  V30 933 C 91.675 47.547 43.578 0
M  V30 934 C 90.594 46.932 42.927 0
M  V30 935 O 90.277 45.603 43.207 0
M  V30 936 H 90.712 44.911 42.749 0
M  V30 937 C 86.849 53.514 42.571 0
M  V30 938 C 87.75 53.045 41.446 0
M  V30 939 C 89.068 52.669 41.773 0
M  V30 940 C 89.962 52.258 40.784 0
M  V30 941 C 89.559 52.216 39.451 0
M  V30 942 C 88.258 52.578 39.103 0
M  V30 943 C 87.342 52.984 40.082 0
M  V30 944 O 86.053 53.302 39.648 0
M  V30 945 H 85.585 52.708 39.098 0
M  V30 946 C 85.312 50.922 43.997 0
M  V30 947 C 86.125 52.073 43.837 0
M  V30 948 C 85.591 53.237 43.248 0
M  V30 949 C 84.262 53.249 42.772 0
M  V30 950 C 83.486 52.066 42.824 0
M  V30 951 C 83.996 50.941 43.5 0
M  V30 952 O 83.185 49.811 43.672 0
M  V30 953 C 81.775 49.844 43.467 0
M  V30 954 C 81.479 50.568 42.146 0
M  V30 955 C 82.179 51.898 42.118 0
M  V30 956 O 81.707 52.8 41.379 0
M  V30 957 C 81.229 48.431 43.576 0
M  V30 958 C 79.849 48.274 43.8 0
M  V30 959 C 79.289 47 43.94 0
M  V30 960 C 80.098 45.866 43.853 0
M  V30 961 C 81.469 46.004 43.624 0
M  V30 962 C 82.036 47.275 43.485 0
M  V30 963 O 87.46 52.109 44.255 0
M  V30 964 H 87.93 52.92 44.256 0
M  V30 965 O 83.746 54.451 42.279 0
M  V30 966 H 84.212 55.252 42.414 0
M  V30 967 C 85.792 49.661 44.7 0
M  V30 968 C 86.112 47.301 43.799 0
M  V30 969 C 86.714 46.41 42.897 0
M  V30 970 C 87.599 46.881 41.926 0
M  V30 971 C 87.885 48.244 41.842 0
M  V30 972 C 87.288 49.14 42.733 0
M  V30 973 C 86.404 48.679 43.725 0
M  V30 974 O 85.228 46.819 44.763 0
M  V30 975 H 84.421 46.42 44.502 0
M  V30 976 C 86.444 54.492 43.167 0
M  V30 977 C 86.089 55.463 44.275 0
M  V30 978 C 86.457 55.119 45.591 0
M  V30 979 C 86.189 55.976 46.659 0
M  V30 980 C 85.547 57.192 46.434 0
M  V30 981 C 85.165 57.55 45.14 0
M  V30 982 C 85.423 56.702 44.055 0
M  V30 983 O 84.994 57.133 42.797 0
M  V30 984 H 84.311 57.771 42.729 0
M  V30 985 C 86.176 51.743 43.123 0
M  V30 986 C 86.438 50.355 42.99 0
M  V30 987 C 86.47 49.531 44.134 0
M  V30 988 C 86.288 50.088 45.418 0
M  V30 989 C 86.143 51.489 45.563 0
M  V30 990 C 86.018 52.288 44.411 0
M  V30 991 O 85.741 53.655 44.545 0
M  V30 992 C 85.284 54.227 45.767 0
M  V30 993 C 86.15 53.701 46.92 0
M  V30 994 C 86.209 52.2 46.877 0
M  V30 995 O 86.454 51.586 47.948 0
M  V30 996 C 85.24 55.737 45.617 0
M  V30 997 C 86 56.319 44.586 0
M  V30 998 C 86.026 57.707 44.414 0
M  V30 999 C 85.29 58.531 45.265 0
M  V30 1000 C 84.525 57.97 46.29 0
M  V30 1001 C 84.496 56.584 46.469 0
M  V30 1002 O 86.663 49.753 41.748 0
M  V30 1003 H 86.263 48.93 41.546 0
M  V30 1004 O 86.237 49.222 46.515 0
M  V30 1005 H 85.484 49.216 47.072 0
M  V30 1006 C 86.042 52.677 41.931 0
M  V30 1007 C 84.218 54.376 41.406 0
M  V30 1008 C 82.867 54.689 41.193 0
M  V30 1009 C 81.895 53.687 41.242 0
M  V30 1010 C 82.264 52.366 41.496 0
M  V30 1011 C 83.607 52.043 41.705 0
M  V30 1012 C 84.597 53.043 41.671 0
M  V30 1013 O 85.179 55.383 41.353 0
M  V30 1014 H 85.709 55.566 42.104 0
M  V30 1015 C 86.66 48.033 43.97 0
M  V30 1016 C 85.324 47.324 43.863 0
M  V30 1017 C 84.188 48.106 43.572 0
M  V30 1018 C 82.93 47.52 43.431 0
M  V30 1019 C 82.781 46.143 43.579 0
M  V30 1020 C 83.889 45.35 43.877 0
M  V30 1021 C 85.161 45.919 44.025 0
M  V30 1022 O 86.212 45.053 44.337 0
M  V30 1023 H 86.505 44.973 45.224 0
M  V30 1024 C 85.438 49.969 43.912 0
M  V30 1025 C 86.441 50.928 43.616 0
M  V30 1026 C 86.101 52.119 42.942 0
M  V30 1027 C 84.773 52.344 42.52 0
M  V30 1028 C 83.794 51.338 42.711 0
M  V30 1029 C 84.123 50.197 43.466 0
M  V30 1030 O 83.126 49.26 43.773 0
M  V30 1031 C 81.738 49.543 43.62 0
M  V30 1032 C 81.509 50.198 42.251 0
M  V30 1033 C 82.442 51.364 42.074 0
M  V30 1034 O 82.106 52.274 41.273 0
M  V30 1035 C 80.946 48.274 43.88 0
M  V30 1036 C 81.657 47.064 43.982 0
M  V30 1037 C 80.983 45.856 44.19 0
M  V30 1038 C 79.593 45.841 44.305 0
M  V30 1039 C 78.873 47.033 44.213 0
M  V30 1040 C 79.539 48.245 44.002 0
M  V30 1041 O 87.78 50.744 43.977 0
M  V30 1042 H 88.055 49.936 44.364 0
M  V30 1043 O 84.463 53.576 41.938 0
M  V30 1044 H 85.08 53.997 41.373 0
M  V30 1045 C 85.713 48.703 44.709 0
M  V30 1046 C 85.739 46.258 44 0
M  V30 1047 C 86.224 45.231 43.175 0
M  V30 1048 C 87.157 45.512 42.175 0
M  V30 1049 C 87.608 46.819 41.986 0
M  V30 1050 C 87.128 47.849 42.799 0
M  V30 1051 C 86.197 47.58 43.819 0
M  V30 1052 O 84.806 45.966 44.993 0
M  V30 1053 H 84.318 45.166 44.958 0
M  V30 1054 C 87.166 53.178 42.713 0
M  V30 1055 C 88.028 52.832 41.515 0
M  V30 1056 C 89.345 52.392 41.76 0
M  V30 1057 C 90.187 52.029 40.709 0
M  V30 1058 C 89.733 52.101 39.394 0
M  V30 1059 C 88.437 52.542 39.127 0
M  V30 1060 C 87.576 52.914 40.168 0
M  V30 1061 O 86.301 53.358 39.81 0
M  V30 1062 H 85.554 53.088 40.307 0
M  V30 1063 C 85.223 50.339 44.181 0
M  V30 1064 C 86.589 50.718 44.124 0
M  V30 1065 C 87.552 49.814 43.631 0
M  V30 1066 C 87.171 48.513 43.237 0
M  V30 1067 C 85.829 48.093 43.402 0
M  V30 1068 C 84.861 49.033 43.804 0
M  V30 1069 O 83.51 48.661 43.843 0
M  V30 1070 C 83.025 47.478 43.214 0
M  V30 1071 C 83.953 46.307 43.565 0
M  V30 1072 C 85.38 46.673 43.266 0
M  V30 1073 O 86.196 45.741 43.043 0
M  V30 1074 C 81.564 47.289 43.583 0
M  V30 1075 C 80.731 48.424 43.578 0
M  V30 1076 C 79.384 48.322 43.937 0
M  V30 1077 C 78.848 47.086 44.301 0
M  V30 1078 C 79.658 45.949 44.305 0
M  V30 1079 C 81.007 46.044 43.949 0
M  V30 1080 O 87.032 51.98 44.535 0
M  V30 1081 H 87.816 52.06 45.042 0
M  V30 1082 O 88.141 47.682 42.669 0
M  V30 1083 H 89.05 47.867 42.798 0
M  V30 1084 C 84.119 51.289 44.619 0
M  V30 1085 C 84.11 53.37 43.151 0
M  V30 1086 C 83.578 54.106 42.081 0
M  V30 1087 C 82.533 53.583 41.316 0
M  V30 1088 C 82.016 52.321 41.608 0
M  V30 1089 C 82.541 51.578 42.668 0
M  V30 1090 C 83.586 52.096 43.456 0
M  V30 1091 O 85.153 53.901 43.906 0
M  V30 1092 H 85.376 54.808 43.827 0
M  V30 1093 C 88.996 50.264 43.488 0
M  V30 1094 C 89.223 50.947 42.154 0
M  V30 1095 C 88.922 52.321 42.061 0
M  V30 1096 C 89.132 53.023 40.874 0
M  V30 1097 C 89.645 52.368 39.757 0
M  V30 1098 C 89.943 51.006 39.823 0
M  V30 1099 C 89.736 50.282 41.005 0
M  V30 1100 O 90.047 48.92 40.978 0
M  V30 1101 H 90.932 48.639 41.108 0
M  V30 1102 C 85.152 52.222 43.915 0
M  V30 1103 C 85.709 53.514 43.735 0
M  V30 1104 C 84.983 54.505 43.042 0
M  V30 1105 C 83.72 54.204 42.486 0
M  V30 1106 C 83.214 52.884 42.563 0
M  V30 1107 C 83.902 51.93 43.337 0
M  V30 1108 O 83.341 50.66 43.528 0
M  V30 1109 C 81.976 50.375 43.235 0
M  V30 1110 C 81.63 50.955 41.856 0
M  V30 1111 C 82.029 52.402 41.79 0
M  V30 1112 O 81.43 53.144 40.968 0
M  V30 1113 C 81.74 48.884 43.398 0
M  V30 1114 C 80.419 48.446 43.611 0
M  V30 1115 C 80.139 47.09 43.798 0
M  V30 1116 C 81.171 46.151 43.77 0
M  V30 1117 C 82.486 46.567 43.553 0
M  V30 1118 C 82.774 47.923 43.367 0
M  V30 1119 O 86.97 53.86 44.231 0
M  V30 1120 H 87.637 54.164 43.646 0
M  V30 1121 O 82.996 55.24 41.888 0
M  V30 1122 H 82.265 55.619 42.335 0
M  V30 1123 C 85.838 51.131 44.722 0
M  V30 1124 C 86.725 50.783 47.084 0
M  V30 1125 C 86.709 51.097 48.452 0
M  V30 1126 C 85.846 52.08 48.94 0
M  V30 1127 C 84.998 52.762 48.067 0
M  V30 1128 C 85.009 52.461 46.703 0
M  V30 1129 C 85.864 51.464 46.197 0
M  V30 1130 O 87.592 49.802 46.608 0
M  V30 1131 H 87.919 49.85 45.731 0
M  V30 1132 C 85.55 55.91 42.936 0
M  V30 1133 C 85.16 56.746 44.139 0
M  V30 1134 C 84.417 56.12 45.16 0
M  V30 1135 C 84.046 56.817 46.309 0
M  V30 1136 C 84.408 58.154 46.462 0
M  V30 1137 C 85.136 58.798 45.461 0
M  V30 1138 C 85.516 58.115 44.297 0
M  V30 1139 O 86.23 58.84 43.34 0
M  V30 1140 H 87.085 58.557 43.079 0
M  V30 1141 C 86.402 50.15 43.868 0
M  V30 1142 C 86.459 51.567 43.872 0
M  V30 1143 C 87.371 52.238 43.032 0
M  V30 1144 C 88.263 51.505 42.22 0
M  V30 1145 C 88.288 50.091 42.301 0
M  V30 1146 C 87.31 49.431 43.069 0
M  V30 1147 O 87.245 48.032 43.05 0
M  V30 1148 C 87.916 47.248 42.067 0
M  V30 1149 C 89.357 47.758 41.92 0
M  V30 1150 C 89.357 49.243 41.691 0
M  V30 1151 O 90.347 49.75 41.101 0
M  V30 1152 C 87.774 45.78 42.428 0
M  V30 1153 C 86.476 45.243 42.504 0
M  V30 1154 C 86.276 43.906 42.861 0
M  V30 1155 C 87.369 43.086 43.141 0
M  V30 1156 C 88.665 43.6 43.064 0
M  V30 1157 C 88.872 44.937 42.71 0
M  V30 1158 O 85.626 52.346 44.683 0
M  V30 1159 H 84.952 51.939 45.191 0
M  V30 1160 O 89.086 52.21 41.336 0
M  V30 1161 H 89.121 53.145 41.373 0
M  V30 1162 C 85.387 49.361 44.681 0
M  V30 1163 C 83.439 48.059 43.683 0
M  V30 1164 C 82.206 48.03 43.014 0
M  V30 1165 C 81.575 49.22 42.647 0
M  V30 1166 C 82.166 50.447 42.949 0
M  V30 1167 C 83.392 50.487 43.619 0
M  V30 1168 C 84.046 49.296 43.985 0
M  V30 1169 O 84.058 46.864 44.047 0
M  V30 1170 H 84.132 46.166 43.426 0
M  V30 1171 C 87.358 53.756 42.977 0
M  V30 1172 C 86.077 54.267 42.348 0
M  V30 1173 C 85.56 53.558 41.245 0
M  V30 1174 C 84.37 53.951 40.633 0
M  V30 1175 C 83.675 55.061 41.107 0
M  V30 1176 C 84.172 55.784 42.192 0
M  V30 1177 C 85.367 55.406 42.82 0
M  V30 1178 O 85.799 56.195 43.889 0
M  V30 1179 H 86.011 57.097 43.75 0
M  V30 1180 C 86.07 52.223 43.029 0
M  V30 1181 C 86.437 50.877 42.775 0
M  V30 1182 C 86.544 49.961 43.843 0
M  V30 1183 C 86.333 50.389 45.171 0
M  V30 1184 C 86.081 51.757 45.438 0
M  V30 1185 C 85.883 52.641 44.36 0
M  V30 1186 O 85.503 53.965 44.613 0
M  V30 1187 C 85.015 54.392 45.883 0
M  V30 1188 C 85.931 53.837 46.982 0
M  V30 1189 C 86.106 52.354 46.809 0
M  V30 1190 O 86.409 51.671 47.821 0
M  V30 1191 C 84.853 55.901 45.865 0
M  V30 1192 C 85.573 56.63 44.9 0
M  V30 1193 C 85.49 58.025 44.851 0
M  V30 1194 C 84.685 58.711 45.76 0
M  V30 1195 C 83.959 58.003 46.72 0
M  V30 1196 C 84.038 56.609 46.777 0
M  V30 1197 O 86.694 50.404 41.484 0
M  V30 1198 H 86.028 50.448 40.827 0
M  V30 1199 O 86.36 49.43 46.188 0
M  V30 1200 H 87.042 48.789 46.21 0
M  V30 1201 C 85.851 53.244 41.923 0
M  V30 1202 C 83.873 54.732 41.323 0
M  V30 1203 C 82.499 54.901 41.094 0
M  V30 1204 C 81.63 53.812 41.18 0
M  V30 1205 C 82.126 52.545 41.489 0
M  V30 1206 C 83.492 52.364 41.715 0
M  V30 1207 C 84.379 53.454 41.644 0
M  V30 1208 O 84.731 55.826 41.233 0
M  V30 1209 H 85.39 55.852 40.567 0
M  V30 1210 C 86.847 48.502 43.548 0
M  V30 1211 C 88.258 48.335 43.019 0
M  V30 1212 C 89.266 49.152 43.57 0
M  V30 1213 C 90.592 49.036 43.153 0
M  V30 1214 C 90.938 48.104 42.177 0
M  V30 1215 C 89.955 47.29 41.611 0
M  V30 1216 C 88.617 47.394 42.014 0
M  V30 1217 O 87.698 46.551 41.385 0
M  V30 1218 H 87.943 45.674 41.161 0
M  V30 1219 C 86.01 50.396 43.713 0
M  V30 1220 C 86.678 49.549 42.792 0
M  V30 1221 C 87.762 50.044 42.037 0
M  V30 1222 C 88.157 51.393 42.159 0
M  V30 1223 C 87.418 52.27 42.99 0
M  V30 1224 C 86.401 51.744 43.809 0
M  V30 1225 O 85.755 52.579 44.731 0
M  V30 1226 C 86.27 53.855 45.098 0
M  V30 1227 C 86.682 54.613 43.829 0
M  V30 1228 C 87.586 53.756 42.988 0
M  V30 1229 O 88.375 54.33 42.192 0
M  V30 1230 C 85.254 54.56 45.981 0
M  V30 1231 C 84.513 53.777 46.886 0
M  V30 1232 C 83.541 54.361 47.704 0
M  V30 1233 C 83.3 55.733 47.635 0
M  V30 1234 C 84.03 56.526 46.747 0
M  V30 1235 C 85.002 55.949 45.923 0
M  V30 1236 O 86.308 48.214 42.6 0
M  V30 1237 H 86.168 47.885 41.734 0
M  V30 1238 O 89.292 51.817 41.462 0
M  V30 1239 H 89.649 51.284 40.779 0
M  V30 1240 C 84.891 49.91 44.622 0
M  V30 1241 C 82.968 48.59 43.6 0
M  V30 1242 C 81.755 48.549 42.895 0
M  V30 1243 C 81.142 49.732 42.476 0
M  V30 1244 C 81.73 50.964 42.764 0
M  V30 1245 C 82.935 51.016 43.469 0
M  V30 1246 C 83.571 49.833 43.887 0
M  V30 1247 O 83.569 47.404 44.014 0
M  V30 1248 H 83.972 46.837 43.385 0
M  V30 1249 C 88.527 49.102 41.123 0
M  V30 1250 C 89.437 48.19 41.921 0
M  V30 1251 C 90.532 48.776 42.588 0
M  V30 1252 C 91.397 48.005 43.364 0
M  V30 1253 C 91.187 46.633 43.489 0
M  V30 1254 C 90.115 46.029 42.831 0
M  V30 1255 C 89.237 46.787 42.044 0
M  V30 1256 O 88.199 46.099 41.41 0
M  V30 1257 H 87.846 45.322 41.798 0
M  V30 1258 C 85.51 50.938 43.303 0
M  V30 1259 C 84.928 52.226 43.196 0
M  V30 1260 C 85.284 53.075 42.127 0
M  V30 1261 C 86.255 52.666 41.187 0
M  V30 1262 C 86.922 51.429 41.357 0
M  V30 1263 C 86.491 50.552 42.37 0
M  V30 1264 O 87.055 49.272 42.463 0
M  V30 1265 C 87.825 48.698 41.41 0
M  V30 1266 C 88.837 49.737 40.906 0
M  V30 1267 C 88.135 51.026 40.581 0
M  V30 1268 O 88.675 51.801 39.75 0
M  V30 1269 C 88.419 47.387 41.894 0
M  V30 1270 C 89.797 47.352 42.177 0
M  V30 1271 C 90.409 46.168 42.597 0
M  V30 1272 C 89.655 45.004 42.745 0
M  V30 1273 C 88.285 45.022 42.474 0
M  V30 1274 C 87.666 46.202 42.052 0
M  V30 1275 O 83.989 52.701 44.118 0
M  V30 1276 H 83.305 53.277 43.837 0
M  V30 1277 O 86.51 53.5 40.094 0
M  V30 1278 H 86.609 53.134 39.238 0
M  V30 1279 C 85.112 49.936 44.376 0
M  V30 1280 C 84.38 47.556 43.845 0
M  V30 1281 C 83.432 46.656 43.336 0
M  V30 1282 C 82.212 47.122 42.842 0
M  V30 1283 C 81.926 48.487 42.859 0
M  V30 1284 C 82.861 49.391 43.368 0
M  V30 1285 C 84.1 48.939 43.858 0
M  V30 1286 O 85.594 47.079 44.337 0
M  V30 1287 H 86.236 46.734 43.748 0
M  V30 1288 C 84.586 54.415 41.972 0
M  V30 1289 C 85.093 55.415 42.992 0
M  V30 1290 C 84.149 56.267 43.601 0
M  V30 1291 C 84.537 57.193 44.569 0
M  V30 1292 C 85.874 57.288 44.948 0
M  V30 1293 C 86.828 56.461 44.353 0
M  V30 1294 C 86.458 55.526 43.377 0
M  V30 1295 O 87.48 54.749 42.823 0
M  V30 1296 H 88.366 55.053 42.85 0
M  V30 1297 C 86.742 51.88 45.136 0
M  V30 1298 O 86.096 50.605 45.213 0
M  V30 1299 C 86.349 49.577 44.294 0
M  V30 1300 C 85.89 48.288 44.576 0
M  V30 1301 C 86.137 47.242 43.686 0
M  V30 1302 C 86.823 47.492 42.492 0
M  V30 1303 C 87.257 48.785 42.173 0
M  V30 1304 C 87.05 49.839 43.098 0
M  V30 1305 C 87.523 51.23 42.893 0
M  V30 1306 O 88.496 51.494 42.138 0
M  V30 1307 C 86.866 52.339 43.669 0
M  V30 1308 C 84.635 54.735 47.608 0
M  V30 1309 C 85.98 54.946 47.289 0
M  V30 1310 C 86.662 54.035 46.477 0
M  V30 1311 C 86.002 52.901 45.97 0
M  V30 1312 C 84.655 52.688 46.307 0
M  V30 1313 C 83.973 53.604 47.113 0
M  V30 1314 O 83.969 55.65 48.42 0
M  V30 1315 H 83.127 55.439 48.771 0
M  V30 1316 O 85.691 45.959 43.993 0
M  V30 1317 H 84.863 45.84 44.415 0
M  V30 1318 O 87.849 48.975 40.921 0
M  V30 1319 H 88.749 48.75 40.79 0
M  V30 1320 O 85.574 52.58 43.139 0
M  V30 1321 C 85.613 53.552 42.107 0
M  V30 1322 O 86.358 54.692 42.529 0
M  V30 1323 C 85.579 55.544 43.348 0
M  V30 1324 C 86.503 56.545 44.041 0
M  V30 1325 C 84.502 56.273 42.5 0
M  V30 1326 C 84.039 55.392 41.309 0
M  V30 1327 C 84.156 53.903 41.683 0
M  V30 1328 O 83.703 53.069 40.643 0
M  V30 1329 H 83.606 52.163 40.974 0
M  V30 1330 O 84.835 55.659 40.181 0
M  V30 1331 H 85.43 54.91 40.02 0
M  V30 1332 O 83.407 56.58 43.325 0
M  V30 1333 H 83.677 56.525 44.254 0
M  V30 1334 C 85.337 50.356 44.102 0
M  V30 1335 O 84.112 49.707 44.458 0
M  V30 1336 C 82.909 49.95 43.781 0
M  V30 1337 C 81.822 49.1 44.003 0
M  V30 1338 C 80.615 49.31 43.336 0
M  V30 1339 C 80.484 50.394 42.46 0
M  V30 1340 C 81.548 51.28 42.253 0
M  V30 1341 C 82.791 51.04 42.894 0
M  V30 1342 C 84.002 51.874 42.697 0
M  V30 1343 O 84.17 52.562 41.656 0
M  V30 1344 C 85.085 51.833 43.741 0
M  V30 1345 C 88.248 50.095 47.289 0
M  V30 1346 C 86.883 50.095 47.589 0
M  V30 1347 C 85.936 50.164 46.562 0
M  V30 1348 C 86.348 50.228 45.219 0
M  V30 1349 C 87.722 50.242 44.925 0
M  V30 1350 C 88.666 50.167 45.954 0
M  V30 1351 O 89.18 50.03 48.323 0
M  V30 1352 H 88.97 49.575 49.114 0
M  V30 1353 O 79.549 48.44 43.554 0
M  V30 1354 H 79.228 47.909 42.852 0
M  V30 1355 O 81.312 52.392 41.441 0
M  V30 1356 H 80.991 53.187 41.816 0
M  V30 1357 O 84.651 52.534 44.894 0
M  V30 1358 C 85.417 53.71 45.102 0
M  V30 1359 O 85.899 53.755 46.443 0
M  V30 1360 C 84.898 54.207 47.337 0
M  V30 1361 C 85.344 53.911 48.769 0
M  V30 1362 C 84.638 55.723 47.134 0
M  V30 1363 C 84.869 56.137 45.656 0
M  V30 1364 C 84.556 54.951 44.725 0
M  V30 1365 O 84.711 55.3 43.37 0
M  V30 1366 H 85.424 55.951 43.284 0
M  V30 1367 O 86.206 56.536 45.477 0
M  V30 1368 H 86.569 56.841 46.323 0
M  V30 1369 O 83.316 56.011 47.512 0
M  V30 1370 H 83.249 56.012 48.48 0
M  V30 1371 C 83.953 51.749 43.292 0
M  V30 1372 O 84.316 52.143 44.619 0
M  V30 1373 C 84.932 53.371 44.897 0
M  V30 1374 C 85.019 53.801 46.224 0
M  V30 1375 C 85.616 55.024 46.53 0
M  V30 1376 C 86.156 55.81 45.506 0
M  V30 1377 C 86.113 55.379 44.174 0
M  V30 1378 C 85.464 54.16 43.856 0
M  V30 1379 C 85.303 53.639 42.476 0
M  V30 1380 O 85.319 54.402 41.474 0
M  V30 1381 C 85.039 52.17 42.283 0
M  V30 1382 C 83.204 47.491 43.228 0
M  V30 1383 C 82.192 48.383 42.861 0
M  V30 1384 C 82.433 49.76 42.864 0
M  V30 1385 C 83.695 50.26 43.232 0
M  V30 1386 C 84.702 49.358 43.614 0
M  V30 1387 C 84.461 47.982 43.603 0
M  V30 1388 O 82.948 46.121 43.223 0
M  V30 1389 H 83.203 45.599 42.488 0
M  V30 1390 O 85.676 55.446 47.856 0
M  V30 1391 H 86.487 55.408 48.324 0
M  V30 1392 O 86.757 56.172 43.22 0
M  V30 1393 H 86.766 57.104 43.314 0
M  V30 1394 O 86.229 51.443 42.54 0
M  V30 1395 C 87.022 51.32 41.371 0
M  V30 1396 O 87.139 49.95 40.996 0
M  V30 1397 C 88.119 49.284 41.771 0
M  V30 1398 C 87.965 47.776 41.575 0
M  V30 1399 C 89.541 49.757 41.367 0
M  V30 1400 C 89.525 51.236 40.896 0
M  V30 1401 C 88.4 52.002 41.615 0
M  V30 1402 O 88.38 53.361 41.248 0
M  V30 1403 H 88.692 53.453 40.335 0
M  V30 1404 O 89.318 51.291 39.506 0
M  V30 1405 H 89.415 52.207 39.201 0
M  V30 1406 O 90.397 49.614 42.471 0
M  V30 1407 H 91.065 50.317 42.456 0
M  V30 1408 C 87.11 53.238 44.198 0
M  V30 1409 O 86.015 54.157 44.271 0
M  V30 1410 C 85.306 54.389 45.458 0
M  V30 1411 C 84.431 55.477 45.524 0
M  V30 1412 C 83.72 55.739 46.694 0
M  V30 1413 C 83.862 54.892 47.799 0
M  V30 1414 C 84.704 53.774 47.741 0
M  V30 1415 C 85.464 53.534 46.568 0
M  V30 1416 C 86.433 52.42 46.42 0
M  V30 1417 O 86.983 51.884 47.417 0
M  V30 1418 C 86.818 51.977 45.034 0
M  V30 1419 C 87.983 52.337 40.06 0
M  V30 1420 C 88.977 52.188 41.032 0
M  V30 1421 C 88.697 52.463 42.374 0
M  V30 1422 C 87.412 52.887 42.759 0
M  V30 1423 C 86.422 53.049 41.775 0
M  V30 1424 C 86.704 52.766 40.436 0
M  V30 1425 O 88.279 52.063 38.727 0
M  V30 1426 H 87.956 52.623 38.05 0
M  V30 1427 O 82.868 56.841 46.749 0
M  V30 1428 H 82.885 57.408 47.495 0
M  V30 1429 O 84.721 52.922 48.848 0
M  V30 1430 H 84.673 53.277 49.714 0
M  V30 1431 O 85.738 51.266 44.453 0
M  V30 1432 C 85.796 49.885 44.775 0
M  V30 1433 O 87.151 49.443 44.811 0
M  V30 1434 C 87.649 49.196 43.509 0
M  V30 1435 C 89.17 49.065 43.578 0
M  V30 1436 C 87.004 47.914 42.918 0
M  V30 1437 C 85.559 47.719 43.451 0
M  V30 1438 C 84.926 49.089 43.759 0
M  V30 1439 O 83.596 48.958 44.204 0
M  V30 1440 H 83.414 48.027 44.407 0
M  V30 1441 O 85.584 46.938 44.621 0
M  V30 1442 H 86.233 46.225 44.52 0
M  V30 1443 O 86.989 48.019 41.517 0
M  V30 1444 H 87.898 48.095 41.189 0
M  V30 1445 C 87.703 52.557 44.72 0
M  V30 1446 O 87.852 51.136 44.633 0
M  V30 1447 C 88.336 50.5 43.482 0
M  V30 1448 C 88.702 49.153 43.553 0
M  V30 1449 C 89.197 48.497 42.427 0
M  V30 1450 C 89.302 49.183 41.212 0
M  V30 1451 C 88.904 50.522 41.109 0
M  V30 1452 C 88.446 51.205 42.264 0
M  V30 1453 C 88.062 52.637 42.286 0
M  V30 1454 O 88.512 53.456 41.441 0
M  V30 1455 C 87.169 53.13 43.392 0
M  V30 1456 C 85.213 53.591 48.101 0
M  V30 1457 C 85.775 54.601 47.314 0
M  V30 1458 C 86.569 54.273 46.21 0
M  V30 1459 C 86.804 52.926 45.879 0
M  V30 1460 C 86.248 51.917 46.683 0
M  V30 1461 C 85.45 52.248 47.782 0
M  V30 1462 O 84.428 53.934 49.2 0
M  V30 1463 H 84.521 53.467 50.006 0
M  V30 1464 O 89.576 47.159 42.522 0
M  V30 1465 H 89.2 46.612 43.183 0
M  V30 1466 O 88.948 51.111 39.843 0
M  V30 1467 H 88.976 52.044 39.761 0
M  V30 1468 O 85.849 52.662 43.173 0
M  V30 1469 C 84.902 53.709 43.306 0
M  V30 1470 O 83.581 53.206 43.117 0
M  V30 1471 C 83.276 53.059 41.742 0
M  V30 1472 C 82.012 52.211 41.602 0
M  V30 1473 C 83.092 54.45 41.077 0
M  V30 1474 C 83.99 55.517 41.758 0
M  V30 1475 C 85.263 54.852 42.314 0
M  V30 1476 O 86.127 55.796 42.901 0
M  V30 1477 H 85.654 56.633 43.028 0
M  V30 1478 O 83.286 56.136 42.806 0
M  V30 1479 H 83.241 55.534 43.565 0
M  V30 1480 O 83.416 54.347 39.714 0
M  V30 1481 H 84.342 54.603 39.582 0
M  V30 1482 C 86.947 51.957 43.115 0
M  V30 1483 O 87.785 51.337 44.096 0
M  V30 1484 C 87.412 51.227 45.443 0
M  V30 1485 C 88.148 50.389 46.285 0
M  V30 1486 C 87.793 50.251 47.626 0
M  V30 1487 C 86.712 50.977 48.139 0
M  V30 1488 C 85.986 51.853 47.321 0
M  V30 1489 C 86.315 51.957 45.946 0
M  V30 1490 C 85.574 52.801 44.976 0
M  V30 1491 O 84.374 53.131 45.167 0
M  V30 1492 C 86.259 53.206 43.699 0
M  V30 1493 C 89.25 52.825 39.56 0
M  V30 1494 C 87.855 52.767 39.491 0
M  V30 1495 C 87.104 52.502 40.64 0
M  V30 1496 C 87.744 52.297 41.876 0
M  V30 1497 C 89.147 52.342 41.935 0
M  V30 1498 C 89.894 52.614 40.786 0
M  V30 1499 O 89.985 53.087 38.406 0
M  V30 1500 H 90.92 53.026 38.421 0
M  V30 1501 O 88.525 49.395 48.446 0
M  V30 1502 H 89.38 49.113 48.184 0
M  V30 1503 O 84.983 52.615 47.925 0
M  V30 1504 H 84.424 52.228 48.57 0
M  V30 1505 O 87.236 54.193 43.985 0
M  V30 1506 C 86.784 55.487 43.622 0
M  V30 1507 O 86.858 56.368 44.741 0
M  V30 1508 C 85.757 56.19 45.613 0
M  V30 1509 C 86.056 56.891 46.938 0
M  V30 1510 C 84.46 56.747 44.966 0
M  V30 1511 C 84.501 56.604 43.421 0
M  V30 1512 C 85.347 55.378 43.031 0
M  V30 1513 O 85.372 55.187 41.637 0
M  V30 1514 H 84.963 55.949 41.199 0
M  V30 1515 O 85.057 57.762 42.849 0
M  V30 1516 H 85.484 58.291 43.54 0
M  V30 1517 O 83.358 56.047 45.485 0
M  V30 1518 H 83.663 55.416 46.155 0
M  V30 1519 C 85.062 52.602 44.711 0
M  V30 1520 O 83.942 52.05 44.01 0
M  V30 1521 C 83.743 50.669 43.881 0
M  V30 1522 C 82.51 50.201 43.418 0
M  V30 1523 C 82.279 48.832 43.29 0
M  V30 1524 C 83.297 47.923 43.598 0
M  V30 1525 C 84.553 48.372 44.025 0
M  V30 1526 C 84.774 49.761 44.203 0
M  V30 1527 C 86.04 50.343 44.711 0
M  V30 1528 O 86.835 49.677 45.426 0
M  V30 1529 C 86.339 51.789 44.422 0
M  V30 1530 C 85.675 56.745 43.635 0
M  V30 1531 C 84.723 55.981 42.954 0
M  V30 1532 C 84.509 54.645 43.308 0
M  V30 1533 C 85.245 54.06 44.354 0
M  V30 1534 C 86.211 54.829 45.023 0
M  V30 1535 C 86.418 56.166 44.672 0
M  V30 1536 O 85.88 58.073 43.269 0
M  V30 1537 H 85.883 58.315 42.364 0
M  V30 1538 O 81.036 48.384 42.848 0
M  V30 1539 H 80.253 48.711 43.244 0
M  V30 1540 O 85.548 47.41 44.221 0
M  V30 1541 H 86.045 47.095 43.493 0
M  V30 1542 O 86.689 51.931 43.056 0
M  V30 1543 C 87.892 51.24 42.757 0
M  V30 1544 O 88.932 52.168 42.456 0
M  V30 1545 C 88.833 52.641 41.125 0
M  V30 1546 C 89.738 53.863 40.966 0
M  V30 1547 C 89.224 51.522 40.123 0
M  V30 1548 C 88.854 50.121 40.678 0
M  V30 1549 C 87.626 50.231 41.602 0
M  V30 1550 O 87.23 48.972 42.092 0
M  V30 1551 H 87.597 48.842 42.98 0
M  V30 1552 O 89.939 49.591 41.399 0
M  V30 1553 H 89.903 49.906 42.316 0
M  V30 1554 O 88.557 51.749 38.908 0
M  V30 1555 H 88.516 52.703 38.735 0
M  V30 1556 C 85.778 53.157 42.807 0
M  V30 1557 O 87.117 52.755 42.502 0
M  V30 1558 C 87.512 51.41 42.481 0
M  V30 1559 C 88.751 51.075 41.926 0
M  V30 1560 C 89.166 49.745 41.88 0
M  V30 1561 C 88.35 48.743 42.419 0
M  V30 1562 C 87.124 49.061 43.015 0
M  V30 1563 C 86.678 50.408 43.018 0
M  V30 1564 C 85.371 50.849 43.562 0
M  V30 1565 O 84.391 50.062 43.652 0
M  V30 1566 C 85.197 52.294 43.945 0
M  V30 1567 C 85.583 57.34 43.883 0
M  V30 1568 C 86.721 56.592 44.195 0
M  V30 1569 C 86.797 55.242 43.836 0
M  V30 1570 C 85.732 54.628 43.154 0
M  V30 1571 C 84.584 55.382 42.857 0
M  V30 1572 C 84.514 56.732 43.211 0
M  V30 1573 O 85.52 58.683 44.25 0
M  V30 1574 H 86.22 59.263 44.025 0
M  V30 1575 O 90.394 49.427 41.304 0
M  V30 1576 H 91.11 50.029 41.367 0
M  V30 1577 O 86.41 48.021 43.615 0
M  V30 1578 H 86.737 47.618 44.396 0
M  V30 1579 O 85.91 52.55 45.142 0
M  V30 1580 C 85.084 52.377 46.282 0
M  V30 1581 O 84.156 53.454 46.388 0
M  V30 1582 C 84.758 54.602 46.957 0
M  V30 1583 C 83.842 55.805 46.731 0
M  V30 1584 C 85.026 54.378 48.469 0
M  V30 1585 C 85.322 52.885 48.769 0
M  V30 1586 C 85.983 52.226 47.545 0
M  V30 1587 O 86.309 50.879 47.793 0
M  V30 1588 H 87.261 50.803 47.962 0
M  V30 1589 O 84.125 52.214 49.076 0
M  V30 1590 H 83.498 52.837 49.476 0
M  V30 1591 O 86.117 55.173 48.858 0
M  V30 1592 H 86.122 55.264 49.824 0
M  V30 1593 C 86.745 53.211 44.202 0
M  V30 1594 O 86.036 54.454 44.256 0
M  V30 1595 C 85.273 54.837 45.367 0
M  V30 1596 C 84.827 56.158 45.461 0
M  V30 1597 C 84.075 56.571 46.561 0
M  V30 1598 C 83.742 55.65 47.561 0
M  V30 1599 C 84.145 54.313 47.467 0
M  V30 1600 C 84.95 53.902 46.374 0
M  V30 1601 C 85.487 52.53 46.207 0
M  V30 1602 O 85.655 51.76 47.189 0
M  V30 1603 C 85.909 52.08 44.834 0
M  V30 1604 C 87.88 52.367 40.117 0
M  V30 1605 C 88.693 51.938 41.17 0
M  V30 1606 C 88.323 52.194 42.494 0
M  V30 1607 C 87.13 52.881 42.778 0
M  V30 1608 C 86.325 53.323 41.714 0
M  V30 1609 C 86.694 53.059 40.392 0
M  V30 1610 O 88.264 52.108 38.802 0
M  V30 1611 H 88.145 52.76 38.142 0
M  V30 1612 O 83.657 57.897 46.649 0
M  V30 1613 H 83.163 58.184 47.391 0
M  V30 1614 O 83.694 53.433 48.453 0
M  V30 1615 H 84.286 53.119 49.108 0
M  V30 1616 O 84.756 51.848 44.042 0
M  V30 1617 C 84.805 50.575 43.419 0
M  V30 1618 O 83.888 50.523 42.329 0
M  V30 1619 C 82.565 50.29 42.777 0
M  V30 1620 C 81.596 50.583 41.632 0
M  V30 1621 C 82.414 48.829 43.277 0
M  V30 1622 C 83.743 48.304 43.882 0
M  V30 1623 C 84.54 49.474 44.488 0
M  V30 1624 O 85.735 49.033 45.088 0
M  V30 1625 H 85.593 48.161 45.486 0
M  V30 1626 O 84.51 47.681 42.881 0
M  V30 1627 H 85.439 47.942 42.975 0
M  V30 1628 O 81.395 48.783 44.244 0
M  V30 1629 H 81.51 47.996 44.797 0
M  V30 1630 C 90.091 52.389 40.962 0
M  V30 1631 C 88.91 51.679 41.566 0
M  V30 1632 C 88.768 50.355 41.36 0
M  V30 1633 C 87.586 49.558 41.876 0
M  V30 1634 C 86.901 50.217 43.127 0
M  V30 1635 C 86.679 51.717 42.799 0
M  V30 1636 C 87.99 52.453 42.485 0
M  V30 1637 C 87.773 50.067 44.402 0
M  V30 1638 C 87.966 48.096 42.081 0
M  V30 1639 C 89.329 47.68 42.089 0
M  V30 1640 C 89.672 46.333 42.295 0
M  V30 1641 C 88.641 45.419 42.483 0
M  V30 1642 C 87.329 45.803 42.467 0
M  V30 1643 C 86.95 47.127 42.265 0
M  V30 1644 C 86.566 44.674 42.676 0
M  V30 1645 C 87.482 43.636 42.811 0
M  V30 1646 N 88.749 44.096 42.693 0
M  V30 1647 H 89.579 43.57 42.749 0
M  V30 1648 C 85.541 49.567 43.367 0
M  V30 1649 C 84.384 50.133 42.987 0
M  V30 1650 C 83.053 49.523 43.221 0
M  V30 1651 C 81.898 50.318 42.999 0
M  V30 1652 C 80.609 49.793 43.197 0
M  V30 1653 C 80.501 48.467 43.606 0
M  V30 1654 C 81.606 47.687 43.81 0
M  V30 1655 C 82.897 48.172 43.624 0
M  V30 1656 C 81.164 46.438 44.191 0
M  V30 1657 C 79.775 46.532 44.2 0
M  V30 1658 N 79.375 47.774 43.842 0
M  V30 1659 H 78.45 48.102 43.769 0
M  V30 1660 C 88.885 47.643 42.246 0
M  V30 1661 C 88.095 48.726 42.927 0
M  V30 1662 C 86.764 48.794 42.72 0
M  V30 1663 C 85.888 49.88 43.314 0
M  V30 1664 C 86.494 50.513 44.617 0
M  V30 1665 C 87.977 50.859 44.32 0
M  V30 1666 C 88.8 49.627 43.919 0
M  V30 1667 C 86.397 49.543 45.824 0
M  V30 1668 C 84.453 49.388 43.477 0
M  V30 1669 C 83.363 50.301 43.56 0
M  V30 1670 C 82.043 49.839 43.694 0
M  V30 1671 C 81.835 48.465 43.749 0
M  V30 1672 C 82.873 47.578 43.681 0
M  V30 1673 C 84.194 47.997 43.55 0
M  V30 1674 C 82.339 46.311 43.767 0
M  V30 1675 C 80.967 46.502 43.887 0
M  V30 1676 N 80.663 47.82 43.875 0
M  V30 1677 H 79.768 48.224 43.944 0
M  V30 1678 C 85.753 51.805 44.95 0
M  V30 1679 C 86.377 52.919 45.367 0
M  V30 1680 C 85.674 54.179 45.705 0
M  V30 1681 C 84.607 54.127 46.641 0
M  V30 1682 C 83.907 55.29 47.007 0
M  V30 1683 C 84.3 56.495 46.432 0
M  V30 1684 C 85.335 56.561 45.54 0
M  V30 1685 C 86.051 55.431 45.155 0
M  V30 1686 C 85.478 57.881 45.173 0
M  V30 1687 C 84.493 58.564 45.88 0
M  V30 1688 N 83.776 57.712 46.648 0
M  V30 1689 H 83.025 57.938 47.243 0
M  V30 1690 C 84.456 55.088 48.467 0
M  V30 1691 C 84.809 53.849 47.69 0
M  V30 1692 C 84.21 53.629 46.503 0
M  V30 1693 C 84.454 52.386 45.67 0
M  V30 1694 C 85.842 51.712 45.965 0
M  V30 1695 C 85.983 51.594 47.506 0
M  V30 1696 C 85.915 52.956 48.21 0
M  V30 1697 C 87.016 52.539 45.378 0
M  V30 1698 C 84.207 52.667 44.192 0
M  V30 1699 C 83.688 51.664 43.324 0
M  V30 1700 C 83.448 51.937 41.967 0
M  V30 1701 C 83.74 53.213 41.496 0
M  V30 1702 C 84.248 54.182 42.317 0
M  V30 1703 C 84.501 53.949 43.665 0
M  V30 1704 C 84.429 55.315 41.553 0
M  V30 1705 C 84.009 54.963 40.275 0
M  V30 1706 N 83.588 53.678 40.245 0
M  V30 1707 H 83.242 53.184 39.467 0
M  V30 1708 C 85.866 50.308 45.368 0
M  V30 1709 C 86.7 49.95 44.378 0
M  V30 1710 C 86.732 48.595 43.777 0
M  V30 1711 C 87.671 48.336 42.744 0
M  V30 1712 C 87.753 47.068 42.141 0
M  V30 1713 C 86.893 46.074 42.596 0
M  V30 1714 C 85.993 46.306 43.599 0
M  V30 1715 C 85.883 47.548 44.22 0
M  V30 1716 C 85.31 45.13 43.821 0
M  V30 1717 C 85.847 44.222 42.913 0
M  V30 1718 N 86.814 44.804 42.166 0
M  V30 1719 H 87.349 44.383 41.456 0
M  V30 1720 C 83.84 54.955 48.777 0
M  V30 1721 C 84.553 53.924 47.946 0
M  V30 1722 C 84.062 53.61 46.73 0
M  V30 1723 C 84.673 52.546 45.84 0
M  V30 1724 C 86.194 52.292 46.141 0
M  V30 1725 C 86.342 52.128 47.676 0
M  V30 1726 C 85.866 53.364 48.451 0
M  V30 1727 C 87.08 53.461 45.636 0
M  V30 1728 C 84.375 52.832 44.372 0
M  V30 1729 C 83.838 51.828 43.516 0
M  V30 1730 C 83.55 52.105 42.169 0
M  V30 1731 C 83.813 53.386 41.696 0
M  V30 1732 C 84.338 54.357 42.504 0
M  V30 1733 C 84.637 54.12 43.842 0
M  V30 1734 C 84.481 55.495 41.741 0
M  V30 1735 C 84.022 55.145 40.476 0
M  V30 1736 N 83.615 53.856 40.453 0
M  V30 1737 H 83.248 53.363 39.684 0
M  V30 1738 C 86.639 50.996 45.469 0
M  V30 1739 C 87.367 50.971 44.34 0
M  V30 1740 C 87.8 49.723 43.667 0
M  V30 1741 C 86.802 48.848 43.163 0
M  V30 1742 C 87.151 47.653 42.509 0
M  V30 1743 C 88.503 47.361 42.362 0
M  V30 1744 C 89.474 48.203 42.831 0
M  V30 1745 C 89.167 49.394 43.483 0
M  V30 1746 C 90.693 47.641 42.519 0
M  V30 1747 C 90.387 46.454 41.861 0
M  V30 1748 N 89.047 46.287 41.768 0
M  V30 1749 H 88.57 45.535 41.35 0
M  V30 1750 C 91.435 49.088 42.676 0
M  V30 1751 C 89.951 48.915 42.85 0
M  V30 1752 C 89.347 49.484 43.913 0
M  V30 1753 C 87.869 49.322 44.21 0
M  V30 1754 C 87.019 48.991 42.931 0
M  V30 1755 C 87.739 47.841 42.179 0
M  V30 1756 C 89.169 48.213 41.761 0
M  V30 1757 C 86.869 50.229 42.007 0
M  V30 1758 C 87.344 50.511 45.008 0
M  V30 1759 C 87.241 51.806 44.425 0
M  V30 1760 C 86.741 52.893 45.162 0
M  V30 1761 C 86.357 52.665 46.48 0
M  V30 1762 C 86.461 51.429 47.055 0
M  V30 1763 C 86.952 50.33 46.357 0
M  V30 1764 C 86.009 51.539 48.352 0
M  V30 1765 C 85.645 52.873 48.498 0
M  V30 1766 N 85.86 53.558 47.351 0
M  V30 1767 H 85.686 54.513 47.189 0
M  V30 1768 C 85.634 48.505 43.349 0
M  V30 1769 C 84.517 49.225 43.154 0
M  V30 1770 C 83.165 48.774 43.562 0
M  V30 1771 C 82.2 49.759 43.904 0
M  V30 1772 C 80.899 49.393 44.292 0
M  V30 1773 C 80.585 48.038 44.32 0
M  V30 1774 C 81.501 47.081 43.981 0
M  V30 1775 C 82.797 47.405 43.592 0
M  V30 1776 C 80.88 45.856 44.098 0
M  V30 1777 C 79.584 46.145 44.516 0
M  V30 1778 N 79.409 47.479 44.651 0
M  V30 1779 H 78.589 47.945 44.932 0
M  V30 1780 C 86.691 56.484 44.005 0
M  V30 1781 C 86.22 55.065 44.161 0
M  V30 1782 C 86.677 54.127 43.307 0
M  V30 1783 C 86.221 52.681 43.344 0
M  V30 1784 C 85.692 52.24 44.756 0
M  V30 1785 C 84.698 53.328 45.241 0
M  V30 1786 C 85.347 54.715 45.347 0
M  V30 1787 C 86.85 52.076 45.775 0
M  V30 1788 C 87.294 51.761 42.773 0
M  V30 1789 C 88.505 52.282 42.235 0
M  V30 1790 C 89.497 51.426 41.725 0
M  V30 1791 C 89.256 50.056 41.757 0
M  V30 1792 C 88.093 49.544 42.262 0
M  V30 1793 C 87.088 50.359 42.773 0
M  V30 1794 C 88.162 48.172 42.145 0
M  V30 1795 C 89.398 47.919 41.559 0
M  V30 1796 N 90.063 49.074 41.325 0
M  V30 1797 H 90.954 49.173 40.92 0
M  V30 1798 C 84.941 50.918 44.631 0
M  V30 1799 C 83.769 50.802 43.985 0
M  V30 1800 C 83.019 49.529 43.862 0
M  V30 1801 C 83.749 48.338 43.604 0
M  V30 1802 C 83.094 47.1 43.485 0
M  V30 1803 C 81.711 47.076 43.637 0
M  V30 1804 C 80.998 48.214 43.898 0
M  V30 1805 C 81.612 49.457 44.023 0
M  V30 1806 C 79.673 47.854 44.004 0
M  V30 1807 C 79.652 46.479 43.794 0
M  V30 1808 N 80.9 46.008 43.569 0
M  V30 1809 H 81.161 45.075 43.394 0
M  V30 1810 C 84.411 58.932 46.182 0
M  V30 1811 C 85.085 57.779 45.491 0
M  V30 1812 C 85.619 56.792 46.238 0
M  V30 1813 C 86.368 55.616 45.642 0
M  V30 1814 C 85.958 55.317 44.155 0
M  V30 1815 C 85.989 56.663 43.385 0
M  V30 1816 C 85.032 57.705 43.98 0
M  V30 1817 C 84.547 54.678 44.067 0
M  V30 1818 C 86.285 54.4 46.56 0
M  V30 1819 C 85.585 54.456 47.799 0
M  V30 1820 C 85.499 53.327 48.631 0
M  V30 1821 C 86.125 52.158 48.212 0
M  V30 1822 C 86.809 52.095 47.029 0
M  V30 1823 C 86.917 53.191 46.18 0
M  V30 1824 C 87.31 50.816 46.91 0
M  V30 1825 C 86.89 50.153 48.059 0
M  V30 1826 N 86.166 50.978 48.851 0
M  V30 1827 H 85.755 50.757 49.718 0
M  V30 1828 C 86.978 54.373 43.523 0
M  V30 1829 C 86.671 53.128 43.124 0
M  V30 1830 C 87.65 52.194 42.518 0
M  V30 1831 C 88.108 52.457 41.2 0
M  V30 1832 C 89.042 51.612 40.575 0
M  V30 1833 C 89.51 50.516 41.292 0
M  V30 1834 C 89.087 50.258 42.567 0
M  V30 1835 C 88.165 51.072 43.218 0
M  V30 1836 C 89.742 49.124 42.997 0
M  V30 1837 C 90.547 48.742 41.929 0
M  V30 1838 N 90.402 49.596 40.889 0
M  V30 1839 H 90.857 49.553 40.017 0
M  V30 1840 C 85.624 55.916 44.727 0
M  V30 1841 C 85.827 54.581 44.065 0
M  V30 1842 C 84.854 53.652 44.156 0
M  V30 1843 C 84.983 52.258 43.573 0
M  V30 1844 C 86.007 52.182 42.385 0
M  V30 1845 C 87.304 52.901 42.842 0
M  V30 1846 C 87.063 54.37 43.217 0
M  V30 1847 C 85.446 52.849 41.101 0
M  V30 1848 C 83.61 51.682 43.241 0
M  V30 1849 C 82.722 52.351 42.351 0
M  V30 1850 C 81.466 51.804 42.038 0
M  V30 1851 C 81.115 50.595 42.629 0
M  V30 1852 C 81.954 49.947 43.492 0
M  V30 1853 C 83.204 50.458 43.828 0
M  V30 1854 C 81.317 48.796 43.9 0
M  V30 1855 C 80.091 48.806 43.244 0
M  V30 1856 N 79.972 49.907 42.467 0
M  V30 1857 H 79.206 50.154 41.901 0
M  V30 1858 C 86.341 50.723 42.09 0
M  V30 1859 C 86.678 49.842 43.047 0
M  V30 1860 C 87.015 48.424 42.779 0
M  V30 1861 C 88.216 48.137 42.077 0
M  V30 1862 C 88.593 46.811 41.799 0
M  V30 1863 C 87.759 45.79 42.243 0
M  V30 1864 C 86.607 46.052 42.932 0
M  V30 1865 C 86.202 47.352 43.226 0
M  V30 1866 C 86.024 44.841 43.237 0
M  V30 1867 C 86.877 43.883 42.699 0
M  V30 1868 N 87.936 44.467 42.093 0
M  V30 1869 H 88.682 44.017 41.636 0
M  V30 1870 C 84.631 57.181 43.058 0
M  V30 1871 C 85.046 55.737 43.005 0
M  V30 1872 C 85.512 55.148 44.125 0
M  V30 1873 C 86.007 53.716 44.163 0
M  V30 1874 C 85.39 52.823 43.028 0
M  V30 1875 C 85.529 53.604 41.694 0
M  V30 1876 C 84.809 54.959 41.728 0
M  V30 1877 C 83.9 52.491 43.306 0
M  V30 1878 C 85.854 53.128 45.562 0
M  V30 1879 C 86.776 52.165 46.064 0
M  V30 1880 C 86.638 51.641 47.361 0
M  V30 1881 C 85.57 52.084 48.133 0
M  V30 1882 C 84.672 53 47.659 0
M  V30 1883 C 84.775 53.541 46.381 0
M  V30 1884 C 83.744 53.222 48.654 0
M  V30 1885 C 84.141 52.406 49.708 0
M  V30 1886 N 85.257 51.713 49.386 0
M  V30 1887 H 85.74 51.069 49.952 0
M  V30 1888 C 86.182 51.523 42.912 0
M  V30 1889 C 87.424 51.467 42.403 0
M  V30 1890 C 88.204 50.213 42.273 0
M  V30 1891 C 89.61 50.309 42.098 0
M  V30 1892 C 90.405 49.155 41.976 0
M  V30 1893 C 89.772 47.918 42.044 0
M  V30 1894 C 88.42 47.812 42.226 0
M  V30 1895 C 87.602 48.931 42.351 0
M  V30 1896 C 88.113 46.469 42.262 0
M  V30 1897 C 89.329 45.814 42.093 0
M  V30 1898 N 90.34 46.704 41.959 0
M  V30 1899 H 91.294 46.503 41.829 0
M  V30 1900 C 90.091 52.389 40.962 0
M  V30 1901 C 88.91 51.679 41.566 0
M  V30 1902 C 88.768 50.355 41.36 0
M  V30 1903 C 87.586 49.558 41.876 0
M  V30 1904 C 86.901 50.217 43.127 0
M  V30 1905 C 86.679 51.717 42.799 0
M  V30 1906 C 87.99 52.453 42.485 0
M  V30 1907 C 87.773 50.067 44.402 0
M  V30 1908 C 87.966 48.096 42.081 0
M  V30 1909 C 89.329 47.68 42.089 0
M  V30 1910 C 89.672 46.333 42.295 0
M  V30 1911 C 88.641 45.419 42.483 0
M  V30 1912 C 87.329 45.803 42.467 0
M  V30 1913 C 86.95 47.127 42.265 0
M  V30 1914 C 86.566 44.674 42.676 0
M  V30 1915 C 87.482 43.636 42.811 0
M  V30 1916 N 88.749 44.096 42.693 0
M  V30 1917 H 89.579 43.57 42.749 0
M  V30 1918 C 85.541 49.567 43.367 0
M  V30 1919 C 84.384 50.133 42.987 0
M  V30 1920 C 83.053 49.523 43.221 0
M  V30 1921 C 81.898 50.318 42.999 0
M  V30 1922 C 80.609 49.793 43.197 0
M  V30 1923 C 80.501 48.467 43.606 0
M  V30 1924 C 81.606 47.687 43.81 0
M  V30 1925 C 82.897 48.172 43.624 0
M  V30 1926 C 81.164 46.438 44.191 0
M  V30 1927 C 79.775 46.532 44.2 0
M  V30 1928 N 79.375 47.774 43.842 0
M  V30 1929 H 78.45 48.102 43.769 0
M  V30 1930 C 88.885 47.643 42.246 0
M  V30 1931 C 88.095 48.726 42.927 0
M  V30 1932 C 86.764 48.794 42.72 0
M  V30 1933 C 85.888 49.88 43.314 0
M  V30 1934 C 86.494 50.513 44.617 0
M  V30 1935 C 87.977 50.859 44.32 0
M  V30 1936 C 88.8 49.627 43.919 0
M  V30 1937 C 86.397 49.543 45.824 0
M  V30 1938 C 84.453 49.388 43.477 0
M  V30 1939 C 83.363 50.301 43.56 0
M  V30 1940 C 82.043 49.839 43.694 0
M  V30 1941 C 81.835 48.465 43.749 0
M  V30 1942 C 82.873 47.578 43.681 0
M  V30 1943 C 84.194 47.997 43.55 0
M  V30 1944 C 82.339 46.311 43.767 0
M  V30 1945 C 80.967 46.502 43.887 0
M  V30 1946 N 80.663 47.82 43.875 0
M  V30 1947 H 79.768 48.224 43.944 0
M  V30 1948 C 85.753 51.805 44.95 0
M  V30 1949 C 86.377 52.919 45.367 0
M  V30 1950 C 85.674 54.179 45.705 0
M  V30 1951 C 84.607 54.127 46.641 0
M  V30 1952 C 83.907 55.29 47.007 0
M  V30 1953 C 84.3 56.495 46.432 0
M  V30 1954 C 85.335 56.561 45.54 0
M  V30 1955 C 86.051 55.431 45.155 0
M  V30 1956 C 85.478 57.881 45.173 0
M  V30 1957 C 84.493 58.564 45.88 0
M  V30 1958 N 83.776 57.712 46.648 0
M  V30 1959 H 83.025 57.938 47.243 0
M  V30 1960 C 84.456 55.088 48.467 0
M  V30 1961 C 84.809 53.849 47.69 0
M  V30 1962 C 84.21 53.629 46.503 0
M  V30 1963 C 84.454 52.386 45.67 0
M  V30 1964 C 85.842 51.712 45.965 0
M  V30 1965 C 85.983 51.594 47.506 0
M  V30 1966 C 85.915 52.956 48.21 0
M  V30 1967 C 87.016 52.539 45.378 0
M  V30 1968 C 84.207 52.667 44.192 0
M  V30 1969 C 83.688 51.664 43.324 0
M  V30 1970 C 83.448 51.937 41.967 0
M  V30 1971 C 83.74 53.213 41.496 0
M  V30 1972 C 84.248 54.182 42.317 0
M  V30 1973 C 84.501 53.949 43.665 0
M  V30 1974 C 84.429 55.315 41.553 0
M  V30 1975 C 84.009 54.963 40.275 0
M  V30 1976 N 83.588 53.678 40.245 0
M  V30 1977 H 83.242 53.184 39.467 0
M  V30 1978 C 85.866 50.308 45.368 0
M  V30 1979 C 86.7 49.95 44.378 0
M  V30 1980 C 86.732 48.595 43.777 0
M  V30 1981 C 87.671 48.336 42.744 0
M  V30 1982 C 87.753 47.068 42.141 0
M  V30 1983 C 86.893 46.074 42.596 0
M  V30 1984 C 85.993 46.306 43.599 0
M  V30 1985 C 85.883 47.548 44.22 0
M  V30 1986 C 85.31 45.13 43.821 0
M  V30 1987 C 85.847 44.222 42.913 0
M  V30 1988 N 86.814 44.804 42.166 0
M  V30 1989 H 87.349 44.383 41.456 0
M  V30 1990 C 83.84 54.955 48.777 0
M  V30 1991 C 84.553 53.924 47.946 0
M  V30 1992 C 84.062 53.61 46.73 0
M  V30 1993 C 84.673 52.546 45.84 0
M  V30 1994 C 86.194 52.292 46.141 0
M  V30 1995 C 86.342 52.128 47.676 0
M  V30 1996 C 85.866 53.364 48.451 0
M  V30 1997 C 87.08 53.461 45.636 0
M  V30 1998 C 84.375 52.832 44.372 0
M  V30 1999 C 83.838 51.828 43.516 0
M  V30 2000 C 83.55 52.105 42.169 0
M  V30 2001 C 83.813 53.386 41.696 0
M  V30 2002 C 84.338 54.357 42.504 0
M  V30 2003 C 84.637 54.12 43.842 0
M  V30 2004 C 84.481 55.495 41.741 0
M  V30 2005 C 84.022 55.145 40.476 0
M  V30 2006 N 83.615 53.856 40.453 0
M  V30 2007 H 83.248 53.363 39.684 0
M  V30 2008 C 86.639 50.996 45.469 0
M  V30 2009 C 87.367 50.971 44.34 0
M  V30 2010 C 87.8 49.723 43.667 0
M  V30 2011 C 86.802 48.848 43.163 0
M  V30 2012 C 87.151 47.653 42.509 0
M  V30 2013 C 88.503 47.361 42.362 0
M  V30 2014 C 89.474 48.203 42.831 0
M  V30 2015 C 89.167 49.394 43.483 0
M  V30 2016 C 90.693 47.641 42.519 0
M  V30 2017 C 90.387 46.454 41.861 0
M  V30 2018 N 89.047 46.287 41.768 0
M  V30 2019 H 88.57 45.535 41.35 0
M  V30 2020 C 91.435 49.088 42.676 0
M  V30 2021 C 89.951 48.915 42.85 0
M  V30 2022 C 89.347 49.484 43.913 0
M  V30 2023 C 87.869 49.322 44.21 0
M  V30 2024 C 87.019 48.991 42.931 0
M  V30 2025 C 87.739 47.841 42.179 0
M  V30 2026 C 89.169 48.213 41.761 0
M  V30 2027 C 86.869 50.229 42.007 0
M  V30 2028 C 87.344 50.511 45.008 0
M  V30 2029 C 87.241 51.806 44.425 0
M  V30 2030 C 86.741 52.893 45.162 0
M  V30 2031 C 86.357 52.665 46.48 0
M  V30 2032 C 86.461 51.429 47.055 0
M  V30 2033 C 86.952 50.33 46.357 0
M  V30 2034 C 86.009 51.539 48.352 0
M  V30 2035 C 85.645 52.873 48.498 0
M  V30 2036 N 85.86 53.558 47.351 0
M  V30 2037 H 85.686 54.513 47.189 0
M  V30 2038 C 85.634 48.505 43.349 0
M  V30 2039 C 84.517 49.225 43.154 0
M  V30 2040 C 83.165 48.774 43.562 0
M  V30 2041 C 82.2 49.759 43.904 0
M  V30 2042 C 80.899 49.393 44.292 0
M  V30 2043 C 80.585 48.038 44.32 0
M  V30 2044 C 81.501 47.081 43.981 0
M  V30 2045 C 82.797 47.405 43.592 0
M  V30 2046 C 80.88 45.856 44.098 0
M  V30 2047 C 79.584 46.145 44.516 0
M  V30 2048 N 79.409 47.479 44.651 0
M  V30 2049 H 78.589 47.945 44.932 0
M  V30 2050 C 86.691 56.484 44.005 0
M  V30 2051 C 86.22 55.065 44.161 0
M  V30 2052 C 86.677 54.127 43.307 0
M  V30 2053 C 86.221 52.681 43.344 0
M  V30 2054 C 85.692 52.24 44.756 0
M  V30 2055 C 84.698 53.328 45.241 0
M  V30 2056 C 85.347 54.715 45.347 0
M  V30 2057 C 86.85 52.076 45.775 0
M  V30 2058 C 87.294 51.761 42.773 0
M  V30 2059 C 88.505 52.282 42.235 0
M  V30 2060 C 89.497 51.426 41.725 0
M  V30 2061 C 89.256 50.056 41.757 0
M  V30 2062 C 88.093 49.544 42.262 0
M  V30 2063 C 87.088 50.359 42.773 0
M  V30 2064 C 88.162 48.172 42.145 0
M  V30 2065 C 89.398 47.919 41.559 0
M  V30 2066 N 90.063 49.074 41.325 0
M  V30 2067 H 90.954 49.173 40.92 0
M  V30 2068 C 84.941 50.918 44.631 0
M  V30 2069 C 83.769 50.802 43.985 0
M  V30 2070 C 83.019 49.529 43.862 0
M  V30 2071 C 83.749 48.338 43.604 0
M  V30 2072 C 83.094 47.1 43.485 0
M  V30 2073 C 81.711 47.076 43.637 0
M  V30 2074 C 80.998 48.214 43.898 0
M  V30 2075 C 81.612 49.457 44.023 0
M  V30 2076 C 79.673 47.854 44.004 0
M  V30 2077 C 79.652 46.479 43.794 0
M  V30 2078 N 80.9 46.008 43.569 0
M  V30 2079 H 81.161 45.075 43.394 0
M  V30 2080 C 84.411 58.932 46.182 0
M  V30 2081 C 85.085 57.779 45.491 0
M  V30 2082 C 85.619 56.792 46.238 0
M  V30 2083 C 86.368 55.616 45.642 0
M  V30 2084 C 85.958 55.317 44.155 0
M  V30 2085 C 85.989 56.663 43.385 0
M  V30 2086 C 85.032 57.705 43.98 0
M  V30 2087 C 84.547 54.678 44.067 0
M  V30 2088 C 86.285 54.4 46.56 0
M  V30 2089 C 85.585 54.456 47.799 0
M  V30 2090 C 85.499 53.327 48.631 0
M  V30 2091 C 86.125 52.158 48.212 0
M  V30 2092 C 86.809 52.095 47.029 0
M  V30 2093 C 86.917 53.191 46.18 0
M  V30 2094 C 87.31 50.816 46.91 0
M  V30 2095 C 86.89 50.153 48.059 0
M  V30 2096 N 86.166 50.978 48.851 0
M  V30 2097 H 85.755 50.757 49.718 0
M  V30 2098 C 86.978 54.373 43.523 0
M  V30 2099 C 86.671 53.128 43.124 0
M  V30 2100 C 87.65 52.194 42.518 0
M  V30 2101 C 88.108 52.457 41.2 0
M  V30 2102 C 89.042 51.612 40.575 0
M  V30 2103 C 89.51 50.516 41.292 0
M  V30 2104 C 89.087 50.258 42.567 0
M  V30 2105 C 88.165 51.072 43.218 0
M  V30 2106 C 89.742 49.124 42.997 0
M  V30 2107 C 90.547 48.742 41.929 0
M  V30 2108 N 90.402 49.596 40.889 0
M  V30 2109 H 90.857 49.553 40.017 0
M  V30 2110 C 85.624 55.916 44.727 0
M  V30 2111 C 85.827 54.581 44.065 0
M  V30 2112 C 84.854 53.652 44.156 0
M  V30 2113 C 84.983 52.258 43.573 0
M  V30 2114 C 86.007 52.182 42.385 0
M  V30 2115 C 87.304 52.901 42.842 0
M  V30 2116 C 87.063 54.37 43.217 0
M  V30 2117 C 85.446 52.849 41.101 0
M  V30 2118 C 83.61 51.682 43.241 0
M  V30 2119 C 82.722 52.351 42.351 0
M  V30 2120 C 81.466 51.804 42.038 0
M  V30 2121 C 81.115 50.595 42.629 0
M  V30 2122 C 81.954 49.947 43.492 0
M  V30 2123 C 83.204 50.458 43.828 0
M  V30 2124 C 81.317 48.796 43.9 0
M  V30 2125 C 80.091 48.806 43.244 0
M  V30 2126 N 79.972 49.907 42.467 0
M  V30 2127 H 79.206 50.154 41.901 0
M  V30 2128 C 86.341 50.723 42.09 0
M  V30 2129 C 86.678 49.842 43.047 0
M  V30 2130 C 87.015 48.424 42.779 0
M  V30 2131 C 88.216 48.137 42.077 0
M  V30 2132 C 88.593 46.811 41.799 0
M  V30 2133 C 87.759 45.79 42.243 0
M  V30 2134 C 86.607 46.052 42.932 0
M  V30 2135 C 86.202 47.352 43.226 0
M  V30 2136 C 86.024 44.841 43.237 0
M  V30 2137 C 86.877 43.883 42.699 0
M  V30 2138 N 87.936 44.467 42.093 0
M  V30 2139 H 88.682 44.017 41.636 0
M  V30 2140 C 84.631 57.181 43.058 0
M  V30 2141 C 85.046 55.737 43.005 0
M  V30 2142 C 85.512 55.148 44.125 0
M  V30 2143 C 86.007 53.716 44.163 0
M  V30 2144 C 85.39 52.823 43.028 0
M  V30 2145 C 85.529 53.604 41.694 0
M  V30 2146 C 84.809 54.959 41.728 0
M  V30 2147 C 83.9 52.491 43.306 0
M  V30 2148 C 85.854 53.128 45.562 0
M  V30 2149 C 86.776 52.165 46.064 0
M  V30 2150 C 86.638 51.641 47.361 0
M  V30 2151 C 85.57 52.084 48.133 0
M  V30 2152 C 84.672 53 47.659 0
M  V30 2153 C 84.775 53.541 46.381 0
M  V30 2154 C 83.744 53.222 48.654 0
M  V30 2155 C 84.141 52.406 49.708 0
M  V30 2156 N 85.257 51.713 49.386 0
M  V30 2157 H 85.74 51.069 49.952 0
M  V30 2158 C 86.182 51.523 42.912 0
M  V30 2159 C 87.424 51.467 42.403 0
M  V30 2160 C 88.204 50.213 42.273 0
M  V30 2161 C 89.61 50.309 42.098 0
M  V30 2162 C 90.405 49.155 41.976 0
M  V30 2163 C 89.772 47.918 42.044 0
M  V30 2164 C 88.42 47.812 42.226 0
M  V30 2165 C 87.602 48.931 42.351 0
M  V30 2166 C 88.113 46.469 42.262 0
M  V30 2167 C 89.329 45.814 42.093 0
M  V30 2168 N 90.34 46.704 41.959 0
M  V30 2169 H 91.294 46.503 41.829 0
M  V30 2170 C 90.091 52.389 40.962 0
M  V30 2171 C 88.91 51.679 41.566 0
M  V30 2172 C 88.768 50.355 41.36 0
M  V30 2173 C 87.586 49.558 41.876 0
M  V30 2174 C 86.901 50.217 43.127 0
M  V30 2175 C 86.679 51.717 42.799 0
M  V30 2176 C 87.99 52.453 42.485 0
M  V30 2177 C 87.773 50.067 44.402 0
M  V30 2178 C 87.966 48.096 42.081 0
M  V30 2179 C 89.329 47.68 42.089 0
M  V30 2180 C 89.672 46.333 42.295 0
M  V30 2181 C 88.641 45.419 42.483 0
M  V30 2182 C 87.329 45.803 42.467 0
M  V30 2183 C 86.95 47.127 42.265 0
M  V30 2184 C 86.566 44.674 42.676 0
M  V30 2185 C 87.482 43.636 42.811 0
M  V30 2186 N 88.749 44.096 42.693 0
M  V30 2187 H 89.579 43.57 42.749 0
M  V30 2188 C 85.541 49.567 43.367 0
M  V30 2189 C 84.384 50.133 42.987 0
M  V30 2190 C 83.053 49.523 43.221 0
M  V30 2191 C 81.898 50.318 42.999 0
M  V30 2192 C 80.609 49.793 43.197 0
M  V30 2193 C 80.501 48.467 43.606 0
M  V30 2194 C 81.606 47.687 43.81 0
M  V30 2195 C 82.897 48.172 43.624 0
M  V30 2196 C 81.164 46.438 44.191 0
M  V30 2197 C 79.775 46.532 44.2 0
M  V30 2198 N 79.375 47.774 43.842 0
M  V30 2199 H 78.45 48.102 43.769 0
M  V30 2200 C 88.885 47.643 42.246 0
M  V30 2201 C 88.095 48.726 42.927 0
M  V30 2202 C 86.764 48.794 42.72 0
M  V30 2203 C 85.888 49.88 43.314 0
M  V30 2204 C 86.494 50.513 44.617 0
M  V30 2205 C 87.977 50.859 44.32 0
M  V30 2206 C 88.8 49.627 43.919 0
M  V30 2207 C 86.397 49.543 45.824 0
M  V30 2208 C 84.453 49.388 43.477 0
M  V30 2209 C 83.363 50.301 43.56 0
M  V30 2210 C 82.043 49.839 43.694 0
M  V30 2211 C 81.835 48.465 43.749 0
M  V30 2212 C 82.873 47.578 43.681 0
M  V30 2213 C 84.194 47.997 43.55 0
M  V30 2214 C 82.339 46.311 43.767 0
M  V30 2215 C 80.967 46.502 43.887 0
M  V30 2216 N 80.663 47.82 43.875 0
M  V30 2217 H 79.768 48.224 43.944 0
M  V30 2218 C 85.753 51.805 44.95 0
M  V30 2219 C 86.377 52.919 45.367 0
M  V30 2220 C 85.674 54.179 45.705 0
M  V30 2221 C 84.607 54.127 46.641 0
M  V30 2222 C 83.907 55.29 47.007 0
M  V30 2223 C 84.3 56.495 46.432 0
M  V30 2224 C 85.335 56.561 45.54 0
M  V30 2225 C 86.051 55.431 45.155 0
M  V30 2226 C 85.478 57.881 45.173 0
M  V30 2227 C 84.493 58.564 45.88 0
M  V30 2228 N 83.776 57.712 46.648 0
M  V30 2229 H 83.025 57.938 47.243 0
M  V30 2230 C 84.456 55.088 48.467 0
M  V30 2231 C 84.809 53.849 47.69 0
M  V30 2232 C 84.21 53.629 46.503 0
M  V30 2233 C 84.454 52.386 45.67 0
M  V30 2234 C 85.842 51.712 45.965 0
M  V30 2235 C 85.983 51.594 47.506 0
M  V30 2236 C 85.915 52.956 48.21 0
M  V30 2237 C 87.016 52.539 45.378 0
M  V30 2238 C 84.207 52.667 44.192 0
M  V30 2239 C 83.688 51.664 43.324 0
M  V30 2240 C 83.448 51.937 41.967 0
M  V30 2241 C 83.74 53.213 41.496 0
M  V30 2242 C 84.248 54.182 42.317 0
M  V30 2243 C 84.501 53.949 43.665 0
M  V30 2244 C 84.429 55.315 41.553 0
M  V30 2245 C 84.009 54.963 40.275 0
M  V30 2246 N 83.588 53.678 40.245 0
M  V30 2247 H 83.242 53.184 39.467 0
M  V30 2248 C 85.866 50.308 45.368 0
M  V30 2249 C 86.7 49.95 44.378 0
M  V30 2250 C 86.732 48.595 43.777 0
M  V30 2251 C 87.671 48.336 42.744 0
M  V30 2252 C 87.753 47.068 42.141 0
M  V30 2253 C 86.893 46.074 42.596 0
M  V30 2254 C 85.993 46.306 43.599 0
M  V30 2255 C 85.883 47.548 44.22 0
M  V30 2256 C 85.31 45.13 43.821 0
M  V30 2257 C 85.847 44.222 42.913 0
M  V30 2258 N 86.814 44.804 42.166 0
M  V30 2259 H 87.349 44.383 41.456 0
M  V30 2260 C 83.84 54.955 48.777 0
M  V30 2261 C 84.553 53.924 47.946 0
M  V30 2262 C 84.062 53.61 46.73 0
M  V30 2263 C 84.673 52.546 45.84 0
M  V30 2264 C 86.194 52.292 46.141 0
M  V30 2265 C 86.342 52.128 47.676 0
M  V30 2266 C 85.866 53.364 48.451 0
M  V30 2267 C 87.08 53.461 45.636 0
M  V30 2268 C 84.375 52.832 44.372 0
M  V30 2269 C 83.838 51.828 43.516 0
M  V30 2270 C 83.55 52.105 42.169 0
M  V30 2271 C 83.813 53.386 41.696 0
M  V30 2272 C 84.338 54.357 42.504 0
M  V30 2273 C 84.637 54.12 43.842 0
M  V30 2274 C 84.481 55.495 41.741 0
M  V30 2275 C 84.022 55.145 40.476 0
M  V30 2276 N 83.615 53.856 40.453 0
M  V30 2277 H 83.248 53.363 39.684 0
M  V30 2278 C 86.639 50.996 45.469 0
M  V30 2279 C 87.367 50.971 44.34 0
M  V30 2280 C 87.8 49.723 43.667 0
M  V30 2281 C 86.802 48.848 43.163 0
M  V30 2282 C 87.151 47.653 42.509 0
M  V30 2283 C 88.503 47.361 42.362 0
M  V30 2284 C 89.474 48.203 42.831 0
M  V30 2285 C 89.167 49.394 43.483 0
M  V30 2286 C 90.693 47.641 42.519 0
M  V30 2287 C 90.387 46.454 41.861 0
M  V30 2288 N 89.047 46.287 41.768 0
M  V30 2289 H 88.57 45.535 41.35 0
M  V30 2290 C 91.435 49.088 42.676 0
M  V30 2291 C 89.951 48.915 42.85 0
M  V30 2292 C 89.347 49.484 43.913 0
M  V30 2293 C 87.869 49.322 44.21 0
M  V30 2294 C 87.019 48.991 42.931 0
M  V30 2295 C 87.739 47.841 42.179 0
M  V30 2296 C 89.169 48.213 41.761 0
M  V30 2297 C 86.869 50.229 42.007 0
M  V30 2298 C 87.344 50.511 45.008 0
M  V30 2299 C 87.241 51.806 44.425 0
M  V30 2300 C 86.741 52.893 45.162 0
M  V30 2301 C 86.357 52.665 46.48 0
M  V30 2302 C 86.461 51.429 47.055 0
M  V30 2303 C 86.952 50.33 46.357 0
M  V30 2304 C 86.009 51.539 48.352 0
M  V30 2305 C 85.645 52.873 48.498 0
M  V30 2306 N 85.86 53.558 47.351 0
M  V30 2307 H 85.686 54.513 47.189 0
M  V30 2308 C 85.634 48.505 43.349 0
M  V30 2309 C 84.517 49.225 43.154 0
M  V30 2310 C 83.165 48.774 43.562 0
M  V30 2311 C 82.2 49.759 43.904 0
M  V30 2312 C 80.899 49.393 44.292 0
M  V30 2313 C 80.585 48.038 44.32 0
M  V30 2314 C 81.501 47.081 43.981 0
M  V30 2315 C 82.797 47.405 43.592 0
M  V30 2316 C 80.88 45.856 44.098 0
M  V30 2317 C 79.584 46.145 44.516 0
M  V30 2318 N 79.409 47.479 44.651 0
M  V30 2319 H 78.589 47.945 44.932 0
M  V30 2320 C 86.691 56.484 44.005 0
M  V30 2321 C 86.22 55.065 44.161 0
M  V30 2322 C 86.677 54.127 43.307 0
M  V30 2323 C 86.221 52.681 43.344 0
M  V30 2324 C 85.692 52.24 44.756 0
M  V30 2325 C 84.698 53.328 45.241 0
M  V30 2326 C 85.347 54.715 45.347 0
M  V30 2327 C 86.85 52.076 45.775 0
M  V30 2328 C 87.294 51.761 42.773 0
M  V30 2329 C 88.505 52.282 42.235 0
M  V30 2330 C 89.497 51.426 41.725 0
M  V30 2331 C 89.256 50.056 41.757 0
M  V30 2332 C 88.093 49.544 42.262 0
M  V30 2333 C 87.088 50.359 42.773 0
M  V30 2334 C 88.162 48.172 42.145 0
M  V30 2335 C 89.398 47.919 41.559 0
M  V30 2336 N 90.063 49.074 41.325 0
M  V30 2337 H 90.954 49.173 40.92 0
M  V30 2338 C 84.941 50.918 44.631 0
M  V30 2339 C 83.769 50.802 43.985 0
M  V30 2340 C 83.019 49.529 43.862 0
M  V30 2341 C 83.749 48.338 43.604 0
M  V30 2342 C 83.094 47.1 43.485 0
M  V30 2343 C 81.711 47.076 43.637 0
M  V30 2344 C 80.998 48.214 43.898 0
M  V30 2345 C 81.612 49.457 44.023 0
M  V30 2346 C 79.673 47.854 44.004 0
M  V30 2347 C 79.652 46.479 43.794 0
M  V30 2348 N 80.9 46.008 43.569 0
M  V30 2349 H 81.161 45.075 43.394 0
M  V30 2350 C 84.411 58.932 46.182 0
M  V30 2351 C 85.085 57.779 45.491 0
M  V30 2352 C 85.619 56.792 46.238 0
M  V30 2353 C 86.368 55.616 45.642 0
M  V30 2354 C 85.958 55.317 44.155 0
M  V30 2355 C 85.989 56.663 43.385 0
M  V30 2356 C 85.032 57.705 43.98 0
M  V30 2357 C 84.547 54.678 44.067 0
M  V30 2358 C 86.285 54.4 46.56 0
M  V30 2359 C 85.585 54.456 47.799 0
M  V30 2360 C 85.499 53.327 48.631 0
M  V30 2361 C 86.125 52.158 48.212 0
M  V30 2362 C 86.809 52.095 47.029 0
M  V30 2363 C 86.917 53.191 46.18 0
M  V30 2364 C 87.31 50.816 46.91 0
M  V30 2365 C 86.89 50.153 48.059 0
M  V30 2366 N 86.166 50.978 48.851 0
M  V30 2367 H 85.755 50.757 49.718 0
M  V30 2368 C 86.978 54.373 43.523 0
M  V30 2369 C 86.671 53.128 43.124 0
M  V30 2370 C 87.65 52.194 42.518 0
M  V30 2371 C 88.108 52.457 41.2 0
M  V30 2372 C 89.042 51.612 40.575 0
M  V30 2373 C 89.51 50.516 41.292 0
M  V30 2374 C 89.087 50.258 42.567 0
M  V30 2375 C 88.165 51.072 43.218 0
M  V30 2376 C 89.742 49.124 42.997 0
M  V30 2377 C 90.547 48.742 41.929 0
M  V30 2378 N 90.402 49.596 40.889 0
M  V30 2379 H 90.857 49.553 40.017 0
M  V30 2380 C 85.624 55.916 44.727 0
M  V30 2381 C 85.827 54.581 44.065 0
M  V30 2382 C 84.854 53.652 44.156 0
M  V30 2383 C 84.983 52.258 43.573 0
M  V30 2384 C 86.007 52.182 42.385 0
M  V30 2385 C 87.304 52.901 42.842 0
M  V30 2386 C 87.063 54.37 43.217 0
M  V30 2387 C 85.446 52.849 41.101 0
M  V30 2388 C 83.61 51.682 43.241 0
M  V30 2389 C 82.722 52.351 42.351 0
M  V30 2390 C 81.466 51.804 42.038 0
M  V30 2391 C 81.115 50.595 42.629 0
M  V30 2392 C 81.954 49.947 43.492 0
M  V30 2393 C 83.204 50.458 43.828 0
M  V30 2394 C 81.317 48.796 43.9 0
M  V30 2395 C 80.091 48.806 43.244 0
M  V30 2396 N 79.972 49.907 42.467 0
M  V30 2397 H 79.206 50.154 41.901 0
M  V30 2398 C 86.341 50.723 42.09 0
M  V30 2399 C 86.678 49.842 43.047 0
M  V30 2400 C 87.015 48.424 42.779 0
M  V30 2401 C 88.216 48.137 42.077 0
M  V30 2402 C 88.593 46.811 41.799 0
M  V30 2403 C 87.759 45.79 42.243 0
M  V30 2404 C 86.607 46.052 42.932 0
M  V30 2405 C 86.202 47.352 43.226 0
M  V30 2406 C 86.024 44.841 43.237 0
M  V30 2407 C 86.877 43.883 42.699 0
M  V30 2408 N 87.936 44.467 42.093 0
M  V30 2409 H 88.682 44.017 41.636 0
M  V30 2410 C 84.631 57.181 43.058 0
M  V30 2411 C 85.046 55.737 43.005 0
M  V30 2412 C 85.512 55.148 44.125 0
M  V30 2413 C 86.007 53.716 44.163 0
M  V30 2414 C 85.39 52.823 43.028 0
M  V30 2415 C 85.529 53.604 41.694 0
M  V30 2416 C 84.809 54.959 41.728 0
M  V30 2417 C 83.9 52.491 43.306 0
M  V30 2418 C 85.854 53.128 45.562 0
M  V30 2419 C 86.776 52.165 46.064 0
M  V30 2420 C 86.638 51.641 47.361 0
M  V30 2421 C 85.57 52.084 48.133 0
M  V30 2422 C 84.672 53 47.659 0
M  V30 2423 C 84.775 53.541 46.381 0
M  V30 2424 C 83.744 53.222 48.654 0
M  V30 2425 C 84.141 52.406 49.708 0
M  V30 2426 N 85.257 51.713 49.386 0
M  V30 2427 H 85.74 51.069 49.952 0
M  V30 2428 C 86.182 51.523 42.912 0
M  V30 2429 C 87.424 51.467 42.403 0
M  V30 2430 C 88.204 50.213 42.273 0
M  V30 2431 C 89.61 50.309 42.098 0
M  V30 2432 C 90.405 49.155 41.976 0
M  V30 2433 C 89.772 47.918 42.044 0
M  V30 2434 C 88.42 47.812 42.226 0
M  V30 2435 C 87.602 48.931 42.351 0
M  V30 2436 C 88.113 46.469 42.262 0
M  V30 2437 C 89.329 45.814 42.093 0
M  V30 2438 N 90.34 46.704 41.959 0
M  V30 2439 H 91.294 46.503 41.829 0
M  V30 2440 C 90.091 52.389 40.962 0
M  V30 2441 C 88.91 51.679 41.566 0
M  V30 2442 C 88.768 50.355 41.36 0
M  V30 2443 C 87.586 49.558 41.876 0
M  V30 2444 C 86.901 50.217 43.127 0
M  V30 2445 C 86.679 51.717 42.799 0
M  V30 2446 C 87.99 52.453 42.485 0
M  V30 2447 C 87.773 50.067 44.402 0
M  V30 2448 C 87.966 48.096 42.081 0
M  V30 2449 C 89.329 47.68 42.089 0
M  V30 2450 C 89.672 46.333 42.295 0
M  V30 2451 C 88.641 45.419 42.483 0
M  V30 2452 C 87.329 45.803 42.467 0
M  V30 2453 C 86.95 47.127 42.265 0
M  V30 2454 C 86.566 44.674 42.676 0
M  V30 2455 C 87.482 43.636 42.811 0
M  V30 2456 N 88.749 44.096 42.693 0
M  V30 2457 H 89.579 43.57 42.749 0
M  V30 2458 C 85.541 49.567 43.367 0
M  V30 2459 C 84.384 50.133 42.987 0
M  V30 2460 C 83.053 49.523 43.221 0
M  V30 2461 C 81.898 50.318 42.999 0
M  V30 2462 C 80.609 49.793 43.197 0
M  V30 2463 C 80.501 48.467 43.606 0
M  V30 2464 C 81.606 47.687 43.81 0
M  V30 2465 C 82.897 48.172 43.624 0
M  V30 2466 C 81.164 46.438 44.191 0
M  V30 2467 C 79.775 46.532 44.2 0
M  V30 2468 N 79.375 47.774 43.842 0
M  V30 2469 H 78.45 48.102 43.769 0
M  V30 2470 C 88.885 47.643 42.246 0
M  V30 2471 C 88.095 48.726 42.927 0
M  V30 2472 C 86.764 48.794 42.72 0
M  V30 2473 C 85.888 49.88 43.314 0
M  V30 2474 C 86.494 50.513 44.617 0
M  V30 2475 C 87.977 50.859 44.32 0
M  V30 2476 C 88.8 49.627 43.919 0
M  V30 2477 C 86.397 49.543 45.824 0
M  V30 2478 C 84.453 49.388 43.477 0
M  V30 2479 C 83.363 50.301 43.56 0
M  V30 2480 C 82.043 49.839 43.694 0
M  V30 2481 C 81.835 48.465 43.749 0
M  V30 2482 C 82.873 47.578 43.681 0
M  V30 2483 C 84.194 47.997 43.55 0
M  V30 2484 C 82.339 46.311 43.767 0
M  V30 2485 C 80.967 46.502 43.887 0
M  V30 2486 N 80.663 47.82 43.875 0
M  V30 2487 H 79.768 48.224 43.944 0
M  V30 2488 C 85.753 51.805 44.95 0
M  V30 2489 C 86.377 52.919 45.367 0
M  V30 2490 C 85.674 54.179 45.705 0
M  V30 2491 C 84.607 54.127 46.641 0
M  V30 2492 C 83.907 55.29 47.007 0
M  V30 2493 C 84.3 56.495 46.432 0
M  V30 2494 C 85.335 56.561 45.54 0
M  V30 2495 C 86.051 55.431 45.155 0
M  V30 2496 C 85.478 57.881 45.173 0
M  V30 2497 C 84.493 58.564 45.88 0
M  V30 2498 N 83.776 57.712 46.648 0
M  V30 2499 H 83.025 57.938 47.243 0
M  V30 2500 C 84.456 55.088 48.467 0
M  V30 2501 C 84.809 53.849 47.69 0
M  V30 2502 C 84.21 53.629 46.503 0
M  V30 2503 C 84.454 52.386 45.67 0
M  V30 2504 C 85.842 51.712 45.965 0
M  V30 2505 C 85.983 51.594 47.506 0
M  V30 2506 C 85.915 52.956 48.21 0
M  V30 2507 C 87.016 52.539 45.378 0
M  V30 2508 C 84.207 52.667 44.192 0
M  V30 2509 C 83.688 51.664 43.324 0
M  V30 2510 C 83.448 51.937 41.967 0
M  V30 2511 C 83.74 53.213 41.496 0
M  V30 2512 C 84.248 54.182 42.317 0
M  V30 2513 C 84.501 53.949 43.665 0
M  V30 2514 C 84.429 55.315 41.553 0
M  V30 2515 C 84.009 54.963 40.275 0
M  V30 2516 N 83.588 53.678 40.245 0
M  V30 2517 H 83.242 53.184 39.467 0
M  V30 2518 C 85.866 50.308 45.368 0
M  V30 2519 C 86.7 49.95 44.378 0
M  V30 2520 C 86.732 48.595 43.777 0
M  V30 2521 C 87.671 48.336 42.744 0
M  V30 2522 C 87.753 47.068 42.141 0
M  V30 2523 C 86.893 46.074 42.596 0
M  V30 2524 C 85.993 46.306 43.599 0
M  V30 2525 C 85.883 47.548 44.22 0
M  V30 2526 C 85.31 45.13 43.821 0
M  V30 2527 C 85.847 44.222 42.913 0
M  V30 2528 N 86.814 44.804 42.166 0
M  V30 2529 H 87.349 44.383 41.456 0
M  V30 2530 C 83.84 54.955 48.777 0
M  V30 2531 C 84.553 53.924 47.946 0
M  V30 2532 C 84.062 53.61 46.73 0
M  V30 2533 C 84.673 52.546 45.84 0
M  V30 2534 C 86.194 52.292 46.141 0
M  V30 2535 C 86.342 52.128 47.676 0
M  V30 2536 C 85.866 53.364 48.451 0
M  V30 2537 C 87.08 53.461 45.636 0
M  V30 2538 C 84.375 52.832 44.372 0
M  V30 2539 C 83.838 51.828 43.516 0
M  V30 2540 C 83.55 52.105 42.169 0
M  V30 2541 C 83.813 53.386 41.696 0
M  V30 2542 C 84.338 54.357 42.504 0
M  V30 2543 C 84.637 54.12 43.842 0
M  V30 2544 C 84.481 55.495 41.741 0
M  V30 2545 C 84.022 55.145 40.476 0
M  V30 2546 N 83.615 53.856 40.453 0
M  V30 2547 H 83.248 53.363 39.684 0
M  V30 2548 C 86.639 50.996 45.469 0
M  V30 2549 C 87.367 50.971 44.34 0
M  V30 2550 C 87.8 49.723 43.667 0
M  V30 2551 C 86.802 48.848 43.163 0
M  V30 2552 C 87.151 47.653 42.509 0
M  V30 2553 C 88.503 47.361 42.362 0
M  V30 2554 C 89.474 48.203 42.831 0
M  V30 2555 C 89.167 49.394 43.483 0
M  V30 2556 C 90.693 47.641 42.519 0
M  V30 2557 C 90.387 46.454 41.861 0
M  V30 2558 N 89.047 46.287 41.768 0
M  V30 2559 H 88.57 45.535 41.35 0
M  V30 2560 C 91.435 49.088 42.676 0
M  V30 2561 C 89.951 48.915 42.85 0
M  V30 2562 C 89.347 49.484 43.913 0
M  V30 2563 C 87.869 49.322 44.21 0
M  V30 2564 C 87.019 48.991 42.931 0
M  V30 2565 C 87.739 47.841 42.179 0
M  V30 2566 C 89.169 48.213 41.761 0
M  V30 2567 C 86.869 50.229 42.007 0
M  V30 2568 C 87.344 50.511 45.008 0
M  V30 2569 C 87.241 51.806 44.425 0
M  V30 2570 C 86.741 52.893 45.162 0
M  V30 2571 C 86.357 52.665 46.48 0
M  V30 2572 C 86.461 51.429 47.055 0
M  V30 2573 C 86.952 50.33 46.357 0
M  V30 2574 C 86.009 51.539 48.352 0
M  V30 2575 C 85.645 52.873 48.498 0
M  V30 2576 N 85.86 53.558 47.351 0
M  V30 2577 H 85.686 54.513 47.189 0
M  V30 2578 C 85.634 48.505 43.349 0
M  V30 2579 C 84.517 49.225 43.154 0
M  V30 2580 C 83.165 48.774 43.562 0
M  V30 2581 C 82.2 49.759 43.904 0
M  V30 2582 C 80.899 49.393 44.292 0
M  V30 2583 C 80.585 48.038 44.32 0
M  V30 2584 C 81.501 47.081 43.981 0
M  V30 2585 C 82.797 47.405 43.592 0
M  V30 2586 C 80.88 45.856 44.098 0
M  V30 2587 C 79.584 46.145 44.516 0
M  V30 2588 N 79.409 47.479 44.651 0
M  V30 2589 H 78.589 47.945 44.932 0
M  V30 2590 C 86.691 56.484 44.005 0
M  V30 2591 C 86.22 55.065 44.161 0
M  V30 2592 C 86.677 54.127 43.307 0
M  V30 2593 C 86.221 52.681 43.344 0
M  V30 2594 C 85.692 52.24 44.756 0
M  V30 2595 C 84.698 53.328 45.241 0
M  V30 2596 C 85.347 54.715 45.347 0
M  V30 2597 C 86.85 52.076 45.775 0
M  V30 2598 C 87.294 51.761 42.773 0
M  V30 2599 C 88.505 52.282 42.235 0
M  V30 2600 C 89.497 51.426 41.725 0
M  V30 2601 C 89.256 50.056 41.757 0
M  V30 2602 C 88.093 49.544 42.262 0
M  V30 2603 C 87.088 50.359 42.773 0
M  V30 2604 C 88.162 48.172 42.145 0
M  V30 2605 C 89.398 47.919 41.559 0
M  V30 2606 N 90.063 49.074 41.325 0
M  V30 2607 H 90.954 49.173 40.92 0
M  V30 2608 C 84.941 50.918 44.631 0
M  V30 2609 C 83.769 50.802 43.985 0
M  V30 2610 C 83.019 49.529 43.862 0
M  V30 2611 C 83.749 48.338 43.604 0
M  V30 2612 C 83.094 47.1 43.485 0
M  V30 2613 C 81.711 47.076 43.637 0
M  V30 2614 C 80.998 48.214 43.898 0
M  V30 2615 C 81.612 49.457 44.023 0
M  V30 2616 C 79.673 47.854 44.004 0
M  V30 2617 C 79.652 46.479 43.794 0
M  V30 2618 N 80.9 46.008 43.569 0
M  V30 2619 H 81.161 45.075 43.394 0
M  V30 2620 C 84.411 58.932 46.182 0
M  V30 2621 C 85.085 57.779 45.491 0
M  V30 2622 C 85.619 56.792 46.238 0
M  V30 2623 C 86.368 55.616 45.642 0
M  V30 2624 C 85.958 55.317 44.155 0
M  V30 2625 C 85.989 56.663 43.385 0
M  V30 2626 C 85.032 57.705 43.98 0
M  V30 2627 C 84.547 54.678 44.067 0
M  V30 2628 C 86.285 54.4 46.56 0
M  V30 2629 C 85.585 54.456 47.799 0
M  V30 2630 C 85.499 53.327 48.631 0
M  V30 2631 C 86.125 52.158 48.212 0
M  V30 2632 C 86.809 52.095 47.029 0
M  V30 2633 C 86.917 53.191 46.18 0
M  V30 2634 C 87.31 50.816 46.91 0
M  V30 2635 C 86.89 50.153 48.059 0
M  V30 2636 N 86.166 50.978 48.851 0
M  V30 2637 H 85.755 50.757 49.718 0
M  V30 2638 C 86.978 54.373 43.523 0
M  V30 2639 C 86.671 53.128 43.124 0
M  V30 2640 C 87.65 52.194 42.518 0
M  V30 2641 C 88.108 52.457 41.2 0
M  V30 2642 C 89.042 51.612 40.575 0
M  V30 2643 C 89.51 50.516 41.292 0
M  V30 2644 C 89.087 50.258 42.567 0
M  V30 2645 C 88.165 51.072 43.218 0
M  V30 2646 C 89.742 49.124 42.997 0
M  V30 2647 C 90.547 48.742 41.929 0
M  V30 2648 N 90.402 49.596 40.889 0
M  V30 2649 H 90.857 49.553 40.017 0
M  V30 2650 C 85.624 55.916 44.727 0
M  V30 2651 C 85.827 54.581 44.065 0
M  V30 2652 C 84.854 53.652 44.156 0
M  V30 2653 C 84.983 52.258 43.573 0
M  V30 2654 C 86.007 52.182 42.385 0
M  V30 2655 C 87.304 52.901 42.842 0
M  V30 2656 C 87.063 54.37 43.217 0
M  V30 2657 C 85.446 52.849 41.101 0
M  V30 2658 C 83.61 51.682 43.241 0
M  V30 2659 C 82.722 52.351 42.351 0
M  V30 2660 C 81.466 51.804 42.038 0
M  V30 2661 C 81.115 50.595 42.629 0
M  V30 2662 C 81.954 49.947 43.492 0
M  V30 2663 C 83.204 50.458 43.828 0
M  V30 2664 C 81.317 48.796 43.9 0
M  V30 2665 C 80.091 48.806 43.244 0
M  V30 2666 N 79.972 49.907 42.467 0
M  V30 2667 H 79.206 50.154 41.901 0
M  V30 2668 C 86.341 50.723 42.09 0
M  V30 2669 C 86.678 49.842 43.047 0
M  V30 2670 C 87.015 48.424 42.779 0
M  V30 2671 C 88.216 48.137 42.077 0
M  V30 2672 C 88.593 46.811 41.799 0
M  V30 2673 C 87.759 45.79 42.243 0
M  V30 2674 C 86.607 46.052 42.932 0
M  V30 2675 C 86.202 47.352 43.226 0
M  V30 2676 C 86.024 44.841 43.237 0
M  V30 2677 C 86.877 43.883 42.699 0
M  V30 2678 N 87.936 44.467 42.093 0
M  V30 2679 H 88.682 44.017 41.636 0
M  V30 2680 C 84.631 57.181 43.058 0
M  V30 2681 C 85.046 55.737 43.005 0
M  V30 2682 C 85.512 55.148 44.125 0
M  V30 2683 C 86.007 53.716 44.163 0
M  V30 2684 C 85.39 52.823 43.028 0
M  V30 2685 C 85.529 53.604 41.694 0
M  V30 2686 C 84.809 54.959 41.728 0
M  V30 2687 C 83.9 52.491 43.306 0
M  V30 2688 C 85.854 53.128 45.562 0
M  V30 2689 C 86.776 52.165 46.064 0
M  V30 2690 C 86.638 51.641 47.361 0
M  V30 2691 C 85.57 52.084 48.133 0
M  V30 2692 C 84.672 53 47.659 0
M  V30 2693 C 84.775 53.541 46.381 0
M  V30 2694 C 83.744 53.222 48.654 0
M  V30 2695 C 84.141 52.406 49.708 0
M  V30 2696 N 85.257 51.713 49.386 0
M  V30 2697 H 85.74 51.069 49.952 0
M  V30 2698 C 86.182 51.523 42.912 0
M  V30 2699 C 87.424 51.467 42.403 0
M  V30 2700 C 88.204 50.213 42.273 0
M  V30 2701 C 89.61 50.309 42.098 0
M  V30 2702 C 90.405 49.155 41.976 0
M  V30 2703 C 89.772 47.918 42.044 0
M  V30 2704 C 88.42 47.812 42.226 0
M  V30 2705 C 87.602 48.931 42.351 0
M  V30 2706 C 88.113 46.469 42.262 0
M  V30 2707 C 89.329 45.814 42.093 0
M  V30 2708 N 90.34 46.704 41.959 0
M  V30 2709 H 91.294 46.503 41.829 0
M  V30 2710 C 90.091 52.389 40.962 0
M  V30 2711 C 88.91 51.679 41.566 0
M  V30 2712 C 88.768 50.355 41.36 0
M  V30 2713 C 87.586 49.558 41.876 0
M  V30 2714 C 86.901 50.217 43.127 0
M  V30 2715 C 86.679 51.717 42.799 0
M  V30 2716 C 87.99 52.453 42.485 0
M  V30 2717 C 87.773 50.067 44.402 0
M  V30 2718 C 87.966 48.096 42.081 0
M  V30 2719 C 89.329 47.68 42.089 0
M  V30 2720 C 89.672 46.333 42.295 0
M  V30 2721 C 88.641 45.419 42.483 0
M  V30 2722 C 87.329 45.803 42.467 0
M  V30 2723 C 86.95 47.127 42.265 0
M  V30 2724 C 86.566 44.674 42.676 0
M  V30 2725 C 87.482 43.636 42.811 0
M  V30 2726 N 88.749 44.096 42.693 0
M  V30 2727 H 89.579 43.57 42.749 0
M  V30 2728 C 85.541 49.567 43.367 0
M  V30 2729 C 84.384 50.133 42.987 0
M  V30 2730 C 83.053 49.523 43.221 0
M  V30 2731 C 81.898 50.318 42.999 0
M  V30 2732 C 80.609 49.793 43.197 0
M  V30 2733 C 80.501 48.467 43.606 0
M  V30 2734 C 81.606 47.687 43.81 0
M  V30 2735 C 82.897 48.172 43.624 0
M  V30 2736 C 81.164 46.438 44.191 0
M  V30 2737 C 79.775 46.532 44.2 0
M  V30 2738 N 79.375 47.774 43.842 0
M  V30 2739 H 78.45 48.102 43.769 0
M  V30 2740 C 88.885 47.643 42.246 0
M  V30 2741 C 88.095 48.726 42.927 0
M  V30 2742 C 86.764 48.794 42.72 0
M  V30 2743 C 85.888 49.88 43.314 0
M  V30 2744 C 86.494 50.513 44.617 0
M  V30 2745 C 87.977 50.859 44.32 0
M  V30 2746 C 88.8 49.627 43.919 0
M  V30 2747 C 86.397 49.543 45.824 0
M  V30 2748 C 84.453 49.388 43.477 0
M  V30 2749 C 83.363 50.301 43.56 0
M  V30 2750 C 82.043 49.839 43.694 0
M  V30 2751 C 81.835 48.465 43.749 0
M  V30 2752 C 82.873 47.578 43.681 0
M  V30 2753 C 84.194 47.997 43.55 0
M  V30 2754 C 82.339 46.311 43.767 0
M  V30 2755 C 80.967 46.502 43.887 0
M  V30 2756 N 80.663 47.82 43.875 0
M  V30 2757 H 79.768 48.224 43.944 0
M  V30 2758 C 85.753 51.805 44.95 0
M  V30 2759 C 86.377 52.919 45.367 0
M  V30 2760 C 85.674 54.179 45.705 0
M  V30 2761 C 84.607 54.127 46.641 0
M  V30 2762 C 83.907 55.29 47.007 0
M  V30 2763 C 84.3 56.495 46.432 0
M  V30 2764 C 85.335 56.561 45.54 0
M  V30 2765 C 86.051 55.431 45.155 0
M  V30 2766 C 85.478 57.881 45.173 0
M  V30 2767 C 84.493 58.564 45.88 0
M  V30 2768 N 83.776 57.712 46.648 0
M  V30 2769 H 83.025 57.938 47.243 0
M  V30 2770 C 84.456 55.088 48.467 0
M  V30 2771 C 84.809 53.849 47.69 0
M  V30 2772 C 84.21 53.629 46.503 0
M  V30 2773 C 84.454 52.386 45.67 0
M  V30 2774 C 85.842 51.712 45.965 0
M  V30 2775 C 85.983 51.594 47.506 0
M  V30 2776 C 85.915 52.956 48.21 0
M  V30 2777 C 87.016 52.539 45.378 0
M  V30 2778 C 84.207 52.667 44.192 0
M  V30 2779 C 83.688 51.664 43.324 0
M  V30 2780 C 83.448 51.937 41.967 0
M  V30 2781 C 83.74 53.213 41.496 0
M  V30 2782 C 84.248 54.182 42.317 0
M  V30 2783 C 84.501 53.949 43.665 0
M  V30 2784 C 84.429 55.315 41.553 0
M  V30 2785 C 84.009 54.963 40.275 0
M  V30 2786 N 83.588 53.678 40.245 0
M  V30 2787 H 83.242 53.184 39.467 0
M  V30 2788 C 85.866 50.308 45.368 0
M  V30 2789 C 86.7 49.95 44.378 0
M  V30 2790 C 86.732 48.595 43.777 0
M  V30 2791 C 87.671 48.336 42.744 0
M  V30 2792 C 87.753 47.068 42.141 0
M  V30 2793 C 86.893 46.074 42.596 0
M  V30 2794 C 85.993 46.306 43.599 0
M  V30 2795 C 85.883 47.548 44.22 0
M  V30 2796 C 85.31 45.13 43.821 0
M  V30 2797 C 85.847 44.222 42.913 0
M  V30 2798 N 86.814 44.804 42.166 0
M  V30 2799 H 87.349 44.383 41.456 0
M  V30 2800 C 83.84 54.955 48.777 0
M  V30 2801 C 84.553 53.924 47.946 0
M  V30 2802 C 84.062 53.61 46.73 0
M  V30 2803 C 84.673 52.546 45.84 0
M  V30 2804 C 86.194 52.292 46.141 0
M  V30 2805 C 86.342 52.128 47.676 0
M  V30 2806 C 85.866 53.364 48.451 0
M  V30 2807 C 87.08 53.461 45.636 0
M  V30 2808 C 84.375 52.832 44.372 0
M  V30 2809 C 83.838 51.828 43.516 0
M  V30 2810 C 83.55 52.105 42.169 0
M  V30 2811 C 83.813 53.386 41.696 0
M  V30 2812 C 84.338 54.357 42.504 0
M  V30 2813 C 84.637 54.12 43.842 0
M  V30 2814 C 84.481 55.495 41.741 0
M  V30 2815 C 84.022 55.145 40.476 0
M  V30 2816 N 83.615 53.856 40.453 0
M  V30 2817 H 83.248 53.363 39.684 0
M  V30 2818 C 86.639 50.996 45.469 0
M  V30 2819 C 87.367 50.971 44.34 0
M  V30 2820 C 87.8 49.723 43.667 0
M  V30 2821 C 86.802 48.848 43.163 0
M  V30 2822 C 87.151 47.653 42.509 0
M  V30 2823 C 88.503 47.361 42.362 0
M  V30 2824 C 89.474 48.203 42.831 0
M  V30 2825 C 89.167 49.394 43.483 0
M  V30 2826 C 90.693 47.641 42.519 0
M  V30 2827 C 90.387 46.454 41.861 0
M  V30 2828 N 89.047 46.287 41.768 0
M  V30 2829 H 88.57 45.535 41.35 0
M  V30 2830 C 91.435 49.088 42.676 0
M  V30 2831 C 89.951 48.915 42.85 0
M  V30 2832 C 89.347 49.484 43.913 0
M  V30 2833 C 87.869 49.322 44.21 0
M  V30 2834 C 87.019 48.991 42.931 0
M  V30 2835 C 87.739 47.841 42.179 0
M  V30 2836 C 89.169 48.213 41.761 0
M  V30 2837 C 86.869 50.229 42.007 0
M  V30 2838 C 87.344 50.511 45.008 0
M  V30 2839 C 87.241 51.806 44.425 0
M  V30 2840 C 86.741 52.893 45.162 0
M  V30 2841 C 86.357 52.665 46.48 0
M  V30 2842 C 86.461 51.429 47.055 0
M  V30 2843 C 86.952 50.33 46.357 0
M  V30 2844 C 86.009 51.539 48.352 0
M  V30 2845 C 85.645 52.873 48.498 0
M  V30 2846 N 85.86 53.558 47.351 0
M  V30 2847 H 85.686 54.513 47.189 0
M  V30 2848 C 85.634 48.505 43.349 0
M  V30 2849 C 84.517 49.225 43.154 0
M  V30 2850 C 83.165 48.774 43.562 0
M  V30 2851 C 82.2 49.759 43.904 0
M  V30 2852 C 80.899 49.393 44.292 0
M  V30 2853 C 80.585 48.038 44.32 0
M  V30 2854 C 81.501 47.081 43.981 0
M  V30 2855 C 82.797 47.405 43.592 0
M  V30 2856 C 80.88 45.856 44.098 0
M  V30 2857 C 79.584 46.145 44.516 0
M  V30 2858 N 79.409 47.479 44.651 0
M  V30 2859 H 78.589 47.945 44.932 0
M  V30 2860 C 86.691 56.484 44.005 0
M  V30 2861 C 86.22 55.065 44.161 0
M  V30 2862 C 86.677 54.127 43.307 0
M  V30 2863 C 86.221 52.681 43.344 0
M  V30 2864 C 85.692 52.24 44.756 0
M  V30 2865 C 84.698 53.328 45.241 0
M  V30 2866 C 85.347 54.715 45.347 0
M  V30 2867 C 86.85 52.076 45.775 0
M  V30 2868 C 87.294 51.761 42.773 0
M  V30 2869 C 88.505 52.282 42.235 0
M  V30 2870 C 89.497 51.426 41.725 0
M  V30 2871 C 89.256 50.056 41.757 0
M  V30 2872 C 88.093 49.544 42.262 0
M  V30 2873 C 87.088 50.359 42.773 0
M  V30 2874 C 88.162 48.172 42.145 0
M  V30 2875 C 89.398 47.919 41.559 0
M  V30 2876 N 90.063 49.074 41.325 0
M  V30 2877 H 90.954 49.173 40.92 0
M  V30 2878 C 84.941 50.918 44.631 0
M  V30 2879 C 83.769 50.802 43.985 0
M  V30 2880 C 83.019 49.529 43.862 0
M  V30 2881 C 83.749 48.338 43.604 0
M  V30 2882 C 83.094 47.1 43.485 0
M  V30 2883 C 81.711 47.076 43.637 0
M  V30 2884 C 80.998 48.214 43.898 0
M  V30 2885 C 81.612 49.457 44.023 0
M  V30 2886 C 79.673 47.854 44.004 0
M  V30 2887 C 79.652 46.479 43.794 0
M  V30 2888 N 80.9 46.008 43.569 0
M  V30 2889 H 81.161 45.075 43.394 0
M  V30 2890 C 84.411 58.932 46.182 0
M  V30 2891 C 85.085 57.779 45.491 0
M  V30 2892 C 85.619 56.792 46.238 0
M  V30 2893 C 86.368 55.616 45.642 0
M  V30 2894 C 85.958 55.317 44.155 0
M  V30 2895 C 85.989 56.663 43.385 0
M  V30 2896 C 85.032 57.705 43.98 0
M  V30 2897 C 84.547 54.678 44.067 0
M  V30 2898 C 86.285 54.4 46.56 0
M  V30 2899 C 85.585 54.456 47.799 0
M  V30 2900 C 85.499 53.327 48.631 0
M  V30 2901 C 86.125 52.158 48.212 0
M  V30 2902 C 86.809 52.095 47.029 0
M  V30 2903 C 86.917 53.191 46.18 0
M  V30 2904 C 87.31 50.816 46.91 0
M  V30 2905 C 86.89 50.153 48.059 0
M  V30 2906 N 86.166 50.978 48.851 0
M  V30 2907 H 85.755 50.757 49.718 0
M  V30 2908 C 86.978 54.373 43.523 0
M  V30 2909 C 86.671 53.128 43.124 0
M  V30 2910 C 87.65 52.194 42.518 0
M  V30 2911 C 88.108 52.457 41.2 0
M  V30 2912 C 89.042 51.612 40.575 0
M  V30 2913 C 89.51 50.516 41.292 0
M  V30 2914 C 89.087 50.258 42.567 0
M  V30 2915 C 88.165 51.072 43.218 0
M  V30 2916 C 89.742 49.124 42.997 0
M  V30 2917 C 90.547 48.742 41.929 0
M  V30 2918 N 90.402 49.596 40.889 0
M  V30 2919 H 90.857 49.553 40.017 0
M  V30 2920 C 85.624 55.916 44.727 0
M  V30 2921 C 85.827 54.581 44.065 0
M  V30 2922 C 84.854 53.652 44.156 0
M  V30 2923 C 84.983 52.258 43.573 0
M  V30 2924 C 86.007 52.182 42.385 0
M  V30 2925 C 87.304 52.901 42.842 0
M  V30 2926 C 87.063 54.37 43.217 0
M  V30 2927 C 85.446 52.849 41.101 0
M  V30 2928 C 83.61 51.682 43.241 0
M  V30 2929 C 82.722 52.351 42.351 0
M  V30 2930 C 81.466 51.804 42.038 0
M  V30 2931 C 81.115 50.595 42.629 0
M  V30 2932 C 81.954 49.947 43.492 0
M  V30 2933 C 83.204 50.458 43.828 0
M  V30 2934 C 81.317 48.796 43.9 0
M  V30 2935 C 80.091 48.806 43.244 0
M  V30 2936 N 79.972 49.907 42.467 0
M  V30 2937 H 79.206 50.154 41.901 0
M  V30 2938 C 86.341 50.723 42.09 0
M  V30 2939 C 86.678 49.842 43.047 0
M  V30 2940 C 87.015 48.424 42.779 0
M  V30 2941 C 88.216 48.137 42.077 0
M  V30 2942 C 88.593 46.811 41.799 0
M  V30 2943 C 87.759 45.79 42.243 0
M  V30 2944 C 86.607 46.052 42.932 0
M  V30 2945 C 86.202 47.352 43.226 0
M  V30 2946 C 86.024 44.841 43.237 0
M  V30 2947 C 86.877 43.883 42.699 0
M  V30 2948 N 87.936 44.467 42.093 0
M  V30 2949 H 88.682 44.017 41.636 0
M  V30 2950 C 84.631 57.181 43.058 0
M  V30 2951 C 85.046 55.737 43.005 0
M  V30 2952 C 85.512 55.148 44.125 0
M  V30 2953 C 86.007 53.716 44.163 0
M  V30 2954 C 85.39 52.823 43.028 0
M  V30 2955 C 85.529 53.604 41.694 0
M  V30 2956 C 84.809 54.959 41.728 0
M  V30 2957 C 83.9 52.491 43.306 0
M  V30 2958 C 85.854 53.128 45.562 0
M  V30 2959 C 86.776 52.165 46.064 0
M  V30 2960 C 86.638 51.641 47.361 0
M  V30 2961 C 85.57 52.084 48.133 0
M  V30 2962 C 84.672 53 47.659 0
M  V30 2963 C 84.775 53.541 46.381 0
M  V30 2964 C 83.744 53.222 48.654 0
M  V30 2965 C 84.141 52.406 49.708 0
M  V30 2966 N 85.257 51.713 49.386 0
M  V30 2967 H 85.74 51.069 49.952 0
M  V30 2968 C 86.182 51.523 42.912 0
M  V30 2969 C 87.424 51.467 42.403 0
M  V30 2970 C 88.204 50.213 42.273 0
M  V30 2971 C 89.61 50.309 42.098 0
M  V30 2972 C 90.405 49.155 41.976 0
M  V30 2973 C 89.772 47.918 42.044 0
M  V30 2974 C 88.42 47.812 42.226 0
M  V30 2975 C 87.602 48.931 42.351 0
M  V30 2976 C 88.113 46.469 42.262 0
M  V30 2977 C 89.329 45.814 42.093 0
M  V30 2978 N 90.34 46.704 41.959 0
M  V30 2979 H 91.294 46.503 41.829 0
M  V30 2980 C 90.091 52.389 40.962 0
M  V30 2981 C 88.91 51.679 41.566 0
M  V30 2982 C 88.768 50.355 41.36 0
M  V30 2983 C 87.586 49.558 41.876 0
M  V30 2984 C 86.901 50.217 43.127 0
M  V30 2985 C 86.679 51.717 42.799 0
M  V30 2986 C 87.99 52.453 42.485 0
M  V30 2987 C 87.773 50.067 44.402 0
M  V30 2988 C 87.966 48.096 42.081 0
M  V30 2989 C 89.329 47.68 42.089 0
M  V30 2990 C 89.672 46.333 42.295 0
M  V30 2991 C 88.641 45.419 42.483 0
M  V30 2992 C 87.329 45.803 42.467 0
M  V30 2993 C 86.95 47.127 42.265 0
M  V30 2994 C 86.566 44.674 42.676 0
M  V30 2995 C 87.482 43.636 42.811 0
M  V30 2996 N 88.749 44.096 42.693 0
M  V30 2997 H 89.579 43.57 42.749 0
M  V30 2998 C 85.541 49.567 43.367 0
M  V30 2999 C 84.384 50.133 42.987 0
M  V30 3000 C 83.053 49.523 43.221 0
M  V30 3001 C 81.898 50.318 42.999 0
M  V30 3002 C 80.609 49.793 43.197 0
M  V30 3003 C 80.501 48.467 43.606 0
M  V30 3004 C 81.606 47.687 43.81 0
M  V30 3005 C 82.897 48.172 43.624 0
M  V30 3006 C 81.164 46.438 44.191 0
M  V30 3007 C 79.775 46.532 44.2 0
M  V30 3008 N 79.375 47.774 43.842 0
M  V30 3009 H 78.45 48.102 43.769 0
M  V30 3010 C 88.885 47.643 42.246 0
M  V30 3011 C 88.095 48.726 42.927 0
M  V30 3012 C 86.764 48.794 42.72 0
M  V30 3013 C 85.888 49.88 43.314 0
M  V30 3014 C 86.494 50.513 44.617 0
M  V30 3015 C 87.977 50.859 44.32 0
M  V30 3016 C 88.8 49.627 43.919 0
M  V30 3017 C 86.397 49.543 45.824 0
M  V30 3018 C 84.453 49.388 43.477 0
M  V30 3019 C 83.363 50.301 43.56 0
M  V30 3020 C 82.043 49.839 43.694 0
M  V30 3021 C 81.835 48.465 43.749 0
M  V30 3022 C 82.873 47.578 43.681 0
M  V30 3023 C 84.194 47.997 43.55 0
M  V30 3024 C 82.339 46.311 43.767 0
M  V30 3025 C 80.967 46.502 43.887 0
M  V30 3026 N 80.663 47.82 43.875 0
M  V30 3027 H 79.768 48.224 43.944 0
M  V30 3028 C 85.753 51.805 44.95 0
M  V30 3029 C 86.377 52.919 45.367 0
M  V30 3030 C 85.674 54.179 45.705 0
M  V30 3031 C 84.607 54.127 46.641 0
M  V30 3032 C 83.907 55.29 47.007 0
M  V30 3033 C 84.3 56.495 46.432 0
M  V30 3034 C 85.335 56.561 45.54 0
M  V30 3035 C 86.051 55.431 45.155 0
M  V30 3036 C 85.478 57.881 45.173 0
M  V30 3037 C 84.493 58.564 45.88 0
M  V30 3038 N 83.776 57.712 46.648 0
M  V30 3039 H 83.025 57.938 47.243 0
M  V30 3040 C 84.456 55.088 48.467 0
M  V30 3041 C 84.809 53.849 47.69 0
M  V30 3042 C 84.21 53.629 46.503 0
M  V30 3043 C 84.454 52.386 45.67 0
M  V30 3044 C 85.842 51.712 45.965 0
M  V30 3045 C 85.983 51.594 47.506 0
M  V30 3046 C 85.915 52.956 48.21 0
M  V30 3047 C 87.016 52.539 45.378 0
M  V30 3048 C 84.207 52.667 44.192 0
M  V30 3049 C 83.688 51.664 43.324 0
M  V30 3050 C 83.448 51.937 41.967 0
M  V30 3051 C 83.74 53.213 41.496 0
M  V30 3052 C 84.248 54.182 42.317 0
M  V30 3053 C 84.501 53.949 43.665 0
M  V30 3054 C 84.429 55.315 41.553 0
M  V30 3055 C 84.009 54.963 40.275 0
M  V30 3056 N 83.588 53.678 40.245 0
M  V30 3057 H 83.242 53.184 39.467 0
M  V30 3058 C 85.866 50.308 45.368 0
M  V30 3059 C 86.7 49.95 44.378 0
M  V30 3060 C 86.732 48.595 43.777 0
M  V30 3061 C 87.671 48.336 42.744 0
M  V30 3062 C 87.753 47.068 42.141 0
M  V30 3063 C 86.893 46.074 42.596 0
M  V30 3064 C 85.993 46.306 43.599 0
M  V30 3065 C 85.883 47.548 44.22 0
M  V30 3066 C 85.31 45.13 43.821 0
M  V30 3067 C 85.847 44.222 42.913 0
M  V30 3068 N 86.814 44.804 42.166 0
M  V30 3069 H 87.349 44.383 41.456 0
M  V30 3070 C 83.84 54.955 48.777 0
M  V30 3071 C 84.553 53.924 47.946 0
M  V30 3072 C 84.062 53.61 46.73 0
M  V30 3073 C 84.673 52.546 45.84 0
M  V30 3074 C 86.194 52.292 46.141 0
M  V30 3075 C 86.342 52.128 47.676 0
M  V30 3076 C 85.866 53.364 48.451 0
M  V30 3077 C 87.08 53.461 45.636 0
M  V30 3078 C 84.375 52.832 44.372 0
M  V30 3079 C 83.838 51.828 43.516 0
M  V30 3080 C 83.55 52.105 42.169 0
M  V30 3081 C 83.813 53.386 41.696 0
M  V30 3082 C 84.338 54.357 42.504 0
M  V30 3083 C 84.637 54.12 43.842 0
M  V30 3084 C 84.481 55.495 41.741 0
M  V30 3085 C 84.022 55.145 40.476 0
M  V30 3086 N 83.615 53.856 40.453 0
M  V30 3087 H 83.248 53.363 39.684 0
M  V30 3088 C 86.639 50.996 45.469 0
M  V30 3089 C 87.367 50.971 44.34 0
M  V30 3090 C 87.8 49.723 43.667 0
M  V30 3091 C 86.802 48.848 43.163 0
M  V30 3092 C 87.151 47.653 42.509 0
M  V30 3093 C 88.503 47.361 42.362 0
M  V30 3094 C 89.474 48.203 42.831 0
M  V30 3095 C 89.167 49.394 43.483 0
M  V30 3096 C 90.693 47.641 42.519 0
M  V30 3097 C 90.387 46.454 41.861 0
M  V30 3098 N 89.047 46.287 41.768 0
M  V30 3099 H 88.57 45.535 41.35 0
M  V30 3100 C 91.435 49.088 42.676 0
M  V30 3101 C 89.951 48.915 42.85 0
M  V30 3102 C 89.347 49.484 43.913 0
M  V30 3103 C 87.869 49.322 44.21 0
M  V30 3104 C 87.019 48.991 42.931 0
M  V30 3105 C 87.739 47.841 42.179 0
M  V30 3106 C 89.169 48.213 41.761 0
M  V30 3107 C 86.869 50.229 42.007 0
M  V30 3108 C 87.344 50.511 45.008 0
M  V30 3109 C 87.241 51.806 44.425 0
M  V30 3110 C 86.741 52.893 45.162 0
M  V30 3111 C 86.357 52.665 46.48 0
M  V30 3112 C 86.461 51.429 47.055 0
M  V30 3113 C 86.952 50.33 46.357 0
M  V30 3114 C 86.009 51.539 48.352 0
M  V30 3115 C 85.645 52.873 48.498 0
M  V30 3116 N 85.86 53.558 47.351 0
M  V30 3117 H 85.686 54.513 47.189 0
M  V30 3118 C 85.634 48.505 43.349 0
M  V30 3119 C 84.517 49.225 43.154 0
M  V30 3120 C 83.165 48.774 43.562 0
M  V30 3121 C 82.2 49.759 43.904 0
M  V30 3122 C 80.899 49.393 44.292 0
M  V30 3123 C 80.585 48.038 44.32 0
M  V30 3124 C 81.501 47.081 43.981 0
M  V30 3125 C 82.797 47.405 43.592 0
M  V30 3126 C 80.88 45.856 44.098 0
M  V30 3127 C 79.584 46.145 44.516 0
M  V30 3128 N 79.409 47.479 44.651 0
M  V30 3129 H 78.589 47.945 44.932 0
M  V30 3130 C 86.691 56.484 44.005 0
M  V30 3131 C 86.22 55.065 44.161 0
M  V30 3132 C 86.677 54.127 43.307 0
M  V30 3133 C 86.221 52.681 43.344 0
M  V30 3134 C 85.692 52.24 44.756 0
M  V30 3135 C 84.698 53.328 45.241 0
M  V30 3136 C 85.347 54.715 45.347 0
M  V30 3137 C 86.85 52.076 45.775 0
M  V30 3138 C 87.294 51.761 42.773 0
M  V30 3139 C 88.505 52.282 42.235 0
M  V30 3140 C 89.497 51.426 41.725 0
M  V30 3141 C 89.256 50.056 41.757 0
M  V30 3142 C 88.093 49.544 42.262 0
M  V30 3143 C 87.088 50.359 42.773 0
M  V30 3144 C 88.162 48.172 42.145 0
M  V30 3145 C 89.398 47.919 41.559 0
M  V30 3146 N 90.063 49.074 41.325 0
M  V30 3147 H 90.954 49.173 40.92 0
M  V30 3148 C 84.941 50.918 44.631 0
M  V30 3149 C 83.769 50.802 43.985 0
M  V30 3150 C 83.019 49.529 43.862 0
M  V30 3151 C 83.749 48.338 43.604 0
M  V30 3152 C 83.094 47.1 43.485 0
M  V30 3153 C 81.711 47.076 43.637 0
M  V30 3154 C 80.998 48.214 43.898 0
M  V30 3155 C 81.612 49.457 44.023 0
M  V30 3156 C 79.673 47.854 44.004 0
M  V30 3157 C 79.652 46.479 43.794 0
M  V30 3158 N 80.9 46.008 43.569 0
M  V30 3159 H 81.161 45.075 43.394 0
M  V30 3160 C 84.411 58.932 46.182 0
M  V30 3161 C 85.085 57.779 45.491 0
M  V30 3162 C 85.619 56.792 46.238 0
M  V30 3163 C 86.368 55.616 45.642 0
M  V30 3164 C 85.958 55.317 44.155 0
M  V30 3165 C 85.989 56.663 43.385 0
M  V30 3166 C 85.032 57.705 43.98 0
M  V30 3167 C 84.547 54.678 44.067 0
M  V30 3168 C 86.285 54.4 46.56 0
M  V30 3169 C 85.585 54.456 47.799 0
M  V30 3170 C 85.499 53.327 48.631 0
M  V30 3171 C 86.125 52.158 48.212 0
M  V30 3172 C 86.809 52.095 47.029 0
M  V30 3173 C 86.917 53.191 46.18 0
M  V30 3174 C 87.31 50.816 46.91 0
M  V30 3175 C 86.89 50.153 48.059 0
M  V30 3176 N 86.166 50.978 48.851 0
M  V30 3177 H 85.755 50.757 49.718 0
M  V30 3178 C 86.978 54.373 43.523 0
M  V30 3179 C 86.671 53.128 43.124 0
M  V30 3180 C 87.65 52.194 42.518 0
M  V30 3181 C 88.108 52.457 41.2 0
M  V30 3182 C 89.042 51.612 40.575 0
M  V30 3183 C 89.51 50.516 41.292 0
M  V30 3184 C 89.087 50.258 42.567 0
M  V30 3185 C 88.165 51.072 43.218 0
M  V30 3186 C 89.742 49.124 42.997 0
M  V30 3187 C 90.547 48.742 41.929 0
M  V30 3188 N 90.402 49.596 40.889 0
M  V30 3189 H 90.857 49.553 40.017 0
M  V30 3190 C 85.624 55.916 44.727 0
M  V30 3191 C 85.827 54.581 44.065 0
M  V30 3192 C 84.854 53.652 44.156 0
M  V30 3193 C 84.983 52.258 43.573 0
M  V30 3194 C 86.007 52.182 42.385 0
M  V30 3195 C 87.304 52.901 42.842 0
M  V30 3196 C 87.063 54.37 43.217 0
M  V30 3197 C 85.446 52.849 41.101 0
M  V30 3198 C 83.61 51.682 43.241 0
M  V30 3199 C 82.722 52.351 42.351 0
M  V30 3200 C 81.466 51.804 42.038 0
M  V30 3201 C 81.115 50.595 42.629 0
M  V30 3202 C 81.954 49.947 43.492 0
M  V30 3203 C 83.204 50.458 43.828 0
M  V30 3204 C 81.317 48.796 43.9 0
M  V30 3205 C 80.091 48.806 43.244 0
M  V30 3206 N 79.972 49.907 42.467 0
M  V30 3207 H 79.206 50.154 41.901 0
M  V30 3208 C 86.341 50.723 42.09 0
M  V30 3209 C 86.678 49.842 43.047 0
M  V30 3210 C 87.015 48.424 42.779 0
M  V30 3211 C 88.216 48.137 42.077 0
M  V30 3212 C 88.593 46.811 41.799 0
M  V30 3213 C 87.759 45.79 42.243 0
M  V30 3214 C 86.607 46.052 42.932 0
M  V30 3215 C 86.202 47.352 43.226 0
M  V30 3216 C 86.024 44.841 43.237 0
M  V30 3217 C 86.877 43.883 42.699 0
M  V30 3218 N 87.936 44.467 42.093 0
M  V30 3219 H 88.682 44.017 41.636 0
M  V30 3220 C 84.631 57.181 43.058 0
M  V30 3221 C 85.046 55.737 43.005 0
M  V30 3222 C 85.512 55.148 44.125 0
M  V30 3223 C 86.007 53.716 44.163 0
M  V30 3224 C 85.39 52.823 43.028 0
M  V30 3225 C 85.529 53.604 41.694 0
M  V30 3226 C 84.809 54.959 41.728 0
M  V30 3227 C 83.9 52.491 43.306 0
M  V30 3228 C 85.854 53.128 45.562 0
M  V30 3229 C 86.776 52.165 46.064 0
M  V30 3230 C 86.638 51.641 47.361 0
M  V30 3231 C 85.57 52.084 48.133 0
M  V30 3232 C 84.672 53 47.659 0
M  V30 3233 C 84.775 53.541 46.381 0
M  V30 3234 C 83.744 53.222 48.654 0
M  V30 3235 C 84.141 52.406 49.708 0
M  V30 3236 N 85.257 51.713 49.386 0
M  V30 3237 H 85.74 51.069 49.952 0
M  V30 3238 C 86.182 51.523 42.912 0
M  V30 3239 C 87.424 51.467 42.403 0
M  V30 3240 C 88.204 50.213 42.273 0
M  V30 3241 C 89.61 50.309 42.098 0
M  V30 3242 C 90.405 49.155 41.976 0
M  V30 3243 C 89.772 47.918 42.044 0
M  V30 3244 C 88.42 47.812 42.226 0
M  V30 3245 C 87.602 48.931 42.351 0
M  V30 3246 C 88.113 46.469 42.262 0
M  V30 3247 C 89.329 45.814 42.093 0
M  V30 3248 N 90.34 46.704 41.959 0
M  V30 3249 H 91.294 46.503 41.829 0
M  V30 3250 C 90.091 52.389 40.962 0
M  V30 3251 C 88.91 51.679 41.566 0
M  V30 3252 C 88.768 50.355 41.36 0
M  V30 3253 C 87.586 49.558 41.876 0
M  V30 3254 C 86.901 50.217 43.127 0
M  V30 3255 C 86.679 51.717 42.799 0
M  V30 3256 C 87.99 52.453 42.485 0
M  V30 3257 C 87.773 50.067 44.402 0
M  V30 3258 C 87.966 48.096 42.081 0
M  V30 3259 C 89.329 47.68 42.089 0
M  V30 3260 C 89.672 46.333 42.295 0
M  V30 3261 C 88.641 45.419 42.483 0
M  V30 3262 C 87.329 45.803 42.467 0
M  V30 3263 C 86.95 47.127 42.265 0
M  V30 3264 C 86.566 44.674 42.676 0
M  V30 3265 C 87.482 43.636 42.811 0
M  V30 3266 N 88.749 44.096 42.693 0
M  V30 3267 H 89.579 43.57 42.749 0
M  V30 3268 C 85.541 49.567 43.367 0
M  V30 3269 C 84.384 50.133 42.987 0
M  V30 3270 C 83.053 49.523 43.221 0
M  V30 3271 C 81.898 50.318 42.999 0
M  V30 3272 C 80.609 49.793 43.197 0
M  V30 3273 C 80.501 48.467 43.606 0
M  V30 3274 C 81.606 47.687 43.81 0
M  V30 3275 C 82.897 48.172 43.624 0
M  V30 3276 C 81.164 46.438 44.191 0
M  V30 3277 C 79.775 46.532 44.2 0
M  V30 3278 N 79.375 47.774 43.842 0
M  V30 3279 H 78.45 48.102 43.769 0
M  V30 3280 C 88.885 47.643 42.246 0
M  V30 3281 C 88.095 48.726 42.927 0
M  V30 3282 C 86.764 48.794 42.72 0
M  V30 3283 C 85.888 49.88 43.314 0
M  V30 3284 C 86.494 50.513 44.617 0
M  V30 3285 C 87.977 50.859 44.32 0
M  V30 3286 C 88.8 49.627 43.919 0
M  V30 3287 C 86.397 49.543 45.824 0
M  V30 3288 C 84.453 49.388 43.477 0
M  V30 3289 C 83.363 50.301 43.56 0
M  V30 3290 C 82.043 49.839 43.694 0
M  V30 3291 C 81.835 48.465 43.749 0
M  V30 3292 C 82.873 47.578 43.681 0
M  V30 3293 C 84.194 47.997 43.55 0
M  V30 3294 C 82.339 46.311 43.767 0
M  V30 3295 C 80.967 46.502 43.887 0
M  V30 3296 N 80.663 47.82 43.875 0
M  V30 3297 H 79.768 48.224 43.944 0
M  V30 3298 C 85.753 51.805 44.95 0
M  V30 3299 C 86.377 52.919 45.367 0
M  V30 3300 C 85.674 54.179 45.705 0
M  V30 3301 C 84.607 54.127 46.641 0
M  V30 3302 C 83.907 55.29 47.007 0
M  V30 3303 C 84.3 56.495 46.432 0
M  V30 3304 C 85.335 56.561 45.54 0
M  V30 3305 C 86.051 55.431 45.155 0
M  V30 3306 C 85.478 57.881 45.173 0
M  V30 3307 C 84.493 58.564 45.88 0
M  V30 3308 N 83.776 57.712 46.648 0
M  V30 3309 H 83.025 57.938 47.243 0
M  V30 3310 C 84.456 55.088 48.467 0
M  V30 3311 C 84.809 53.849 47.69 0
M  V30 3312 C 84.21 53.629 46.503 0
M  V30 3313 C 84.454 52.386 45.67 0
M  V30 3314 C 85.842 51.712 45.965 0
M  V30 3315 C 85.983 51.594 47.506 0
M  V30 3316 C 85.915 52.956 48.21 0
M  V30 3317 C 87.016 52.539 45.378 0
M  V30 3318 C 84.207 52.667 44.192 0
M  V30 3319 C 83.688 51.664 43.324 0
M  V30 3320 C 83.448 51.937 41.967 0
M  V30 3321 C 83.74 53.213 41.496 0
M  V30 3322 C 84.248 54.182 42.317 0
M  V30 3323 C 84.501 53.949 43.665 0
M  V30 3324 C 84.429 55.315 41.553 0
M  V30 3325 C 84.009 54.963 40.275 0
M  V30 3326 N 83.588 53.678 40.245 0
M  V30 3327 H 83.242 53.184 39.467 0
M  V30 3328 C 85.866 50.308 45.368 0
M  V30 3329 C 86.7 49.95 44.378 0
M  V30 3330 C 86.732 48.595 43.777 0
M  V30 3331 C 87.671 48.336 42.744 0
M  V30 3332 C 87.753 47.068 42.141 0
M  V30 3333 C 86.893 46.074 42.596 0
M  V30 3334 C 85.993 46.306 43.599 0
M  V30 3335 C 85.883 47.548 44.22 0
M  V30 3336 C 85.31 45.13 43.821 0
M  V30 3337 C 85.847 44.222 42.913 0
M  V30 3338 N 86.814 44.804 42.166 0
M  V30 3339 H 87.349 44.383 41.456 0
M  V30 3340 C 83.84 54.955 48.777 0
M  V30 3341 C 84.553 53.924 47.946 0
M  V30 3342 C 84.062 53.61 46.73 0
M  V30 3343 C 84.673 52.546 45.84 0
M  V30 3344 C 86.194 52.292 46.141 0
M  V30 3345 C 86.342 52.128 47.676 0
M  V30 3346 C 85.866 53.364 48.451 0
M  V30 3347 C 87.08 53.461 45.636 0
M  V30 3348 C 84.375 52.832 44.372 0
M  V30 3349 C 83.838 51.828 43.516 0
M  V30 3350 C 83.55 52.105 42.169 0
M  V30 3351 C 83.813 53.386 41.696 0
M  V30 3352 C 84.338 54.357 42.504 0
M  V30 3353 C 84.637 54.12 43.842 0
M  V30 3354 C 84.481 55.495 41.741 0
M  V30 3355 C 84.022 55.145 40.476 0
M  V30 3356 N 83.615 53.856 40.453 0
M  V30 3357 H 83.248 53.363 39.684 0
M  V30 3358 C 86.639 50.996 45.469 0
M  V30 3359 C 87.367 50.971 44.34 0
M  V30 3360 C 87.8 49.723 43.667 0
M  V30 3361 C 86.802 48.848 43.163 0
M  V30 3362 C 87.151 47.653 42.509 0
M  V30 3363 C 88.503 47.361 42.362 0
M  V30 3364 C 89.474 48.203 42.831 0
M  V30 3365 C 89.167 49.394 43.483 0
M  V30 3366 C 90.693 47.641 42.519 0
M  V30 3367 C 90.387 46.454 41.861 0
M  V30 3368 N 89.047 46.287 41.768 0
M  V30 3369 H 88.57 45.535 41.35 0
M  V30 3370 C 91.435 49.088 42.676 0
M  V30 3371 C 89.951 48.915 42.85 0
M  V30 3372 C 89.347 49.484 43.913 0
M  V30 3373 C 87.869 49.322 44.21 0
M  V30 3374 C 87.019 48.991 42.931 0
M  V30 3375 C 87.739 47.841 42.179 0
M  V30 3376 C 89.169 48.213 41.761 0
M  V30 3377 C 86.869 50.229 42.007 0
M  V30 3378 C 87.344 50.511 45.008 0
M  V30 3379 C 87.241 51.806 44.425 0
M  V30 3380 C 86.741 52.893 45.162 0
M  V30 3381 C 86.357 52.665 46.48 0
M  V30 3382 C 86.461 51.429 47.055 0
M  V30 3383 C 86.952 50.33 46.357 0
M  V30 3384 C 86.009 51.539 48.352 0
M  V30 3385 C 85.645 52.873 48.498 0
M  V30 3386 N 85.86 53.558 47.351 0
M  V30 3387 H 85.686 54.513 47.189 0
M  V30 3388 C 85.634 48.505 43.349 0
M  V30 3389 C 84.517 49.225 43.154 0
M  V30 3390 C 83.165 48.774 43.562 0
M  V30 3391 C 82.2 49.759 43.904 0
M  V30 3392 C 80.899 49.393 44.292 0
M  V30 3393 C 80.585 48.038 44.32 0
M  V30 3394 C 81.501 47.081 43.981 0
M  V30 3395 C 82.797 47.405 43.592 0
M  V30 3396 C 80.88 45.856 44.098 0
M  V30 3397 C 79.584 46.145 44.516 0
M  V30 3398 N 79.409 47.479 44.651 0
M  V30 3399 H 78.589 47.945 44.932 0
M  V30 3400 C 86.691 56.484 44.005 0
M  V30 3401 C 86.22 55.065 44.161 0
M  V30 3402 C 86.677 54.127 43.307 0
M  V30 3403 C 86.221 52.681 43.344 0
M  V30 3404 C 85.692 52.24 44.756 0
M  V30 3405 C 84.698 53.328 45.241 0
M  V30 3406 C 85.347 54.715 45.347 0
M  V30 3407 C 86.85 52.076 45.775 0
M  V30 3408 C 87.294 51.761 42.773 0
M  V30 3409 C 88.505 52.282 42.235 0
M  V30 3410 C 89.497 51.426 41.725 0
M  V30 3411 C 89.256 50.056 41.757 0
M  V30 3412 C 88.093 49.544 42.262 0
M  V30 3413 C 87.088 50.359 42.773 0
M  V30 3414 C 88.162 48.172 42.145 0
M  V30 3415 C 89.398 47.919 41.559 0
M  V30 3416 N 90.063 49.074 41.325 0
M  V30 3417 H 90.954 49.173 40.92 0
M  V30 3418 C 84.941 50.918 44.631 0
M  V30 3419 C 83.769 50.802 43.985 0
M  V30 3420 C 83.019 49.529 43.862 0
M  V30 3421 C 83.749 48.338 43.604 0
M  V30 3422 C 83.094 47.1 43.485 0
M  V30 3423 C 81.711 47.076 43.637 0
M  V30 3424 C 80.998 48.214 43.898 0
M  V30 3425 C 81.612 49.457 44.023 0
M  V30 3426 C 79.673 47.854 44.004 0
M  V30 3427 C 79.652 46.479 43.794 0
M  V30 3428 N 80.9 46.008 43.569 0
M  V30 3429 H 81.161 45.075 43.394 0
M  V30 3430 C 84.411 58.932 46.182 0
M  V30 3431 C 85.085 57.779 45.491 0
M  V30 3432 C 85.619 56.792 46.238 0
M  V30 3433 C 86.368 55.616 45.642 0
M  V30 3434 C 85.958 55.317 44.155 0
M  V30 3435 C 85.989 56.663 43.385 0
M  V30 3436 C 85.032 57.705 43.98 0
M  V30 3437 C 84.547 54.678 44.067 0
M  V30 3438 C 86.285 54.4 46.56 0
M  V30 3439 C 85.585 54.456 47.799 0
M  V30 3440 C 85.499 53.327 48.631 0
M  V30 3441 C 86.125 52.158 48.212 0
M  V30 3442 C 86.809 52.095 47.029 0
M  V30 3443 C 86.917 53.191 46.18 0
M  V30 3444 C 87.31 50.816 46.91 0
M  V30 3445 C 86.89 50.153 48.059 0
M  V30 3446 N 86.166 50.978 48.851 0
M  V30 3447 H 85.755 50.757 49.718 0
M  V30 3448 C 86.978 54.373 43.523 0
M  V30 3449 C 86.671 53.128 43.124 0
M  V30 3450 C 87.65 52.194 42.518 0
M  V30 3451 C 88.108 52.457 41.2 0
M  V30 3452 C 89.042 51.612 40.575 0
M  V30 3453 C 89.51 50.516 41.292 0
M  V30 3454 C 89.087 50.258 42.567 0
M  V30 3455 C 88.165 51.072 43.218 0
M  V30 3456 C 89.742 49.124 42.997 0
M  V30 3457 C 90.547 48.742 41.929 0
M  V30 3458 N 90.402 49.596 40.889 0
M  V30 3459 H 90.857 49.553 40.017 0
M  V30 3460 C 85.624 55.916 44.727 0
M  V30 3461 C 85.827 54.581 44.065 0
M  V30 3462 C 84.854 53.652 44.156 0
M  V30 3463 C 84.983 52.258 43.573 0
M  V30 3464 C 86.007 52.182 42.385 0
M  V30 3465 C 87.304 52.901 42.842 0
M  V30 3466 C 87.063 54.37 43.217 0
M  V30 3467 C 85.446 52.849 41.101 0
M  V30 3468 C 83.61 51.682 43.241 0
M  V30 3469 C 82.722 52.351 42.351 0
M  V30 3470 C 81.466 51.804 42.038 0
M  V30 3471 C 81.115 50.595 42.629 0
M  V30 3472 C 81.954 49.947 43.492 0
M  V30 3473 C 83.204 50.458 43.828 0
M  V30 3474 C 81.317 48.796 43.9 0
M  V30 3475 C 80.091 48.806 43.244 0
M  V30 3476 N 79.972 49.907 42.467 0
M  V30 3477 H 79.206 50.154 41.901 0
M  V30 3478 C 86.341 50.723 42.09 0
M  V30 3479 C 86.678 49.842 43.047 0
M  V30 3480 C 87.015 48.424 42.779 0
M  V30 3481 C 88.216 48.137 42.077 0
M  V30 3482 C 88.593 46.811 41.799 0
M  V30 3483 C 87.759 45.79 42.243 0
M  V30 3484 C 86.607 46.052 42.932 0
M  V30 3485 C 86.202 47.352 43.226 0
M  V30 3486 C 86.024 44.841 43.237 0
M  V30 3487 C 86.877 43.883 42.699 0
M  V30 3488 N 87.936 44.467 42.093 0
M  V30 3489 H 88.682 44.017 41.636 0
M  V30 3490 C 84.631 57.181 43.058 0
M  V30 3491 C 85.046 55.737 43.005 0
M  V30 3492 C 85.512 55.148 44.125 0
M  V30 3493 C 86.007 53.716 44.163 0
M  V30 3494 C 85.39 52.823 43.028 0
M  V30 3495 C 85.529 53.604 41.694 0
M  V30 3496 C 84.809 54.959 41.728 0
M  V30 3497 C 83.9 52.491 43.306 0
M  V30 3498 C 85.854 53.128 45.562 0
M  V30 3499 C 86.776 52.165 46.064 0
M  V30 3500 C 86.638 51.641 47.361 0
M  V30 3501 C 85.57 52.084 48.133 0
M  V30 3502 C 84.672 53 47.659 0
M  V30 3503 C 84.775 53.541 46.381 0
M  V30 3504 C 83.744 53.222 48.654 0
M  V30 3505 C 84.141 52.406 49.708 0
M  V30 3506 N 85.257 51.713 49.386 0
M  V30 3507 H 85.74 51.069 49.952 0
M  V30 3508 C 86.182 51.523 42.912 0
M  V30 3509 C 87.424 51.467 42.403 0
M  V30 3510 C 88.204 50.213 42.273 0
M  V30 3511 C 89.61 50.309 42.098 0
M  V30 3512 C 90.405 49.155 41.976 0
M  V30 3513 C 89.772 47.918 42.044 0
M  V30 3514 C 88.42 47.812 42.226 0
M  V30 3515 C 87.602 48.931 42.351 0
M  V30 3516 C 88.113 46.469 42.262 0
M  V30 3517 C 89.329 45.814 42.093 0
M  V30 3518 N 90.34 46.704 41.959 0
M  V30 3519 H 91.294 46.503 41.829 0
M  V30 3520 C 90.091 52.389 40.962 0
M  V30 3521 C 88.91 51.679 41.566 0
M  V30 3522 C 88.768 50.355 41.36 0
M  V30 3523 C 87.586 49.558 41.876 0
M  V30 3524 C 86.901 50.217 43.127 0
M  V30 3525 C 86.679 51.717 42.799 0
M  V30 3526 C 87.99 52.453 42.485 0
M  V30 3527 C 87.773 50.067 44.402 0
M  V30 3528 C 87.966 48.096 42.081 0
M  V30 3529 C 89.329 47.68 42.089 0
M  V30 3530 C 89.672 46.333 42.295 0
M  V30 3531 C 88.641 45.419 42.483 0
M  V30 3532 C 87.329 45.803 42.467 0
M  V30 3533 C 86.95 47.127 42.265 0
M  V30 3534 C 86.566 44.674 42.676 0
M  V30 3535 C 87.482 43.636 42.811 0
M  V30 3536 N 88.749 44.096 42.693 0
M  V30 3537 H 89.579 43.57 42.749 0
M  V30 3538 C 85.541 49.567 43.367 0
M  V30 3539 C 84.384 50.133 42.987 0
M  V30 3540 C 83.053 49.523 43.221 0
M  V30 3541 C 81.898 50.318 42.999 0
M  V30 3542 C 80.609 49.793 43.197 0
M  V30 3543 C 80.501 48.467 43.606 0
M  V30 3544 C 81.606 47.687 43.81 0
M  V30 3545 C 82.897 48.172 43.624 0
M  V30 3546 C 81.164 46.438 44.191 0
M  V30 3547 C 79.775 46.532 44.2 0
M  V30 3548 N 79.375 47.774 43.842 0
M  V30 3549 H 78.45 48.102 43.769 0
M  V30 3550 C 88.885 47.643 42.246 0
M  V30 3551 C 88.095 48.726 42.927 0
M  V30 3552 C 86.764 48.794 42.72 0
M  V30 3553 C 85.888 49.88 43.314 0
M  V30 3554 C 86.494 50.513 44.617 0
M  V30 3555 C 87.977 50.859 44.32 0
M  V30 3556 C 88.8 49.627 43.919 0
M  V30 3557 C 86.397 49.543 45.824 0
M  V30 3558 C 84.453 49.388 43.477 0
M  V30 3559 C 83.363 50.301 43.56 0
M  V30 3560 C 82.043 49.839 43.694 0
M  V30 3561 C 81.835 48.465 43.749 0
M  V30 3562 C 82.873 47.578 43.681 0
M  V30 3563 C 84.194 47.997 43.55 0
M  V30 3564 C 82.339 46.311 43.767 0
M  V30 3565 C 80.967 46.502 43.887 0
M  V30 3566 N 80.663 47.82 43.875 0
M  V30 3567 H 79.768 48.224 43.944 0
M  V30 3568 C 85.753 51.805 44.95 0
M  V30 3569 C 86.377 52.919 45.367 0
M  V30 3570 C 85.674 54.179 45.705 0
M  V30 3571 C 84.607 54.127 46.641 0
M  V30 3572 C 83.907 55.29 47.007 0
M  V30 3573 C 84.3 56.495 46.432 0
M  V30 3574 C 85.335 56.561 45.54 0
M  V30 3575 C 86.051 55.431 45.155 0
M  V30 3576 C 85.478 57.881 45.173 0
M  V30 3577 C 84.493 58.564 45.88 0
M  V30 3578 N 83.776 57.712 46.648 0
M  V30 3579 H 83.025 57.938 47.243 0
M  V30 3580 C 84.456 55.088 48.467 0
M  V30 3581 C 84.809 53.849 47.69 0
M  V30 3582 C 84.21 53.629 46.503 0
M  V30 3583 C 84.454 52.386 45.67 0
M  V30 3584 C 85.842 51.712 45.965 0
M  V30 3585 C 85.983 51.594 47.506 0
M  V30 3586 C 85.915 52.956 48.21 0
M  V30 3587 C 87.016 52.539 45.378 0
M  V30 3588 C 84.207 52.667 44.192 0
M  V30 3589 C 83.688 51.664 43.324 0
M  V30 3590 C 83.448 51.937 41.967 0
M  V30 3591 C 83.74 53.213 41.496 0
M  V30 3592 C 84.248 54.182 42.317 0
M  V30 3593 C 84.501 53.949 43.665 0
M  V30 3594 C 84.429 55.315 41.553 0
M  V30 3595 C 84.009 54.963 40.275 0
M  V30 3596 N 83.588 53.678 40.245 0
M  V30 3597 H 83.242 53.184 39.467 0
M  V30 3598 C 85.866 50.308 45.368 0
M  V30 3599 C 86.7 49.95 44.378 0
M  V30 3600 C 86.732 48.595 43.777 0
M  V30 3601 C 87.671 48.336 42.744 0
M  V30 3602 C 87.753 47.068 42.141 0
M  V30 3603 C 86.893 46.074 42.596 0
M  V30 3604 C 85.993 46.306 43.599 0
M  V30 3605 C 85.883 47.548 44.22 0
M  V30 3606 C 85.31 45.13 43.821 0
M  V30 3607 C 85.847 44.222 42.913 0
M  V30 3608 N 86.814 44.804 42.166 0
M  V30 3609 H 87.349 44.383 41.456 0
M  V30 3610 C 83.84 54.955 48.777 0
M  V30 3611 C 84.553 53.924 47.946 0
M  V30 3612 C 84.062 53.61 46.73 0
M  V30 3613 C 84.673 52.546 45.84 0
M  V30 3614 C 86.194 52.292 46.141 0
M  V30 3615 C 86.342 52.128 47.676 0
M  V30 3616 C 85.866 53.364 48.451 0
M  V30 3617 C 87.08 53.461 45.636 0
M  V30 3618 C 84.375 52.832 44.372 0
M  V30 3619 C 83.838 51.828 43.516 0
M  V30 3620 C 83.55 52.105 42.169 0
M  V30 3621 C 83.813 53.386 41.696 0
M  V30 3622 C 84.338 54.357 42.504 0
M  V30 3623 C 84.637 54.12 43.842 0
M  V30 3624 C 84.481 55.495 41.741 0
M  V30 3625 C 84.022 55.145 40.476 0
M  V30 3626 N 83.615 53.856 40.453 0
M  V30 3627 H 83.248 53.363 39.684 0
M  V30 3628 C 86.639 50.996 45.469 0
M  V30 3629 C 87.367 50.971 44.34 0
M  V30 3630 C 87.8 49.723 43.667 0
M  V30 3631 C 86.802 48.848 43.163 0
M  V30 3632 C 87.151 47.653 42.509 0
M  V30 3633 C 88.503 47.361 42.362 0
M  V30 3634 C 89.474 48.203 42.831 0
M  V30 3635 C 89.167 49.394 43.483 0
M  V30 3636 C 90.693 47.641 42.519 0
M  V30 3637 C 90.387 46.454 41.861 0
M  V30 3638 N 89.047 46.287 41.768 0
M  V30 3639 H 88.57 45.535 41.35 0
M  V30 3640 C 91.435 49.088 42.676 0
M  V30 3641 C 89.951 48.915 42.85 0
M  V30 3642 C 89.347 49.484 43.913 0
M  V30 3643 C 87.869 49.322 44.21 0
M  V30 3644 C 87.019 48.991 42.931 0
M  V30 3645 C 87.739 47.841 42.179 0
M  V30 3646 C 89.169 48.213 41.761 0
M  V30 3647 C 86.869 50.229 42.007 0
M  V30 3648 C 87.344 50.511 45.008 0
M  V30 3649 C 87.241 51.806 44.425 0
M  V30 3650 C 86.741 52.893 45.162 0
M  V30 3651 C 86.357 52.665 46.48 0
M  V30 3652 C 86.461 51.429 47.055 0
M  V30 3653 C 86.952 50.33 46.357 0
M  V30 3654 C 86.009 51.539 48.352 0
M  V30 3655 C 85.645 52.873 48.498 0
M  V30 3656 N 85.86 53.558 47.351 0
M  V30 3657 H 85.686 54.513 47.189 0
M  V30 3658 C 85.634 48.505 43.349 0
M  V30 3659 C 84.517 49.225 43.154 0
M  V30 3660 C 83.165 48.774 43.562 0
M  V30 3661 C 82.2 49.759 43.904 0
M  V30 3662 C 80.899 49.393 44.292 0
M  V30 3663 C 80.585 48.038 44.32 0
M  V30 3664 C 81.501 47.081 43.981 0
M  V30 3665 C 82.797 47.405 43.592 0
M  V30 3666 C 80.88 45.856 44.098 0
M  V30 3667 C 79.584 46.145 44.516 0
M  V30 3668 N 79.409 47.479 44.651 0
M  V30 3669 H 78.589 47.945 44.932 0
M  V30 3670 C 86.691 56.484 44.005 0
M  V30 3671 C 86.22 55.065 44.161 0
M  V30 3672 C 86.677 54.127 43.307 0
M  V30 3673 C 86.221 52.681 43.344 0
M  V30 3674 C 85.692 52.24 44.756 0
M  V30 3675 C 84.698 53.328 45.241 0
M  V30 3676 C 85.347 54.715 45.347 0
M  V30 3677 C 86.85 52.076 45.775 0
M  V30 3678 C 87.294 51.761 42.773 0
M  V30 3679 C 88.505 52.282 42.235 0
M  V30 3680 C 89.497 51.426 41.725 0
M  V30 3681 C 89.256 50.056 41.757 0
M  V30 3682 C 88.093 49.544 42.262 0
M  V30 3683 C 87.088 50.359 42.773 0
M  V30 3684 C 88.162 48.172 42.145 0
M  V30 3685 C 89.398 47.919 41.559 0
M  V30 3686 N 90.063 49.074 41.325 0
M  V30 3687 H 90.954 49.173 40.92 0
M  V30 3688 C 84.941 50.918 44.631 0
M  V30 3689 C 83.769 50.802 43.985 0
M  V30 3690 C 83.019 49.529 43.862 0
M  V30 3691 C 83.749 48.338 43.604 0
M  V30 3692 C 83.094 47.1 43.485 0
M  V30 3693 C 81.711 47.076 43.637 0
M  V30 3694 C 80.998 48.214 43.898 0
M  V30 3695 C 81.612 49.457 44.023 0
M  V30 3696 C 79.673 47.854 44.004 0
M  V30 3697 C 79.652 46.479 43.794 0
M  V30 3698 N 80.9 46.008 43.569 0
M  V30 3699 H 81.161 45.075 43.394 0
M  V30 3700 C 84.411 58.932 46.182 0
M  V30 3701 C 85.085 57.779 45.491 0
M  V30 3702 C 85.619 56.792 46.238 0
M  V30 3703 C 86.368 55.616 45.642 0
M  V30 3704 C 85.958 55.317 44.155 0
M  V30 3705 C 85.989 56.663 43.385 0
M  V30 3706 C 85.032 57.705 43.98 0
M  V30 3707 C 84.547 54.678 44.067 0
M  V30 3708 C 86.285 54.4 46.56 0
M  V30 3709 C 85.585 54.456 47.799 0
M  V30 3710 C 85.499 53.327 48.631 0
M  V30 3711 C 86.125 52.158 48.212 0
M  V30 3712 C 86.809 52.095 47.029 0
M  V30 3713 C 86.917 53.191 46.18 0
M  V30 3714 C 87.31 50.816 46.91 0
M  V30 3715 C 86.89 50.153 48.059 0
M  V30 3716 N 86.166 50.978 48.851 0
M  V30 3717 H 85.755 50.757 49.718 0
M  V30 3718 C 86.978 54.373 43.523 0
M  V30 3719 C 86.671 53.128 43.124 0
M  V30 3720 C 87.65 52.194 42.518 0
M  V30 3721 C 88.108 52.457 41.2 0
M  V30 3722 C 89.042 51.612 40.575 0
M  V30 3723 C 89.51 50.516 41.292 0
M  V30 3724 C 89.087 50.258 42.567 0
M  V30 3725 C 88.165 51.072 43.218 0
M  V30 3726 C 89.742 49.124 42.997 0
M  V30 3727 C 90.547 48.742 41.929 0
M  V30 3728 N 90.402 49.596 40.889 0
M  V30 3729 H 90.857 49.553 40.017 0
M  V30 3730 C 85.624 55.916 44.727 0
M  V30 3731 C 85.827 54.581 44.065 0
M  V30 3732 C 84.854 53.652 44.156 0
M  V30 3733 C 84.983 52.258 43.573 0
M  V30 3734 C 86.007 52.182 42.385 0
M  V30 3735 C 87.304 52.901 42.842 0
M  V30 3736 C 87.063 54.37 43.217 0
M  V30 3737 C 85.446 52.849 41.101 0
M  V30 3738 C 83.61 51.682 43.241 0
M  V30 3739 C 82.722 52.351 42.351 0
M  V30 3740 C 81.466 51.804 42.038 0
M  V30 3741 C 81.115 50.595 42.629 0
M  V30 3742 C 81.954 49.947 43.492 0
M  V30 3743 C 83.204 50.458 43.828 0
M  V30 3744 C 81.317 48.796 43.9 0
M  V30 3745 C 80.091 48.806 43.244 0
M  V30 3746 N 79.972 49.907 42.467 0
M  V30 3747 H 79.206 50.154 41.901 0
M  V30 3748 C 86.341 50.723 42.09 0
M  V30 3749 C 86.678 49.842 43.047 0
M  V30 3750 C 87.015 48.424 42.779 0
M  V30 3751 C 88.216 48.137 42.077 0
M  V30 3752 C 88.593 46.811 41.799 0
M  V30 3753 C 87.759 45.79 42.243 0
M  V30 3754 C 86.607 46.052 42.932 0
M  V30 3755 C 86.202 47.352 43.226 0
M  V30 3756 C 86.024 44.841 43.237 0
M  V30 3757 C 86.877 43.883 42.699 0
M  V30 3758 N 87.936 44.467 42.093 0
M  V30 3759 H 88.682 44.017 41.636 0
M  V30 3760 C 84.631 57.181 43.058 0
M  V30 3761 C 85.046 55.737 43.005 0
M  V30 3762 C 85.512 55.148 44.125 0
M  V30 3763 C 86.007 53.716 44.163 0
M  V30 3764 C 85.39 52.823 43.028 0
M  V30 3765 C 85.529 53.604 41.694 0
M  V30 3766 C 84.809 54.959 41.728 0
M  V30 3767 C 83.9 52.491 43.306 0
M  V30 3768 C 85.854 53.128 45.562 0
M  V30 3769 C 86.776 52.165 46.064 0
M  V30 3770 C 86.638 51.641 47.361 0
M  V30 3771 C 85.57 52.084 48.133 0
M  V30 3772 C 84.672 53 47.659 0
M  V30 3773 C 84.775 53.541 46.381 0
M  V30 3774 C 83.744 53.222 48.654 0
M  V30 3775 C 84.141 52.406 49.708 0
M  V30 3776 N 85.257 51.713 49.386 0
M  V30 3777 H 85.74 51.069 49.952 0
M  V30 3778 C 86.182 51.523 42.912 0
M  V30 3779 C 87.424 51.467 42.403 0
M  V30 3780 C 88.204 50.213 42.273 0
M  V30 3781 C 89.61 50.309 42.098 0
M  V30 3782 C 90.405 49.155 41.976 0
M  V30 3783 C 89.772 47.918 42.044 0
M  V30 3784 C 88.42 47.812 42.226 0
M  V30 3785 C 87.602 48.931 42.351 0
M  V30 3786 C 88.113 46.469 42.262 0
M  V30 3787 C 89.329 45.814 42.093 0
M  V30 3788 N 90.34 46.704 41.959 0
M  V30 3789 H 91.294 46.503 41.829 0
M  V30 3790 C 84.692 54.362 40.933 0
M  V30 3791 C 84.32 55.642 41.356 0
M  V30 3792 C 84.535 56.058 42.671 0
M  V30 3793 C 85.192 55.192 43.58 0
M  V30 3794 C 85.557 53.894 43.156 0
M  V30 3795 C 85.309 53.473 41.834 0
M  V30 3796 O 86.159 53.01 44.065 0
M  V30 3797 C 86.719 53.433 45.308 0
M  V30 3798 C 85.82 54.484 45.968 0
M  V30 3799 C 85.534 55.569 44.974 0
M  V30 3800 O 85.651 56.772 45.326 0
M  V30 3801 C 86.915 52.245 46.215 0
M  V30 3802 C 86.217 52.151 47.433 0
M  V30 3803 C 86.421 51.059 48.282 0
M  V30 3804 C 87.329 50.057 47.929 0
M  V30 3805 C 88.038 50.148 46.728 0
M  V30 3806 C 87.837 51.239 45.875 0
M  V30 3807 O 84.435 53.969 39.621 0
M  V30 3808 H 84.702 53.121 39.325 0
M  V30 3809 O 84.045 57.316 43.033 0
M  V30 3810 H 83.121 57.462 43.086 0
M  V30 3811 C 85.725 52.091 41.371 0
M  V30 3812 C 87.224 52.005 41.184 0
M  V30 3813 C 88.012 51.363 42.157 0
M  V30 3814 C 89.395 51.251 41.989 0
M  V30 3815 C 90.007 51.78 40.851 0
M  V30 3816 C 89.238 52.426 39.881 0
M  V30 3817 C 87.849 52.545 40.041 0
M  V30 3818 O 87.097 53.205 39.071 0
M  V30 3819 H 86.884 54.111 39.179 0
M  V30 3820 C 86.446 52.21 41.553 0
M  V30 3821 C 85.682 53.168 40.879 0
M  V30 3822 C 84.286 53.128 40.909 0
M  V30 3823 C 83.632 52.137 41.682 0
M  V30 3824 C 84.405 51.162 42.353 0
M  V30 3825 C 85.813 51.193 42.291 0
M  V30 3826 O 83.764 50.143 43.075 0
M  V30 3827 C 82.386 50.199 43.445 0
M  V30 3828 C 81.548 50.765 42.294 0
M  V30 3829 C 82.158 52.056 41.84 0
M  V30 3830 O 81.417 53.059 41.663 0
M  V30 3831 C 81.903 48.827 43.84 0
M  V30 3832 C 82.666 47.684 43.537 0
M  V30 3833 C 82.202 46.413 43.884 0
M  V30 3834 C 80.969 46.267 44.526 0
M  V30 3835 C 80.197 47.394 44.819 0
M  V30 3836 C 80.657 48.67 44.474 0
M  V30 3837 O 87.837 52.263 41.476 0
M  V30 3838 H 88.254 52.927 40.964 0
M  V30 3839 O 83.601 54.064 40.13 0
M  V30 3840 H 82.939 54.602 40.519 0
M  V30 3841 C 86.643 50.165 43.034 0
M  V30 3842 C 86.747 50.503 44.504 0
M  V30 3843 C 87.235 51.762 44.898 0
M  V30 3844 C 87.313 52.102 46.251 0
M  V30 3845 C 86.908 51.19 47.226 0
M  V30 3846 C 86.427 49.934 46.851 0
M  V30 3847 C 86.347 49.582 45.495 0
M  V30 3848 O 85.879 48.319 45.137 0
M  V30 3849 H 85.562 48.166 44.269 0
M  V30 3850 C 83.113 50.663 43.426 0
M  V30 3851 C 81.805 50.17 43.377 0
M  V30 3852 C 81.552 48.797 43.397 0
M  V30 3853 C 82.631 47.888 43.529 0
M  V30 3854 C 83.953 48.388 43.566 0
M  V30 3855 C 84.2 49.775 43.514 0
M  V30 3856 O 85.032 47.493 43.64 0
M  V30 3857 C 84.881 46.119 43.999 0
M  V30 3858 C 83.63 45.53 43.338 0
M  V30 3859 C 82.461 46.418 43.637 0
M  V30 3860 O 81.382 45.902 44.032 0
M  V30 3861 C 86.114 45.345 43.606 0
M  V30 3862 C 87.092 45.929 42.78 0
M  V30 3863 C 88.221 45.2 42.398 0
M  V30 3864 C 88.381 43.879 42.827 0
M  V30 3865 C 87.408 43.285 43.636 0
M  V30 3866 C 86.277 44.012 44.021 0
M  V30 3867 O 83.331 52.039 43.373 0
M  V30 3868 H 83.951 52.392 42.766 0
M  V30 3869 O 80.224 48.388 43.247 0
M  V30 3870 H 79.969 47.89 42.495 0
M  V30 3871 C 85.616 50.312 43.583 0
M  V30 3872 C 86.004 50.652 45.005 0
M  V30 3873 C 86.376 49.626 45.891 0
M  V30 3874 C 86.763 49.924 47.201 0
M  V30 3875 C 86.779 51.248 47.641 0
M  V30 3876 C 86.405 52.277 46.774 0
M  V30 3877 C 86.013 51.988 45.459 0
M  V30 3878 O 85.629 53.024 44.61 0
M  V30 3879 H 85.351 52.835 43.735 0
M  V30 3880 C 82.481 52.834 41.575 0
M  V30 3881 C 81.633 51.848 42.088 0
M  V30 3882 C 82.146 50.691 42.678 0
M  V30 3883 C 83.548 50.538 42.813 0
M  V30 3884 C 84.405 51.53 42.283 0
M  V30 3885 C 83.877 52.68 41.662 0
M  V30 3886 O 85.796 51.36 42.362 0
M  V30 3887 C 86.416 50.404 43.223 0
M  V30 3888 C 85.631 49.088 43.212 0
M  V30 3889 C 84.188 49.384 43.491 0
M  V30 3890 O 83.571 48.687 44.34 0
M  V30 3891 C 87.846 50.182 42.799 0
M  V30 3892 C 88.333 50.739 41.602 0
M  V30 3893 C 89.652 50.509 41.202 0
M  V30 3894 C 90.494 49.715 41.985 0
M  V30 3895 C 90.016 49.146 43.168 0
M  V30 3896 C 88.697 49.373 43.574 0
M  V30 3897 O 81.934 53.962 40.966 0
M  V30 3898 H 81.006 54.037 40.864 0
M  V30 3899 O 81.23 49.714 43.077 0
M  V30 3900 H 80.31 49.896 43.052 0
M  V30 3901 C 84.795 53.757 41.12 0
M  V30 3902 C 85.111 54.791 42.177 0
M  V30 3903 C 84.172 55.795 42.474 0
M  V30 3904 C 84.435 56.742 43.467 0
M  V30 3905 C 85.639 56.701 44.172 0
M  V30 3906 C 86.585 55.715 43.883 0
M  V30 3907 C 86.331 54.76 42.887 0
M  V30 3908 O 87.289 53.791 42.6 0
M  V30 3909 H 88.102 53.783 43.065 0
M  V30 3910 C 85.111 49.209 44.485 0
M  V30 3911 C 83.954 48.864 43.779 0
M  V30 3912 C 83.251 49.816 43.038 0
M  V30 3913 C 83.747 51.14 42.951 0
M  V30 3914 C 84.909 51.491 43.675 0
M  V30 3915 C 85.595 50.53 44.444 0
M  V30 3916 O 85.377 52.814 43.64 0
M  V30 3917 C 84.942 53.768 42.669 0
M  V30 3918 C 83.435 53.636 42.43 0
M  V30 3919 C 83.116 52.203 42.129 0
M  V30 3920 O 82.372 51.931 41.15 0
M  V30 3921 C 85.297 55.162 43.123 0
M  V30 3922 C 86.509 55.41 43.792 0
M  V30 3923 C 86.821 56.699 44.233 0
M  V30 3924 C 85.924 57.749 44.02 0
M  V30 3925 C 84.711 57.51 43.369 0
M  V30 3926 C 84.394 56.222 42.926 0
M  V30 3927 O 85.771 48.24 45.239 0
M  V30 3928 H 85.315 47.468 45.513 0
M  V30 3929 O 82.054 49.408 42.442 0
M  V30 3930 H 81.949 48.52 42.162 0
M  V30 3931 C 86.857 50.899 45.198 0
M  V30 3932 C 86.534 51.622 46.487 0
M  V30 3933 C 86.34 53.015 46.475 0
M  V30 3934 C 86.014 53.696 47.652 0
M  V30 3935 C 85.882 52.996 48.851 0
M  V30 3936 C 86.078 51.613 48.88 0
M  V30 3937 C 86.408 50.921 47.705 0
M  V30 3938 O 86.615 49.544 47.751 0
M  V30 3939 H 85.914 48.957 47.547 0
M  V30 3940 C 86.556 52.158 42.372 0
M  V30 3941 C 85.933 53.025 41.468 0
M  V30 3942 C 84.569 52.918 41.189 0
M  V30 3943 C 83.789 51.954 41.873 0
M  V30 3944 C 84.421 51.069 42.777 0
M  V30 3945 C 85.805 51.166 43.03 0
M  V30 3946 O 83.667 50.074 43.418 0
M  V30 3947 C 82.239 50.088 43.464 0
M  V30 3948 C 81.666 50.527 42.113 0
M  V30 3949 C 82.322 51.811 41.704 0
M  V30 3950 O 81.607 52.76 41.285 0
M  V30 3951 C 81.724 48.724 43.852 0
M  V30 3952 C 82.448 47.565 43.519 0
M  V30 3953 C 81.954 46.303 43.859 0
M  V30 3954 C 80.73 46.184 44.523 0
M  V30 3955 C 79.996 47.329 44.845 0
M  V30 3956 C 80.487 48.595 44.508 0
M  V30 3957 O 87.925 52.275 42.604 0
M  V30 3958 H 88.235 52.617 43.419 0
M  V30 3959 O 84.049 53.761 40.203 0
M  V30 3960 H 84.625 54.193 39.604 0
M  V30 3961 C 86.478 50.237 44.02 0
M  V30 3962 C 86.951 48.968 43.346 0
M  V30 3963 C 86.062 47.891 43.184 0
M  V30 3964 C 86.474 46.721 42.54 0
M  V30 3965 C 87.777 46.612 42.053 0
M  V30 3966 C 88.673 47.671 42.212 0
M  V30 3967 C 88.27 48.849 42.859 0
M  V30 3968 O 89.18 49.892 43.024 0
M  V30 3969 H 89.974 49.75 43.5 0
M  V30 3970 C 87.261 50.935 42.239 0
M  V30 3971 C 87.696 50.185 43.337 0
M  V30 3972 C 87.594 50.684 44.637 0
M  V30 3973 C 86.987 51.945 44.856 0
M  V30 3974 C 86.558 52.708 43.745 0
M  V30 3975 C 86.693 52.208 42.434 0
M  V30 3976 O 86.007 53.983 43.949 0
M  V30 3977 C 85.554 54.441 45.224 0
M  V30 3978 C 86.527 54.003 46.324 0
M  V30 3979 C 86.762 52.528 46.202 0
M  V30 3980 O 86.703 51.809 47.235 0
M  V30 3981 C 85.399 55.941 45.206 0
M  V30 3982 C 86.084 56.72 44.255 0
M  V30 3983 C 85.956 58.111 44.259 0
M  V30 3984 C 85.153 58.739 45.216 0
M  V30 3985 C 84.481 57.975 46.173 0
M  V30 3986 C 84.605 56.582 46.173 0
M  V30 3987 O 87.406 50.418 40.953 0
M  V30 3988 H 87.871 50.906 40.302 0
M  V30 3989 O 88.14 49.911 45.665 0
M  V30 3990 H 89.003 49.556 45.576 0
M  V30 3991 C 86.208 53.013 41.245 0
M  V30 3992 C 84.702 53.153 41.257 0
M  V30 3993 C 83.904 52.064 41.651 0
M  V30 3994 C 82.512 52.183 41.693 0
M  V30 3995 C 81.902 53.387 41.339 0
M  V30 3996 C 82.681 54.475 40.938 0
M  V30 3997 C 84.079 54.365 40.891 0
M  V30 3998 O 84.843 55.453 40.475 0
M  V30 3999 H 84.465 56.311 40.454 0
M  V30 4000 C 85.302 56.385 44.123 0
M  V30 4001 C 84.481 56.529 43 0
M  V30 4002 C 84.466 55.566 41.99 0
M  V30 4003 C 85.25 54.394 42.128 0
M  V30 4004 C 86.089 54.255 43.258 0
M  V30 4005 C 86.119 55.247 44.258 0
M  V30 4006 O 86.911 53.123 43.377 0
M  V30 4007 C 86.731 51.944 42.592 0
M  V30 4008 C 86.39 52.313 41.144 0
M  V30 4009 C 85.245 53.279 41.149 0
M  V30 4010 O 84.276 53.089 40.366 0
M  V30 4011 C 87.974 51.091 42.653 0
M  V30 4012 C 88.973 51.21 41.669 0
M  V30 4013 C 90.11 50.4 41.717 0
M  V30 4014 C 90.258 49.457 42.739 0
M  V30 4015 C 89.264 49.322 43.712 0
M  V30 4016 C 88.124 50.131 43.669 0
M  V30 4017 O 85.314 57.38 45.098 0
M  V30 4018 H 84.821 58.167 44.972 0
M  V30 4019 O 83.69 55.836 40.859 0
M  V30 4020 H 84.104 55.992 40.033 0
M  V30 4021 C 86.998 55.084 45.483 0
M  V30 4022 C 86.239 54.431 46.617 0
M  V30 4023 C 85.411 55.212 47.444 0
M  V30 4024 C 84.683 54.621 48.48 0
M  V30 4025 C 84.774 53.247 48.704 0
M  V30 4026 C 85.598 52.46 47.896 0
M  V30 4027 C 86.335 53.044 46.855 0
M  V30 4028 O 87.164 52.248 46.066 0
M  V30 4029 H 87.139 51.316 46.153 0
M  V30 4030 C 80.718 50.522 42.844 0
M  V30 4031 C 79.663 49.818 43.434 0
M  V30 4032 C 79.841 48.517 43.908 0
M  V30 4033 C 81.123 47.918 43.845 0
M  V30 4034 C 82.186 48.626 43.238 0
M  V30 4035 C 81.989 49.928 42.735 0
M  V30 4036 O 83.447 48.02 43.121 0
M  V30 4037 C 83.822 46.854 43.856 0
M  V30 4038 C 82.657 45.859 43.907 0
M  V30 4039 C 81.432 46.573 44.39 0
M  V30 4040 O 80.727 46.045 45.291 0
M  V30 4041 C 85.043 46.224 43.234 0
M  V30 4042 C 85.073 44.846 42.952 0
M  V30 4043 C 86.216 44.263 42.399 0
M  V30 4044 C 87.342 45.046 42.13 0
M  V30 4045 C 87.327 46.413 42.42 0
M  V30 4046 C 86.185 47.001 42.973 0
M  V30 4047 O 80.497 51.808 42.354 0
M  V30 4048 H 80.549 52.544 42.93 0
M  V30 4049 O 78.712 47.852 44.394 0
M  V30 4050 H 78.151 47.387 43.804 0
M  V30 4051 C 83.136 50.697 42.109 0
M  V30 4052 C 83.699 51.718 43.072 0
M  V30 4053 C 84.053 51.326 44.376 0
M  V30 4054 C 84.6 52.25 45.271 0
M  V30 4055 C 84.797 53.574 44.877 0
M  V30 4056 C 84.445 53.979 43.588 0
M  V30 4057 C 83.893 53.06 42.682 0
M  V30 4058 O 83.532 53.483 41.404 0
M  V30 4059 H 82.993 54.241 41.296 0
M  V30 4060 C 89.519 51.573 39.98 0
M  V30 4061 C 89.746 52.867 40.76 0
M  V30 4062 C 88.515 53.233 41.597 0
M  V30 4063 C 87.886 52.048 42.427 0
M  V30 4064 C 88.656 50.732 42.235 0
M  V30 4065 C 88.589 49.772 43.171 0
M  V30 4066 C 87.97 50.005 44.481 0
M  V30 4067 C 87.587 51.23 44.862 0
M  V30 4068 C 87.874 52.433 43.963 0
M  V30 4069 C 86.952 53.658 44.298 0
M  V30 4070 C 86.701 53.88 45.807 0
M  V30 4071 C 86.202 52.581 46.489 0
M  V30 4072 C 87.309 51.536 46.315 0
M  V30 4073 C 86.95 50.423 47.294 0
M  V30 4074 C 86.338 51.163 48.496 0
M  V30 4075 C 86.122 52.631 48.043 0
M  V30 4076 C 84.859 52.113 45.856 0
M  V30 4077 C 89.39 50.396 40.951 0
M  V30 4078 C 86.446 51.771 41.915 0
M  V30 4079 O 88.37 51.669 39.176 0
M  V30 4080 H 88.379 50.959 38.514 0
M  V30 4081 C 84.956 53.391 48.768 0
M  V30 4082 C 83.862 52.537 49.439 0
M  V30 4083 C 84.314 54.408 47.852 0
M  V30 4084 C 84.674 55.701 47.872 0
M  V30 4085 C 84.089 56.697 46.895 0
M  V30 4086 C 82.646 56.298 46.544 0
M  V30 4087 C 85.011 56.873 45.651 0
M  V30 4088 C 84.418 56.273 44.366 0
M  V30 4089 C 85.399 58.341 45.425 0
M  V30 4090 C 84.523 55.435 47.33 0
M  V30 4091 C 85.715 54.712 47.953 0
M  V30 4092 C 85.837 53.282 47.414 0
M  V30 4093 C 85.705 53.136 45.848 0
M  V30 4094 C 85.482 54.491 45.156 0
M  V30 4095 C 85.809 54.647 43.864 0
M  V30 4096 C 86.569 53.631 43.126 0
M  V30 4097 C 87.109 52.575 43.75 0
M  V30 4098 C 87.015 52.459 45.272 0
M  V30 4099 C 87.234 50.987 45.77 0
M  V30 4100 C 88.337 50.21 45.015 0
M  V30 4101 C 88.118 50.273 43.482 0
M  V30 4102 C 88.186 51.751 43.085 0
M  V30 4103 C 88.336 51.74 41.567 0
M  V30 4104 C 89.203 50.501 41.285 0
M  V30 4105 C 89.282 49.709 42.617 0
M  V30 4106 C 86.751 49.633 43.099 0
M  V30 4107 C 84.764 55.643 45.832 0
M  V30 4108 C 84.45 52.283 45.517 0
M  V30 4109 O 83.335 54.713 47.535 0
M  V30 4110 H 83.463 53.792 47.255 0
M  V30 4111 C 89.498 48.162 42.464 0
M  V30 4112 C 90.452 47.685 41.351 0
M  V30 4113 C 88.179 47.433 42.349 0
M  V30 4114 C 88.12 46.121 42.072 0
M  V30 4115 C 86.801 45.381 42.043 0
M  V30 4116 C 85.688 46.275 42.615 0
M  V30 4117 C 86.917 43.996 42.747 0
M  V30 4118 C 88.347 43.664 43.204 0
M  V30 4119 C 85.937 43.863 43.922 0
M  V30 4120 C 85.131 58.428 45.083 0
M  V30 4121 C 84.056 57.615 44.365 0
M  V30 4122 C 84.665 56.407 43.643 0
M  V30 4123 C 85.694 55.562 44.49 0
M  V30 4124 C 85.88 56.127 45.908 0
M  V30 4125 C 86.313 55.329 46.897 0
M  V30 4126 C 86.425 53.875 46.73 0
M  V30 4127 C 85.949 53.26 45.64 0
M  V30 4128 C 85.193 54.063 44.581 0
M  V30 4129 C 85.153 53.328 43.194 0
M  V30 4130 C 84.942 51.799 43.283 0
M  V30 4131 C 85.962 51.148 44.252 0
M  V30 4132 C 85.72 51.767 45.632 0
M  V30 4133 C 86.466 50.857 46.603 0
M  V30 4134 C 86.298 49.451 46.001 0
M  V30 4135 C 85.706 49.648 44.582 0
M  V30 4136 C 87.417 51.389 43.755 0
M  V30 4137 C 85.732 57.602 46.224 0
M  V30 4138 C 87.094 55.639 43.82 0
M  V30 4139 O 86.138 58.828 44.188 0
M  V30 4140 H 86.964 58.977 44.676 0
M  V30 4141 C 86.056 48.522 43.546 0
M  V30 4142 C 85.556 47.097 43.853 0
M  V30 4143 C 87.539 48.488 43.256 0
M  V30 4144 C 88.022 47.99 42.107 0
M  V30 4145 C 89.499 48.037 41.787 0
M  V30 4146 C 90.17 46.723 42.221 0
M  V30 4147 C 90.166 49.31 42.39 0
M  V30 4148 C 91.606 49.07 42.872 0
M  V30 4149 C 90.118 50.5 41.422 0
M  V30 4150 C 85.02 58.418 44.898 0
M  V30 4151 C 84.103 57.509 44.082 0
M  V30 4152 C 84.875 56.315 43.507 0
M  V30 4153 C 85.826 55.573 44.524 0
M  V30 4154 C 85.783 56.205 45.925 0
M  V30 4155 C 86.123 55.477 47.001 0
M  V30 4156 C 86.341 54.027 46.921 0
M  V30 4157 C 86.055 53.34 45.808 0
M  V30 4158 C 85.406 54.05 44.62 0
M  V30 4159 C 85.599 53.259 43.277 0
M  V30 4160 C 85.466 51.724 43.411 0
M  V30 4161 C 86.381 51.179 44.538 0
M  V30 4162 C 85.917 51.836 45.842 0
M  V30 4163 C 86.575 51.015 46.946 0
M  V30 4164 C 86.574 49.579 46.397 0
M  V30 4165 C 86.17 49.681 44.902 0
M  V30 4166 C 87.874 51.494 44.229 0
M  V30 4167 C 85.508 57.679 46.147 0
M  V30 4168 C 87.297 55.713 44.045 0
M  V30 4169 O 86.115 58.846 44.127 0
M  V30 4170 H 86.025 59.793 43.934 0
M  V30 4171 C 86.724 48.539 43.979 0
M  V30 4172 C 87.173 48.932 42.558 0
M  V30 4173 C 85.757 47.38 43.903 0
M  V30 4174 C 84.463 47.56 43.597 0
M  V30 4175 C 83.52 46.388 43.438 0
M  V30 4176 C 84.144 45.338 42.503 0
M  V30 4177 C 82.104 46.861 42.993 0
M  V30 4178 C 80.963 46.122 43.712 0
M  V30 4179 C 81.931 48.379 43.137 0
M  V30 4180 C 85.947 45.318 42.966 0
M  V30 4181 C 84.613 45.953 42.577 0
M  V30 4182 C 84.339 47.214 43.405 0
M  V30 4183 C 85.55 48.217 43.532 0
M  V30 4184 C 86.794 47.722 42.774 0
M  V30 4185 C 87.726 48.599 42.369 0
M  V30 4186 C 87.51 50.05 42.437 0
M  V30 4187 C 86.315 50.562 42.756 0
M  V30 4188 C 85.12 49.633 42.97 0
M  V30 4189 C 83.977 50.318 43.8 0
M  V30 4190 C 83.731 51.804 43.452 0
M  V30 4191 C 85.049 52.617 43.507 0
M  V30 4192 C 85.99 52.008 42.463 0
M  V30 4193 C 87.101 53.039 42.291 0
M  V30 4194 C 86.384 54.391 42.446 0
M  V30 4195 C 84.958 54.075 42.969 0
M  V30 4196 C 85.662 52.568 44.938 0
M  V30 4197 C 87.099 46.25 42.582 0
M  V30 4198 C 85.978 48.318 45.021 0
M  V30 4199 O 85.986 45.038 44.343 0
M  V30 4200 H 85.135 45.276 44.745 0
M  V30 4201 C 84.289 55.21 43.821 0
M  V30 4202 C 84.115 56.589 43.153 0
M  V30 4203 C 84.983 55.376 45.153 0
M  V30 4204 C 84.292 55.533 46.293 0
M  V30 4205 C 84.991 55.612 47.632 0
M  V30 4206 C 86.495 55.857 47.423 0
M  V30 4207 C 84.675 54.362 48.507 0
M  V30 4208 C 83.402 53.619 48.068 0
M  V30 4209 C 85.862 53.392 48.577 0
M  V30 4210 C 90.187 48.116 41.785 0
M  V30 4211 C 90.53 49.532 41.326 0
M  V30 4212 C 89.28 50.419 41.285 0
M  V30 4213 C 88.346 50.33 42.553 0
M  V30 4214 C 88.892 49.355 43.609 0
M  V30 4215 C 88.531 49.486 44.895 0
M  V30 4216 C 87.79 50.657 45.379 0
M  V30 4217 C 87.58 51.722 44.594 0
M  V30 4218 C 88.194 51.77 43.194 0
M  V30 4219 C 87.465 52.8 42.261 0
M  V30 4220 C 87.054 54.118 42.956 0
M  V30 4221 C 86.247 53.842 44.25 0
M  V30 4222 C 87.166 53.049 45.185 0
M  V30 4223 C 86.488 53.119 46.549 0
M  V30 4224 C 85.858 54.522 46.583 0
M  V30 4225 C 85.966 55.086 45.142 0
M  V30 4226 C 84.941 53.06 43.922 0
M  V30 4227 C 89.723 48.14 43.244 0
M  V30 4228 C 86.963 49.763 42.133 0
M  V30 4229 O 89.193 47.552 40.967 0
M  V30 4230 H 89.281 47.899 40.065 0
M  V30 4231 C 84.864 56.131 44.746 0
M  V30 4232 C 83.92 56.622 45.861 0
M  V30 4233 C 84.05 55.648 43.568 0
M  V30 4234 C 84.282 56.09 42.322 0
M  V30 4235 C 83.521 55.538 41.137 0
M  V30 4236 C 82.568 54.423 41.6 0
M  V30 4237 C 84.491 55.101 39.999 0
M  V30 4238 C 84.855 53.608 40.051 0
M  V30 4239 C 83.953 55.471 38.609 0
M  V30 4240 C 79.667 46.483 44.043 0
M  V30 4241 C 80.769 46.464 45.101 0
M  V30 4242 C 82.135 46.784 44.482 0
M  V30 4243 C 82.161 48.022 43.504 0
M  V30 4244 C 80.78 48.683 43.369 0
M  V30 4245 C 80.685 49.968 42.992 0
M  V30 4246 C 81.862 50.84 42.898 0
M  V30 4247 C 83.062 50.44 43.339 0
M  V30 4248 C 83.206 49.087 44.035 0
M  V30 4249 C 84.689 48.57 44.028 0
M  V30 4250 C 85.752 49.666 44.27 0
M  V30 4251 C 85.554 50.862 43.304 0
M  V30 4252 C 84.165 51.44 43.592 0
M  V30 4253 C 84.16 52.802 42.904 0
M  V30 4254 C 85.602 53.311 43.07 0
M  V30 4255 C 86.432 52.112 43.599 0
M  V30 4256 C 85.692 50.396 41.824 0
M  V30 4257 C 79.486 47.905 43.504 0
M  V30 4258 C 82.538 47.54 42.077 0
M  V30 4259 O 79.966 45.599 42.992 0
M  V30 4260 H 80.928 45.559 42.867 0
M  V30 4261 C 87.956 52.135 43.225 0
M  V30 4262 C 88.332 52.621 41.811 0
M  V30 4263 C 88.606 50.797 43.49 0
M  V30 4264 C 89.296 50.147 42.54 0
M  V30 4265 C 90.014 48.849 42.836 0
M  V30 4266 C 91.532 49.095 42.899 0
M  V30 4267 C 89.602 47.734 41.83 0
M  V30 4268 C 90.272 46.38 42.115 0
M  V30 4269 C 88.078 47.568 41.747 0
M  V30 4270 C 84.675 57.399 45.98 0
M  V30 4271 C 85.955 56.802 46.564 0
M  V30 4272 C 85.929 55.27 46.501 0
M  V30 4273 C 85.469 54.658 45.121 0
M  V30 4274 C 85.137 55.745 44.086 0
M  V30 4275 C 85.191 55.463 42.775 0
M  V30 4276 C 85.757 54.205 42.273 0
M  V30 4277 C 86.391 53.352 43.088 0
M  V30 4278 C 86.615 53.723 44.554 0
M  V30 4279 C 86.899 52.465 45.449 0
M  V30 4280 C 87.802 51.398 44.788 0
M  V30 4281 C 87.269 51.001 43.388 0
M  V30 4282 C 87.286 52.27 42.531 0
M  V30 4283 C 87.115 51.775 41.098 0
M  V30 4284 C 87.876 50.439 41.071 0
M  V30 4285 C 88.213 50.095 42.546 0
M  V30 4286 C 85.838 50.397 43.5 0
M  V30 4287 C 84.603 57.109 44.478 0
M  V30 4288 C 84.154 53.859 45.328 0
M  V30 4289 O 83.54 56.884 46.63 0
M  V30 4290 H 83.281 56.047 46.213 0
M  V30 4291 C 88.358 48.565 42.861 0
M  V30 4292 C 89.292 47.739 41.954 0
M  V30 4293 C 87.007 47.892 42.943 0
M  V30 4294 C 86.695 47.055 43.944 0
M  V30 4295 C 85.313 46.453 44.066 0
M  V30 4296 C 85.41 44.918 44.067 0
M  V30 4297 C 84.354 47.019 42.976 0
M  V30 4298 C 83.795 45.938 42.037 0
M  V30 4299 C 83.208 47.839 43.587 0
M  V30 4300 C 90.198 47.559 41.39 0
M  V30 4301 C 90.249 47.343 42.902 0
M  V30 4302 C 90.097 48.67 43.655 0
M  V30 4303 C 88.933 49.606 43.147 0
M  V30 4304 C 88.158 48.984 41.974 0
M  V30 4305 C 86.898 49.371 41.722 0
M  V30 4306 C 86.145 50.223 42.651 0
M  V30 4307 C 86.624 50.522 43.866 0
M  V30 4308 C 87.936 49.899 44.342 0
M  V30 4309 C 88.586 50.709 45.519 0
M  V30 4310 C 87.578 51.249 46.56 0
M  V30 4311 C 86.436 52.042 45.876 0
M  V30 4312 C 85.714 51.064 44.943 0
M  V30 4313 C 84.406 51.762 44.584 0
M  V30 4314 C 84.022 52.52 45.866 0
M  V30 4315 C 85.254 52.447 46.805 0
M  V30 4316 C 87.008 53.266 45.103 0
M  V30 4317 C 88.804 48.04 40.979 0
M  V30 4318 C 89.54 50.926 42.597 0
M  V30 4319 O 91.173 48.487 40.984 0
M  V30 4320 H 90.845 48.987 40.219 0
M  V30 4321 C 85.395 53.637 47.819 0
M  V30 4322 C 84.679 53.5 49.177 0
M  V30 4323 C 85.017 54.951 47.176 0
M  V30 4324 C 85.934 55.892 46.902 0
M  V30 4325 C 85.562 57.168 46.181 0
M  V30 4326 C 84.103 57.539 46.495 0
M  V30 4327 C 85.868 57.064 44.656 0
M  V30 4328 C 84.768 56.338 43.864 0
M  V30 4329 C 86.158 58.436 44.032 0
M  V30 4330 C 85.6 49.584 44.589 0
M  V30 4331 C 86.8 49.71 45.318 0
M  V30 4332 C 87.457 50.931 45.414 0
M  V30 4333 C 86.961 52.048 44.756 0
M  V30 4334 C 85.753 51.972 44.049 0
M  V30 4335 C 84.985 50.746 44.041 0
M  V30 4336 C 83.672 50.748 43.416 0
M  V30 4337 C 82.668 49.755 43.53 0
M  V30 4338 O 82.628 48.622 44.325 0
M  V30 4339 C 81.386 47.943 44.116 0
M  V30 4340 O 80.675 48.759 43.182 0
M  V30 4341 C 81.469 49.845 42.869 0
M  V30 4342 C 81.125 50.932 42.066 0
M  V30 4343 C 82.032 52 41.983 0
M  V30 4344 C 83.276 51.89 42.667 0
M  V30 4345 C 84.101 52.977 42.638 0
M  V30 4346 C 85.272 53.071 43.315 0
M  V30 4347 C 85.728 54.37 43.058 0
M  V30 4348 O 86.79 54.892 43.484 0
M  V30 4349 C 84.787 55.003 42.239 0
M  V30 4350 O 84.859 56.187 41.816 0
M  V30 4351 N 83.769 54.163 41.969 0
M  V30 4352 C 82.604 54.292 41.283 0
M  V30 4353 C 81.712 53.195 41.278 0
M  V30 4354 C 85.769 47.231 43.728 0
M  V30 4355 O 85.067 48.313 44.333 0
M  V30 4356 C 85.204 54.665 41.801 0
M  V30 4357 C 84.475 55.821 42.144 0
M  V30 4358 C 84.244 56.157 43.473 0
M  V30 4359 C 84.697 55.332 44.494 0
M  V30 4360 C 85.455 54.191 44.196 0
M  V30 4361 C 85.818 53.889 42.828 0
M  V30 4362 C 86.721 52.778 42.573 0
M  V30 4363 C 87.399 52.487 41.364 0
M  V30 4364 O 87.469 53.215 40.189 0
M  V30 4365 C 88.306 52.525 39.255 0
M  V30 4366 O 88.76 51.367 39.958 0
M  V30 4367 C 88.209 51.388 41.225 0
M  V30 4368 C 88.462 50.495 42.265 0
M  V30 4369 C 87.9 50.774 43.521 0
M  V30 4370 C 87.055 51.912 43.649 0
M  V30 4371 C 86.592 52.206 44.9 0
M  V30 4372 C 85.86 53.304 45.209 0
M  V30 4373 C 85.683 53.234 46.596 0
M  V30 4374 O 85.052 54.051 47.316 0
M  V30 4375 C 86.339 52.088 47.057 0
M  V30 4376 O 86.404 51.711 48.257 0
M  V30 4377 N 86.914 51.437 46.026 0
M  V30 4378 C 87.693 50.33 45.935 0
M  V30 4379 C 88.199 49.977 44.663 0
M  V30 4380 C 84.457 54.759 39.405 0
M  V30 4381 O 85.249 54.235 40.467 0
M  V30 4382 C 84.834 55.428 44.712 0
M  V30 4383 C 84.17 56.3 43.825 0
M  V30 4384 C 84.204 56.09 42.451 0
M  V30 4385 C 84.931 55.032 41.921 0
M  V30 4386 C 85.577 54.124 42.771 0
M  V30 4387 C 85.451 54.246 44.208 0
M  V30 4388 C 86.017 53.206 45.05 0
M  V30 4389 C 85.778 52.999 46.431 0
M  V30 4390 O 84.891 53.634 47.283 0
M  V30 4391 C 84.99 53.053 48.587 0
M  V30 4392 O 85.956 52.01 48.45 0
M  V30 4393 C 86.393 51.997 47.139 0
M  V30 4394 C 87.268 51.081 46.556 0
M  V30 4395 C 87.478 51.166 45.17 0
M  V30 4396 C 86.841 52.215 44.449 0
M  V30 4397 C 86.995 52.222 43.092 0
M  V30 4398 C 86.378 53.09 42.254 0
M  V30 4399 C 86.761 52.678 40.971 0
M  V30 4400 O 86.426 53.207 39.88 0
M  V30 4401 C 87.59 51.559 41.108 0
M  V30 4402 O 88.112 50.912 40.161 0
M  V30 4403 N 87.745 51.254 42.411 0
M  V30 4404 C 88.389 50.257 43.07 0
M  V30 4405 C 88.265 50.204 44.477 0
M  V30 4406 C 85.669 56.899 46.568 0
M  V30 4407 O 84.961 55.77 46.066 0
M  V30 4408 C 86.958 52.565 42.581 0
M  V30 4409 C 88.222 52.002 42.851 0
M  V30 4410 C 88.349 50.671 43.229 0
M  V30 4411 C 87.222 49.876 43.388 0
M  V30 4412 C 85.95 50.389 43.097 0
M  V30 4413 C 85.802 51.732 42.579 0
M  V30 4414 C 84.484 52.177 42.157 0
M  V30 4415 C 84.175 53.328 41.391 0
M  V30 4416 O 85.018 54.233 40.77 0
M  V30 4417 C 84.234 55.215 40.084 0
M  V30 4418 O 82.878 54.817 40.3 0
M  V30 4419 C 82.884 53.671 41.073 0
M  V30 4420 C 81.781 52.903 41.441 0
M  V30 4421 C 82.019 51.697 42.12 0
M  V30 4422 C 83.361 51.357 42.45 0
M  V30 4423 C 83.57 50.14 43.034 0
M  V30 4424 C 84.791 49.625 43.322 0
M  V30 4425 C 84.527 48.346 43.827 0
M  V30 4426 O 85.374 47.508 44.23 0
M  V30 4427 C 83.142 48.15 43.803 0
M  V30 4428 O 82.541 47.106 44.171 0
M  V30 4429 N 82.528 49.245 43.312 0
M  V30 4430 C 81.234 49.549 43.036 0
M  V30 4431 C 80.961 50.798 42.433 0
M  V30 4432 C 86.782 54.915 43.451 0
M  V30 4433 O 86.833 53.95 42.404 0
M  V30 4434 C 87.499 51.853 43.518 0
M  V30 4435 C 88.037 50.642 43.998 0
M  V30 4436 C 87.834 50.237 45.312 0
M  V30 4437 C 87.126 51.043 46.193 0
M  V30 4438 C 86.546 52.239 45.746 0
M  V30 4439 C 86.635 52.619 44.352 0
M  V30 4440 C 85.903 53.792 43.9 0
M  V30 4441 C 85.643 54.174 42.561 0
M  V30 4442 O 85.905 53.502 41.38 0
M  V30 4443 C 85.426 54.279 40.278 0
M  V30 4444 O 84.829 55.432 40.876 0
M  V30 4445 C 84.963 55.324 42.247 0
M  V30 4446 C 84.442 56.186 43.21 0
M  V30 4447 C 84.578 55.821 44.559 0
M  V30 4448 C 85.292 54.63 44.872 0
M  V30 4449 C 85.336 54.256 46.185 0
M  V30 4450 C 85.889 53.105 46.638 0
M  V30 4451 C 85.634 53.105 48.015 0
M  V30 4452 O 85.978 52.223 48.843 0
M  V30 4453 C 84.919 54.268 48.32 0
M  V30 4454 O 84.505 54.597 49.463 0
M  V30 4455 N 84.718 54.995 47.203 0
M  V30 4456 C 84.053 56.15 46.944 0
M  V30 4457 C 83.979 56.585 45.601 0
M  V30 4458 C 89.162 52.15 41.66 0
M  V30 4459 O 87.886 52.341 42.261 0
M  V30 4460 C 84.125 52.722 41.92 0
M  V30 4461 C 83.922 53.316 40.658 0
M  V30 4462 C 84.121 54.678 40.465 0
M  V30 4463 C 84.487 55.491 41.53 0
M  V30 4464 C 84.732 54.933 42.792 0
M  V30 4465 C 84.656 53.501 42.988 0
M  V30 4466 C 85.053 52.95 44.274 0
M  V30 4467 C 85.304 51.59 44.58 0
M  V30 4468 O 85.35 50.487 43.746 0
M  V30 4469 C 85.675 49.325 44.516 0
M  V30 4470 O 85.86 49.81 45.848 0
M  V30 4471 C 85.646 51.175 45.843 0
M  V30 4472 C 85.811 52.053 46.913 0
M  V30 4473 C 85.672 53.427 46.661 0
M  V30 4474 C 85.309 53.844 45.349 0
M  V30 4475 C 85.263 55.188 45.112 0
M  V30 4476 C 85.031 55.747 43.899 0
M  V30 4477 C 85.156 57.126 44.113 0
M  V30 4478 O 85.014 58.035 43.256 0
M  V30 4479 C 85.475 57.325 45.461 0
M  V30 4480 O 85.676 58.441 46.01 0
M  V30 4481 N 85.552 56.141 46.099 0
M  V30 4482 C 85.873 55.779 47.367 0
M  V30 4483 C 85.933 54.399 47.668 0
M  V30 4484 C 82.375 50.939 42.178 0
M  V30 4485 O 83.723 51.397 42.142 0
M  V30 4486 C 88.731 47.362 42.208 0
M  V30 4487 C 90.112 47.482 41.946 0
M  V30 4488 C 90.718 48.729 41.847 0
M  V30 4489 C 89.962 49.888 41.966 0
M  V30 4490 C 88.594 49.811 42.26 0
M  V30 4491 C 87.965 48.529 42.495 0
M  V30 4492 C 86.58 48.5 42.934 0
M  V30 4493 C 85.874 47.392 43.466 0
M  V30 4494 O 86.329 46.128 43.8 0
M  V30 4495 C 85.244 45.362 44.334 0
M  V30 4496 O 84.13 46.257 44.334 0
M  V30 4497 C 84.551 47.47 43.823 0
M  V30 4498 C 83.807 48.645 43.731 0
M  V30 4499 C 84.467 49.807 43.303 0
M  V30 4500 C 85.837 49.712 42.927 0
M  V30 4501 C 86.475 50.873 42.597 0
M  V30 4502 C 87.796 50.969 42.311 0
M  V30 4503 C 88.019 52.337 42.115 0
M  V30 4504 O 89.113 52.886 41.82 0
M  V30 4505 C 86.805 53.004 42.309 0
M  V30 4506 O 86.629 54.248 42.228 0
M  V30 4507 N 85.835 52.12 42.613 0
M  V30 4508 C 84.523 52.243 42.939 0
M  V30 4509 C 83.813 51.072 43.287 0
M  V30 4510 C 88.698 44.861 42.432 0
M  V30 4511 O 88.105 46.113 42.1 0
M  V30 4512 C 81.478 48.442 43.78 0
M  V30 4513 C 80.176 48.856 43.434 0
M  V30 4514 C 79.956 50.061 42.777 0
M  V30 4515 C 81.02 50.903 42.482 0
M  V30 4516 C 82.333 50.512 42.779 0
M  V30 4517 C 82.599 49.207 43.347 0
M  V30 4518 C 83.98 48.784 43.509 0
M  V30 4519 C 84.447 47.476 43.787 0
M  V30 4520 O 83.75 46.282 43.86 0
M  V30 4521 C 84.665 45.217 44.137 0
M  V30 4522 O 85.949 45.841 44.183 0
M  V30 4523 C 85.78 47.193 43.95 0
M  V30 4524 C 86.782 48.153 43.82 0
M  V30 4525 C 86.4 49.453 43.45 0
M  V30 4526 C 85.014 49.735 43.292 0
M  V30 4527 C 84.679 50.983 42.85 0
M  V30 4528 C 83.417 51.38 42.556 0
M  V30 4529 C 83.559 52.687 42.072 0
M  V30 4530 O 82.636 53.449 41.684 0
M  V30 4531 C 84.921 53.006 42.088 0
M  V30 4532 O 85.424 54.097 41.708 0
M  V30 4533 N 85.635 51.966 42.561 0
M  V30 4534 C 86.963 51.74 42.728 0
M  V30 4535 C 87.367 50.465 43.186 0
M  V30 4536 C 80.628 46.457 45.063 0
M  V30 4537 O 81.66 47.333 44.619 0
M  V30 4538 C 85.953 52.279 47.437 0
M  V30 4539 C 86.61 51.337 48.256 0
M  V30 4540 C 87.435 50.362 47.709 0
M  V30 4541 C 87.598 50.271 46.333 0
M  V30 4542 C 86.989 51.209 45.488 0
M  V30 4543 C 86.23 52.31 46.04 0
M  V30 4544 C 85.734 53.338 45.139 0
M  V30 4545 C 85.213 54.607 45.494 0
M  V30 4546 O 85.148 55.225 46.731 0
M  V30 4547 C 84.564 56.523 46.58 0
M  V30 4548 O 84.324 56.655 45.177 0
M  V30 4549 C 84.743 55.494 44.558 0
M  V30 4550 C 84.773 55.238 43.188 0
M  V30 4551 C 85.364 54.04 42.757 0
M  V30 4552 C 85.84 53.125 43.738 0
M  V30 4553 C 86.485 52.009 43.289 0
M  V30 4554 C 87.081 51.091 44.089 0
M  V30 4555 C 87.674 50.181 43.206 0
M  V30 4556 O 88.333 49.155 43.515 0
M  V30 4557 C 87.411 50.613 41.901 0
M  V30 4558 O 87.803 50.045 40.847 0
M  V30 4559 N 86.681 51.744 41.926 0
M  V30 4560 C 86.215 52.58 40.964 0
M  V30 4561 C 85.537 53.751 41.373 0
M  V30 4562 C 84.161 52.81 49.114 0
M  V30 4563 O 84.971 53.117 47.984 0
M  V30 4564 C 85.512 56.259 45.766 0
M  V30 4565 C 86.32 55.243 46.602 0
M  V30 4566 C 85.682 53.85 46.594 0
M  V30 4567 C 85.633 53.219 45.161 0
M  V30 4568 C 85.304 54.328 44.071 0
M  V30 4569 C 84.644 55.584 44.68 0
M  V30 4570 C 86.511 54.717 43.206 0
M  V30 4571 C 87.122 53.492 42.608 0
M  V30 4572 C 87.365 52.413 43.374 0
M  V30 4573 C 87.02 52.477 44.868 0
M  V30 4574 C 87.18 51.096 45.602 0
M  V30 4575 C 88.331 50.208 45.083 0
M  V30 4576 C 88.251 50.034 43.546 0
M  V30 4577 C 88.441 51.432 42.95 0
M  V30 4578 C 88.728 51.196 41.474 0
M  V30 4579 C 89.555 49.901 41.459 0
M  V30 4580 C 89.456 49.292 42.884 0
M  V30 4581 C 86.886 49.415 43.127 0
M  V30 4582 C 84.443 52.218 45.146 0
M  V30 4583 O 84.691 57.014 46.62 0
M  V30 4584 H 84.903 56.803 47.542 0
M  V30 4585 C 89.593 47.723 42.903 0
M  V30 4586 C 90.982 47.155 43.266 0
M  V30 4587 C 89.083 47.012 41.621 0
M  V30 4588 C 87.826 46.126 41.777 0
M  V30 4589 C 87.775 45.265 43.07 0
M  V30 4590 C 88.629 43.992 42.923 0
M  V30 4591 C 86.318 44.916 43.513 0
M  V30 4592 C 85.607 46.123 44.15 0
M  V30 4593 C 85.453 44.327 42.387 0
M  V30 4594 C 89.56 51.179 40.474 0
M  V30 4595 C 89.329 52.565 41.113 0
M  V30 4596 C 87.84 52.87 41.309 0
M  V30 4597 C 87.145 51.87 42.295 0
M  V30 4598 C 87.708 50.397 42.088 0
M  V30 4599 C 88.383 50.206 40.712 0
M  V30 4600 C 88.637 49.931 43.217 0
M  V30 4601 C 87.958 50.102 44.537 0
M  V30 4602 C 87.332 51.256 44.831 0
M  V30 4603 C 87.348 52.388 43.795 0
M  V30 4604 C 86.428 53.601 44.187 0
M  V30 4605 C 86.348 53.899 45.7 0
M  V30 4606 C 85.987 52.624 46.502 0
M  V30 4607 C 87.144 51.645 46.284 0
M  V30 4608 C 86.959 50.573 47.35 0
M  V30 4609 C 86.42 51.347 48.563 0
M  V30 4610 C 86.038 52.763 48.056 0
M  V30 4611 C 84.634 52.027 46.015 0
M  V30 4612 C 85.639 51.826 41.911 0
M  V30 4613 O 89.77 51.332 39.095 0
M  V30 4614 H 90.523 51.925 38.945 0
M  V30 4615 C 84.874 53.43 48.883 0
M  V30 4616 C 83.839 52.475 49.514 0
M  V30 4617 C 84.119 54.564 48.139 0
M  V30 4618 C 84.948 55.811 47.757 0
M  V30 4619 C 84.204 56.867 46.895 0
M  V30 4620 C 82.762 56.42 46.588 0
M  V30 4621 C 84.97 57.232 45.583 0
M  V30 4622 C 84.331 56.581 44.344 0
M  V30 4623 C 85.133 58.744 45.362 0
M  V30 4624 C 84.687 57.41 46.198 0
M  V30 4625 C 83.586 56.393 45.826 0
M  V30 4626 C 83.735 55.878 44.391 0
M  V30 4627 C 85.074 55.096 44.168 0
M  V30 4628 C 86.263 55.78 44.971 0
M  V30 4629 C 85.963 57.249 45.342 0
M  V30 4630 C 86.704 54.989 46.21 0
M  V30 4631 C 87.011 53.577 45.828 0
M  V30 4632 C 86.157 52.884 45.053 0
M  V30 4633 C 84.863 53.567 44.59 0
M  V30 4634 C 84.052 52.717 43.546 0
M  V30 4635 C 84.124 51.188 43.749 0
M  V30 4636 C 85.593 50.709 43.86 0
M  V30 4637 C 86.16 51.37 45.12 0
M  V30 4638 C 87.449 50.616 45.415 0
M  V30 4639 C 87.131 49.167 45.013 0
M  V30 4640 C 85.79 49.205 44.232 0
M  V30 4641 C 86.404 51.105 42.593 0
M  V30 4642 C 85.428 55.222 42.66 0
M  V30 4643 O 84.185 58.713 46.051 0
M  V30 4644 H 84.845 59.351 46.36 0
M  V30 4645 C 85.652 48.048 43.171 0
M  V30 4646 C 84.539 47.009 43.422 0
M  V30 4647 C 86.974 47.298 42.855 0
M  V30 4648 C 87.766 47.787 41.622 0
M  V30 4649 C 89.313 47.755 41.769 0
M  V30 4650 C 89.79 46.41 42.349 0
M  V30 4651 C 89.871 48.954 42.601 0
M  V30 4652 C 91.201 48.606 43.291 0
M  V30 4653 C 90.018 50.253 41.792 0
M  V30 4654 C 88.186 48.468 41.403 0
M  V30 4655 C 86.796 48.589 42.064 0
M  V30 4656 C 86.893 48.881 43.565 0
M  V30 4657 C 87.585 50.254 43.867 0
M  V30 4658 C 88.783 50.512 42.855 0
M  V30 4659 C 89.288 49.215 42.187 0
M  V30 4660 C 88.474 51.581 41.797 0
M  V30 4661 C 88.009 52.835 42.464 0
M  V30 4662 C 87.073 52.782 43.428 0
M  V30 4663 C 86.487 51.417 43.812 0
M  V30 4664 C 85.547 51.476 45.071 0
M  V30 4665 C 84.72 52.771 45.21 0
M  V30 4666 C 85.624 54.025 45.111 0
M  V30 4667 C 86.221 54.006 43.7 0
M  V30 4668 C 86.794 55.402 43.496 0
M  V30 4669 C 85.804 56.32 44.231 0
M  V30 4670 C 84.88 55.397 45.071 0
M  V30 4671 C 86.734 53.996 46.201 0
M  V30 4672 C 88.218 50.142 45.283 0
M  V30 4673 O 88.53 47.111 41.289 0
M  V30 4674 H 88.42 46.676 42.148 0
M  V30 4675 C 84.319 56.091 46.37 0
M  V30 4676 C 84.253 57.633 46.357 0
M  V30 4677 C 84.992 55.631 47.691 0
M  V30 4678 C 84.084 54.911 48.713 0
M  V30 4679 C 83.885 53.388 48.471 0
M  V30 4680 C 82.39 53.02 48.44 0
M  V30 4681 C 84.662 52.502 49.496 0
M  V30 4682 C 83.724 51.551 50.26 0
M  V30 4683 C 85.825 51.712 48.875 0
M  V30 4684 C 85.308 57.487 45.233 0
M  V30 4685 C 84.038 56.639 45.005 0
M  V30 4686 C 84.057 55.921 43.651 0
M  V30 4687 C 85.234 54.893 43.532 0
M  V30 4688 C 86.544 55.459 44.232 0
M  V30 4689 C 86.514 56.993 44.402 0
M  V30 4690 C 86.874 54.773 45.565 0
M  V30 4691 C 86.922 53.291 45.375 0
M  V30 4692 C 85.94 52.663 44.703 0
M  V30 4693 C 84.772 53.494 44.156 0
M  V30 4694 C 83.798 52.67 43.238 0
M  V30 4695 C 83.61 51.192 43.645 0
M  V30 4696 C 84.976 50.482 43.816 0
M  V30 4697 C 85.682 51.194 44.973 0
M  V30 4698 C 86.828 50.27 45.363 0
M  V30 4699 C 86.253 48.86 45.161 0
M  V30 4700 C 84.918 49.029 44.386 0
M  V30 4701 C 85.809 50.559 42.504 0
M  V30 4702 C 85.564 54.755 42.019 0
M  V30 4703 O 85.036 58.827 44.913 0
M  V30 4704 H 84.202 58.879 44.421 0
M  V30 4705 C 84.554 47.785 43.491 0
M  V30 4706 C 83.119 47.232 43.626 0
M  V30 4707 C 85.555 46.603 43.586 0
M  V30 4708 C 86.642 46.529 42.489 0
M  V30 4709 C 87.944 45.781 42.891 0
M  V30 4710 C 89.161 46.334 42.127 0
M  V30 4711 C 87.832 44.232 42.724 0
M  V30 4712 C 87.853 43.504 44.079 0
M  V30 4713 C 86.612 43.784 41.902 0
M  V30 4714 C 84.367 57.83 46.194 0
M  V30 4715 C 83.566 56.864 45.295 0
M  V30 4716 C 84.419 56.288 44.159 0
M  V30 4717 C 85.615 55.424 44.685 0
M  V30 4718 C 86.24 56.07 45.996 0
M  V30 4719 C 85.889 57.566 46.148 0
M  V30 4720 C 85.901 55.301 47.281 0
M  V30 4721 C 86.269 53.862 47.123 0
M  V30 4722 C 85.912 53.19 46.013 0
M  V30 4723 C 85.11 53.926 44.932 0
M  V30 4724 C 84.922 53.085 43.618 0
M  V30 4725 C 84.772 51.563 43.83 0
M  V30 4726 C 85.922 51.006 44.707 0
M  V30 4727 C 85.776 51.681 46.074 0
M  V30 4728 C 86.658 50.867 47.011 0
M  V30 4729 C 86.505 49.424 46.504 0
M  V30 4730 C 85.789 49.508 45.129 0
M  V30 4731 C 87.306 51.31 44.064 0
M  V30 4732 C 86.724 55.474 43.596 0
M  V30 4733 O 84.109 59.153 45.8 0
M  V30 4734 H 83.955 59.182 44.843 0
M  V30 4735 C 86.158 48.323 44.159 0
M  V30 4736 C 86.974 48.687 42.9 0
M  V30 4737 C 84.957 47.435 43.736 0
M  V30 4738 C 83.761 48.159 43.079 0
M  V30 4739 C 82.394 47.97 43.793 0
M  V30 4740 C 81.696 46.679 43.328 0
M  V30 4741 C 81.45 49.206 43.639 0
M  V30 4742 C 81.828 50.069 42.423 0
M  V30 4743 C 79.958 48.842 43.586 0
M  V30 4744 C 80.191 47.312 44.619 0
M  V30 4745 C 81.356 46.321 44.828 0
M  V30 4746 C 82.114 46.036 43.527 0
M  V30 4747 C 82.797 47.317 42.935 0
M  V30 4748 C 81.867 48.591 43.136 0
M  V30 4749 C 80.389 48.217 43.382 0
M  V30 4750 C 82.37 49.553 44.22 0
M  V30 4751 C 83.793 49.921 43.953 0
M  V30 4752 C 84.694 48.968 43.655 0
M  V30 4753 C 84.233 47.505 43.615 0
M  V30 4754 C 85.334 46.521 43.076 0
M  V30 4755 C 86.785 46.894 43.449 0
M  V30 4756 C 87.097 48.365 43.074 0
M  V30 4757 C 86.163 49.227 43.928 0
M  V30 4758 C 86.726 50.638 43.826 0
M  V30 4759 C 88.248 50.427 43.778 0
M  V30 4760 C 88.48 48.908 43.553 0
M  V30 4761 C 86.87 48.609 41.554 0
M  V30 4762 C 82.922 47.097 41.401 0
M  V30 4763 O 78.99 46.596 44.488 0
M  V30 4764 H 79.169 45.646 44.566 0
M  V30 4765 C 89.822 48.588 42.791 0
M  V30 4766 C 90.878 47.77 43.565 0
M  V30 4767 C 90.515 49.822 42.153 0
M  V30 4768 C 89.734 50.551 41.037 0
M  V30 4769 C 89.959 52.087 40.962 0
M  V30 4770 C 88.909 52.844 41.797 0
M  V30 4771 C 90.005 52.625 39.496 0
M  V30 4772 C 88.595 52.851 38.922 0
M  V30 4773 C 90.854 53.895 39.329 0
M  V30 4774 C 90.049 47.276 41.879 0
M  V30 4775 C 88.528 47.113 42.09 0
M  V30 4776 C 88.017 47.937 43.276 0
M  V30 4777 C 88.215 49.477 43.068 0
M  V30 4778 C 89.598 49.771 42.34 0
M  V30 4779 C 90.596 48.599 42.462 0
M  V30 4780 C 89.443 50.2 40.875 0
M  V30 4781 C 88.492 51.349 40.781 0
M  V30 4782 C 87.316 51.31 41.432 0
M  V30 4783 C 86.969 50.061 42.252 0
M  V30 4784 C 85.659 50.222 43.106 0
M  V30 4785 C 84.557 51.087 42.457 0
M  V30 4786 C 85.118 52.458 42.004 0
M  V30 4787 C 86.162 52.152 40.925 0
M  V30 4788 C 86.426 53.488 40.243 0
M  V30 4789 C 85.055 54.182 40.245 0
M  V30 4790 C 84.137 53.355 41.184 0
M  V30 4791 C 85.744 53.225 43.204 0
M  V30 4792 C 88.314 50.117 44.482 0
M  V30 4793 O 90.718 46.192 42.47 0
M  V30 4794 H 90.744 46.312 43.432 0
M  V30 4795 C 83.007 54.214 41.869 0
M  V30 4796 C 81.596 54.122 41.25 0
M  V30 4797 C 83.366 55.71 42.074 0
M  V30 4798 C 84.704 56.008 42.787 0
M  V30 4799 C 84.595 56.873 44.073 0
M  V30 4800 C 85.628 58.016 44.064 0
M  V30 4801 C 84.701 56.031 45.385 0
M  V30 4802 C 86.154 55.913 45.876 0
M  V30 4803 C 83.798 56.538 46.52 0
M  V30 4804 C 78.982 49.214 44.394 0
M  V30 4805 C 80.207 49.073 45.324 0
M  V30 4806 C 81.348 48.292 44.663 0
M  V30 4807 C 81.911 49.012 43.39 0
M  V30 4808 C 80.734 49.692 42.565 0
M  V30 4809 C 79.35 49.094 42.898 0
M  V30 4810 C 80.706 51.222 42.683 0
M  V30 4811 C 82.046 51.784 42.335 0
M  V30 4812 C 83.162 51.249 42.863 0
M  V30 4813 C 83.025 50.071 43.836 0
M  V30 4814 C 84.404 49.427 44.23 0
M  V30 4815 C 85.584 50.417 44.331 0
M  V30 4816 C 85.699 51.28 43.05 0
M  V30 4817 C 84.409 52.103 42.975 0
M  V30 4818 C 84.694 53.188 41.946 0
M  V30 4819 C 86.175 53.531 42.169 0
M  V30 4820 C 86.753 52.432 43.1 0
M  V30 4821 C 85.878 50.382 41.791 0
M  V30 4822 C 82.514 47.91 42.474 0
M  V30 4823 O 78.034 48.233 44.723 0
M  V30 4824 H 77.277 48.298 44.12 0
M  V30 4825 C 88.292 52.177 42.886 0
M  V30 4826 C 88.923 52.784 41.614 0
M  V30 4827 C 88.724 50.69 42.997 0
M  V30 4828 C 89.776 50.199 41.976 0
M  V30 4829 C 89.881 48.657 41.818 0
M  V30 4830 C 88.513 48.037 41.478 0
M  V30 4831 C 90.521 47.96 43.061 0
M  V30 4832 C 90.771 46.462 42.815 0
M  V30 4833 C 91.808 48.637 43.557 0
M  V30 4834 C 85.512 56.259 45.766 0
M  V30 4835 C 86.32 55.243 46.602 0
M  V30 4836 C 85.682 53.85 46.594 0
M  V30 4837 C 85.633 53.219 45.161 0
M  V30 4838 C 85.304 54.328 44.071 0
M  V30 4839 C 84.644 55.584 44.68 0
M  V30 4840 C 86.511 54.717 43.206 0
M  V30 4841 C 87.122 53.492 42.608 0
M  V30 4842 C 87.365 52.413 43.374 0
M  V30 4843 C 87.02 52.477 44.868 0
M  V30 4844 C 87.18 51.096 45.602 0
M  V30 4845 C 88.331 50.208 45.083 0
M  V30 4846 C 88.251 50.034 43.546 0
M  V30 4847 C 88.441 51.432 42.95 0
M  V30 4848 C 88.728 51.196 41.474 0
M  V30 4849 C 89.555 49.901 41.459 0
M  V30 4850 C 89.456 49.292 42.884 0
M  V30 4851 C 86.886 49.415 43.127 0
M  V30 4852 C 84.443 52.218 45.146 0
M  V30 4853 O 84.691 57.014 46.62 0
M  V30 4854 H 84.903 56.803 47.542 0
M  V30 4855 C 89.593 47.723 42.903 0
M  V30 4856 C 90.982 47.155 43.266 0
M  V30 4857 C 89.083 47.012 41.621 0
M  V30 4858 C 87.826 46.126 41.777 0
M  V30 4859 C 87.775 45.265 43.07 0
M  V30 4860 C 88.629 43.992 42.923 0
M  V30 4861 C 86.318 44.916 43.513 0
M  V30 4862 C 85.607 46.123 44.15 0
M  V30 4863 C 85.453 44.327 42.387 0
M  V30 4864 C 89.56 51.179 40.474 0
M  V30 4865 C 89.329 52.565 41.113 0
M  V30 4866 C 87.84 52.87 41.309 0
M  V30 4867 C 87.145 51.87 42.295 0
M  V30 4868 C 87.708 50.397 42.088 0
M  V30 4869 C 88.383 50.206 40.712 0
M  V30 4870 C 88.637 49.931 43.217 0
M  V30 4871 C 87.958 50.102 44.537 0
M  V30 4872 C 87.332 51.256 44.831 0
M  V30 4873 C 87.348 52.388 43.795 0
M  V30 4874 C 86.428 53.601 44.187 0
M  V30 4875 C 86.348 53.899 45.7 0
M  V30 4876 C 85.987 52.624 46.502 0
M  V30 4877 C 87.144 51.645 46.284 0
M  V30 4878 C 86.959 50.573 47.35 0
M  V30 4879 C 86.42 51.347 48.563 0
M  V30 4880 C 86.038 52.763 48.056 0
M  V30 4881 C 84.634 52.027 46.015 0
M  V30 4882 C 85.639 51.826 41.911 0
M  V30 4883 O 89.77 51.332 39.095 0
M  V30 4884 H 90.523 51.925 38.945 0
M  V30 4885 C 84.874 53.43 48.883 0
M  V30 4886 C 83.839 52.475 49.514 0
M  V30 4887 C 84.119 54.564 48.139 0
M  V30 4888 C 84.948 55.811 47.757 0
M  V30 4889 C 84.204 56.867 46.895 0
M  V30 4890 C 82.762 56.42 46.588 0
M  V30 4891 C 84.97 57.232 45.583 0
M  V30 4892 C 84.331 56.581 44.344 0
M  V30 4893 C 85.133 58.744 45.362 0
M  V30 4894 C 84.687 57.41 46.198 0
M  V30 4895 C 83.586 56.393 45.826 0
M  V30 4896 C 83.735 55.878 44.391 0
M  V30 4897 C 85.074 55.096 44.168 0
M  V30 4898 C 86.263 55.78 44.971 0
M  V30 4899 C 85.963 57.249 45.342 0
M  V30 4900 C 86.704 54.989 46.21 0
M  V30 4901 C 87.011 53.577 45.828 0
M  V30 4902 C 86.157 52.884 45.053 0
M  V30 4903 C 84.863 53.567 44.59 0
M  V30 4904 C 84.052 52.717 43.546 0
M  V30 4905 C 84.124 51.188 43.749 0
M  V30 4906 C 85.593 50.709 43.86 0
M  V30 4907 C 86.16 51.37 45.12 0
M  V30 4908 C 87.449 50.616 45.415 0
M  V30 4909 C 87.131 49.167 45.013 0
M  V30 4910 C 85.79 49.205 44.232 0
M  V30 4911 C 86.404 51.105 42.593 0
M  V30 4912 C 85.428 55.222 42.66 0
M  V30 4913 O 84.185 58.713 46.051 0
M  V30 4914 H 84.845 59.351 46.36 0
M  V30 4915 C 85.652 48.048 43.171 0
M  V30 4916 C 84.539 47.009 43.422 0
M  V30 4917 C 86.974 47.298 42.855 0
M  V30 4918 C 87.766 47.787 41.622 0
M  V30 4919 C 89.313 47.755 41.769 0
M  V30 4920 C 89.79 46.41 42.349 0
M  V30 4921 C 89.871 48.954 42.601 0
M  V30 4922 C 91.201 48.606 43.291 0
M  V30 4923 C 90.018 50.253 41.792 0
M  V30 4924 C 88.186 48.468 41.403 0
M  V30 4925 C 86.796 48.589 42.064 0
M  V30 4926 C 86.893 48.881 43.565 0
M  V30 4927 C 87.585 50.254 43.867 0
M  V30 4928 C 88.783 50.512 42.855 0
M  V30 4929 C 89.288 49.215 42.187 0
M  V30 4930 C 88.474 51.581 41.797 0
M  V30 4931 C 88.009 52.835 42.464 0
M  V30 4932 C 87.073 52.782 43.428 0
M  V30 4933 C 86.487 51.417 43.812 0
M  V30 4934 C 85.547 51.476 45.071 0
M  V30 4935 C 84.72 52.771 45.21 0
M  V30 4936 C 85.624 54.025 45.111 0
M  V30 4937 C 86.221 54.006 43.7 0
M  V30 4938 C 86.794 55.402 43.496 0
M  V30 4939 C 85.804 56.32 44.231 0
M  V30 4940 C 84.88 55.397 45.071 0
M  V30 4941 C 86.734 53.996 46.201 0
M  V30 4942 C 88.218 50.142 45.283 0
M  V30 4943 O 88.53 47.111 41.289 0
M  V30 4944 H 88.42 46.676 42.148 0
M  V30 4945 C 84.319 56.091 46.37 0
M  V30 4946 C 84.253 57.633 46.357 0
M  V30 4947 C 84.992 55.631 47.691 0
M  V30 4948 C 84.084 54.911 48.713 0
M  V30 4949 C 83.885 53.388 48.471 0
M  V30 4950 C 82.39 53.02 48.44 0
M  V30 4951 C 84.662 52.502 49.496 0
M  V30 4952 C 83.724 51.551 50.26 0
M  V30 4953 C 85.825 51.712 48.875 0
M  V30 4954 C 85.308 57.487 45.233 0
M  V30 4955 C 84.038 56.639 45.005 0
M  V30 4956 C 84.057 55.921 43.651 0
M  V30 4957 C 85.234 54.893 43.532 0
M  V30 4958 C 86.544 55.459 44.232 0
M  V30 4959 C 86.514 56.993 44.402 0
M  V30 4960 C 86.874 54.773 45.565 0
M  V30 4961 C 86.922 53.291 45.375 0
M  V30 4962 C 85.94 52.663 44.703 0
M  V30 4963 C 84.772 53.494 44.156 0
M  V30 4964 C 83.798 52.67 43.238 0
M  V30 4965 C 83.61 51.192 43.645 0
M  V30 4966 C 84.976 50.482 43.816 0
M  V30 4967 C 85.682 51.194 44.973 0
M  V30 4968 C 86.828 50.27 45.363 0
M  V30 4969 C 86.253 48.86 45.161 0
M  V30 4970 C 84.918 49.029 44.386 0
M  V30 4971 C 85.809 50.559 42.504 0
M  V30 4972 C 85.564 54.755 42.019 0
M  V30 4973 O 85.036 58.827 44.913 0
M  V30 4974 H 84.202 58.879 44.421 0
M  V30 4975 C 84.554 47.785 43.491 0
M  V30 4976 C 83.119 47.232 43.626 0
M  V30 4977 C 85.555 46.603 43.586 0
M  V30 4978 C 86.642 46.529 42.489 0
M  V30 4979 C 87.944 45.781 42.891 0
M  V30 4980 C 89.161 46.334 42.127 0
M  V30 4981 C 87.832 44.232 42.724 0
M  V30 4982 C 87.853 43.504 44.079 0
M  V30 4983 C 86.612 43.784 41.902 0
M  V30 4984 C 84.367 57.83 46.194 0
M  V30 4985 C 83.566 56.864 45.295 0
M  V30 4986 C 84.419 56.288 44.159 0
M  V30 4987 C 85.615 55.424 44.685 0
M  V30 4988 C 86.24 56.07 45.996 0
M  V30 4989 C 85.889 57.566 46.148 0
M  V30 4990 C 85.901 55.301 47.281 0
M  V30 4991 C 86.269 53.862 47.123 0
M  V30 4992 C 85.912 53.19 46.013 0
M  V30 4993 C 85.11 53.926 44.932 0
M  V30 4994 C 84.922 53.085 43.618 0
M  V30 4995 C 84.772 51.563 43.83 0
M  V30 4996 C 85.922 51.006 44.707 0
M  V30 4997 C 85.776 51.681 46.074 0
M  V30 4998 C 86.658 50.867 47.011 0
M  V30 4999 C 86.505 49.424 46.504 0
M  V30 5000 C 85.789 49.508 45.129 0
M  V30 5001 C 87.306 51.31 44.064 0
M  V30 5002 C 86.724 55.474 43.596 0
M  V30 5003 O 84.109 59.153 45.8 0
M  V30 5004 H 83.955 59.182 44.843 0
M  V30 5005 C 86.158 48.323 44.159 0
M  V30 5006 C 86.974 48.687 42.9 0
M  V30 5007 C 84.957 47.435 43.736 0
M  V30 5008 C 83.761 48.159 43.079 0
M  V30 5009 C 82.394 47.97 43.793 0
M  V30 5010 C 81.696 46.679 43.328 0
M  V30 5011 C 81.45 49.206 43.639 0
M  V30 5012 C 81.828 50.069 42.423 0
M  V30 5013 C 79.958 48.842 43.586 0
M  V30 5014 C 80.191 47.312 44.619 0
M  V30 5015 C 81.356 46.321 44.828 0
M  V30 5016 C 82.114 46.036 43.527 0
M  V30 5017 C 82.797 47.317 42.935 0
M  V30 5018 C 81.867 48.591 43.136 0
M  V30 5019 C 80.389 48.217 43.382 0
M  V30 5020 C 82.37 49.553 44.22 0
M  V30 5021 C 83.793 49.921 43.953 0
M  V30 5022 C 84.694 48.968 43.655 0
M  V30 5023 C 84.233 47.505 43.615 0
M  V30 5024 C 85.334 46.521 43.076 0
M  V30 5025 C 86.785 46.894 43.449 0
M  V30 5026 C 87.097 48.365 43.074 0
M  V30 5027 C 86.163 49.227 43.928 0
M  V30 5028 C 86.726 50.638 43.826 0
M  V30 5029 C 88.248 50.427 43.778 0
M  V30 5030 C 88.48 48.908 43.553 0
M  V30 5031 C 86.87 48.609 41.554 0
M  V30 5032 C 82.922 47.097 41.401 0
M  V30 5033 O 78.99 46.596 44.488 0
M  V30 5034 H 79.169 45.646 44.566 0
M  V30 5035 C 89.822 48.588 42.791 0
M  V30 5036 C 90.878 47.77 43.565 0
M  V30 5037 C 90.515 49.822 42.153 0
M  V30 5038 C 89.734 50.551 41.037 0
M  V30 5039 C 89.959 52.087 40.962 0
M  V30 5040 C 88.909 52.844 41.797 0
M  V30 5041 C 90.005 52.625 39.496 0
M  V30 5042 C 88.595 52.851 38.922 0
M  V30 5043 C 90.854 53.895 39.329 0
M  V30 5044 C 90.049 47.276 41.879 0
M  V30 5045 C 88.528 47.113 42.09 0
M  V30 5046 C 88.017 47.937 43.276 0
M  V30 5047 C 88.215 49.477 43.068 0
M  V30 5048 C 89.598 49.771 42.34 0
M  V30 5049 C 90.596 48.599 42.462 0
M  V30 5050 C 89.443 50.2 40.875 0
M  V30 5051 C 88.492 51.349 40.781 0
M  V30 5052 C 87.316 51.31 41.432 0
M  V30 5053 C 86.969 50.061 42.252 0
M  V30 5054 C 85.659 50.222 43.106 0
M  V30 5055 C 84.557 51.087 42.457 0
M  V30 5056 C 85.118 52.458 42.004 0
M  V30 5057 C 86.162 52.152 40.925 0
M  V30 5058 C 86.426 53.488 40.243 0
M  V30 5059 C 85.055 54.182 40.245 0
M  V30 5060 C 84.137 53.355 41.184 0
M  V30 5061 C 85.744 53.225 43.204 0
M  V30 5062 C 88.314 50.117 44.482 0
M  V30 5063 O 90.718 46.192 42.47 0
M  V30 5064 H 90.744 46.312 43.432 0
M  V30 5065 C 83.007 54.214 41.869 0
M  V30 5066 C 81.596 54.122 41.25 0
M  V30 5067 C 83.366 55.71 42.074 0
M  V30 5068 C 84.704 56.008 42.787 0
M  V30 5069 C 84.595 56.873 44.073 0
M  V30 5070 C 85.628 58.016 44.064 0
M  V30 5071 C 84.701 56.031 45.385 0
M  V30 5072 C 86.154 55.913 45.876 0
M  V30 5073 C 83.798 56.538 46.52 0
M  V30 5074 C 78.982 49.214 44.394 0
M  V30 5075 C 80.207 49.073 45.324 0
M  V30 5076 C 81.348 48.292 44.663 0
M  V30 5077 C 81.911 49.012 43.39 0
M  V30 5078 C 80.734 49.692 42.565 0
M  V30 5079 C 79.35 49.094 42.898 0
M  V30 5080 C 80.706 51.222 42.683 0
M  V30 5081 C 82.046 51.784 42.335 0
M  V30 5082 C 83.162 51.249 42.863 0
M  V30 5083 C 83.025 50.071 43.836 0
M  V30 5084 C 84.404 49.427 44.23 0
M  V30 5085 C 85.584 50.417 44.331 0
M  V30 5086 C 85.699 51.28 43.05 0
M  V30 5087 C 84.409 52.103 42.975 0
M  V30 5088 C 84.694 53.188 41.946 0
M  V30 5089 C 86.175 53.531 42.169 0
M  V30 5090 C 86.753 52.432 43.1 0
M  V30 5091 C 85.878 50.382 41.791 0
M  V30 5092 C 82.514 47.91 42.474 0
M  V30 5093 O 78.034 48.233 44.723 0
M  V30 5094 H 77.277 48.298 44.12 0
M  V30 5095 C 88.292 52.177 42.886 0
M  V30 5096 C 88.923 52.784 41.614 0
M  V30 5097 C 88.724 50.69 42.997 0
M  V30 5098 C 89.776 50.199 41.976 0
M  V30 5099 C 89.881 48.657 41.818 0
M  V30 5100 C 88.513 48.037 41.478 0
M  V30 5101 C 90.521 47.96 43.061 0
M  V30 5102 C 90.771 46.462 42.815 0
M  V30 5103 C 91.808 48.637 43.557 0
M  V30 5104 C 85.512 56.259 45.766 0
M  V30 5105 C 86.32 55.243 46.602 0
M  V30 5106 C 85.682 53.85 46.594 0
M  V30 5107 C 85.633 53.219 45.161 0
M  V30 5108 C 85.304 54.328 44.071 0
M  V30 5109 C 84.644 55.584 44.68 0
M  V30 5110 C 86.511 54.717 43.206 0
M  V30 5111 C 87.122 53.492 42.608 0
M  V30 5112 C 87.365 52.413 43.374 0
M  V30 5113 C 87.02 52.477 44.868 0
M  V30 5114 C 87.18 51.096 45.602 0
M  V30 5115 C 88.331 50.208 45.083 0
M  V30 5116 C 88.251 50.034 43.546 0
M  V30 5117 C 88.441 51.432 42.95 0
M  V30 5118 C 88.728 51.196 41.474 0
M  V30 5119 C 89.555 49.901 41.459 0
M  V30 5120 C 89.456 49.292 42.884 0
M  V30 5121 C 86.886 49.415 43.127 0
M  V30 5122 C 84.443 52.218 45.146 0
M  V30 5123 O 84.691 57.014 46.62 0
M  V30 5124 H 84.903 56.803 47.542 0
M  V30 5125 C 89.593 47.723 42.903 0
M  V30 5126 C 90.982 47.155 43.266 0
M  V30 5127 C 89.083 47.012 41.621 0
M  V30 5128 C 87.826 46.126 41.777 0
M  V30 5129 C 87.775 45.265 43.07 0
M  V30 5130 C 88.629 43.992 42.923 0
M  V30 5131 C 86.318 44.916 43.513 0
M  V30 5132 C 85.607 46.123 44.15 0
M  V30 5133 C 85.453 44.327 42.387 0
M  V30 5134 C 89.56 51.179 40.474 0
M  V30 5135 C 89.329 52.565 41.113 0
M  V30 5136 C 87.84 52.87 41.309 0
M  V30 5137 C 87.145 51.87 42.295 0
M  V30 5138 C 87.708 50.397 42.088 0
M  V30 5139 C 88.383 50.206 40.712 0
M  V30 5140 C 88.637 49.931 43.217 0
M  V30 5141 C 87.958 50.102 44.537 0
M  V30 5142 C 87.332 51.256 44.831 0
M  V30 5143 C 87.348 52.388 43.795 0
M  V30 5144 C 86.428 53.601 44.187 0
M  V30 5145 C 86.348 53.899 45.7 0
M  V30 5146 C 85.987 52.624 46.502 0
M  V30 5147 C 87.144 51.645 46.284 0
M  V30 5148 C 86.959 50.573 47.35 0
M  V30 5149 C 86.42 51.347 48.563 0
M  V30 5150 C 86.038 52.763 48.056 0
M  V30 5151 C 84.634 52.027 46.015 0
M  V30 5152 C 85.639 51.826 41.911 0
M  V30 5153 O 89.77 51.332 39.095 0
M  V30 5154 H 90.523 51.925 38.945 0
M  V30 5155 C 84.874 53.43 48.883 0
M  V30 5156 C 83.839 52.475 49.514 0
M  V30 5157 C 84.119 54.564 48.139 0
M  V30 5158 C 84.948 55.811 47.757 0
M  V30 5159 C 84.204 56.867 46.895 0
M  V30 5160 C 82.762 56.42 46.588 0
M  V30 5161 C 84.97 57.232 45.583 0
M  V30 5162 C 84.331 56.581 44.344 0
M  V30 5163 C 85.133 58.744 45.362 0
M  V30 5164 C 84.687 57.41 46.198 0
M  V30 5165 C 83.586 56.393 45.826 0
M  V30 5166 C 83.735 55.878 44.391 0
M  V30 5167 C 85.074 55.096 44.168 0
M  V30 5168 C 86.263 55.78 44.971 0
M  V30 5169 C 85.963 57.249 45.342 0
M  V30 5170 C 86.704 54.989 46.21 0
M  V30 5171 C 87.011 53.577 45.828 0
M  V30 5172 C 86.157 52.884 45.053 0
M  V30 5173 C 84.863 53.567 44.59 0
M  V30 5174 C 84.052 52.717 43.546 0
M  V30 5175 C 84.124 51.188 43.749 0
M  V30 5176 C 85.593 50.709 43.86 0
M  V30 5177 C 86.16 51.37 45.12 0
M  V30 5178 C 87.449 50.616 45.415 0
M  V30 5179 C 87.131 49.167 45.013 0
M  V30 5180 C 85.79 49.205 44.232 0
M  V30 5181 C 86.404 51.105 42.593 0
M  V30 5182 C 85.428 55.222 42.66 0
M  V30 5183 O 84.185 58.713 46.051 0
M  V30 5184 H 84.845 59.351 46.36 0
M  V30 5185 C 85.652 48.048 43.171 0
M  V30 5186 C 84.539 47.009 43.422 0
M  V30 5187 C 86.974 47.298 42.855 0
M  V30 5188 C 87.766 47.787 41.622 0
M  V30 5189 C 89.313 47.755 41.769 0
M  V30 5190 C 89.79 46.41 42.349 0
M  V30 5191 C 89.871 48.954 42.601 0
M  V30 5192 C 91.201 48.606 43.291 0
M  V30 5193 C 90.018 50.253 41.792 0
M  V30 5194 C 88.186 48.468 41.403 0
M  V30 5195 C 86.796 48.589 42.064 0
M  V30 5196 C 86.893 48.881 43.565 0
M  V30 5197 C 87.585 50.254 43.867 0
M  V30 5198 C 88.783 50.512 42.855 0
M  V30 5199 C 89.288 49.215 42.187 0
M  V30 5200 C 88.474 51.581 41.797 0
M  V30 5201 C 88.009 52.835 42.464 0
M  V30 5202 C 87.073 52.782 43.428 0
M  V30 5203 C 86.487 51.417 43.812 0
M  V30 5204 C 85.547 51.476 45.071 0
M  V30 5205 C 84.72 52.771 45.21 0
M  V30 5206 C 85.624 54.025 45.111 0
M  V30 5207 C 86.221 54.006 43.7 0
M  V30 5208 C 86.794 55.402 43.496 0
M  V30 5209 C 85.804 56.32 44.231 0
M  V30 5210 C 84.88 55.397 45.071 0
M  V30 5211 C 86.734 53.996 46.201 0
M  V30 5212 C 88.218 50.142 45.283 0
M  V30 5213 O 88.53 47.111 41.289 0
M  V30 5214 H 88.42 46.676 42.148 0
M  V30 5215 C 84.319 56.091 46.37 0
M  V30 5216 C 84.253 57.633 46.357 0
M  V30 5217 C 84.992 55.631 47.691 0
M  V30 5218 C 84.084 54.911 48.713 0
M  V30 5219 C 83.885 53.388 48.471 0
M  V30 5220 C 82.39 53.02 48.44 0
M  V30 5221 C 84.662 52.502 49.496 0
M  V30 5222 C 83.724 51.551 50.26 0
M  V30 5223 C 85.825 51.712 48.875 0
M  V30 5224 C 85.308 57.487 45.233 0
M  V30 5225 C 84.038 56.639 45.005 0
M  V30 5226 C 84.057 55.921 43.651 0
M  V30 5227 C 85.234 54.893 43.532 0
M  V30 5228 C 86.544 55.459 44.232 0
M  V30 5229 C 86.514 56.993 44.402 0
M  V30 5230 C 86.874 54.773 45.565 0
M  V30 5231 C 86.922 53.291 45.375 0
M  V30 5232 C 85.94 52.663 44.703 0
M  V30 5233 C 84.772 53.494 44.156 0
M  V30 5234 C 83.798 52.67 43.238 0
M  V30 5235 C 83.61 51.192 43.645 0
M  V30 5236 C 84.976 50.482 43.816 0
M  V30 5237 C 85.682 51.194 44.973 0
M  V30 5238 C 86.828 50.27 45.363 0
M  V30 5239 C 86.253 48.86 45.161 0
M  V30 5240 C 84.918 49.029 44.386 0
M  V30 5241 C 85.809 50.559 42.504 0
M  V30 5242 C 85.564 54.755 42.019 0
M  V30 5243 O 85.036 58.827 44.913 0
M  V30 5244 H 84.202 58.879 44.421 0
M  V30 5245 C 84.554 47.785 43.491 0
M  V30 5246 C 83.119 47.232 43.626 0
M  V30 5247 C 85.555 46.603 43.586 0
M  V30 5248 C 86.642 46.529 42.489 0
M  V30 5249 C 87.944 45.781 42.891 0
M  V30 5250 C 89.161 46.334 42.127 0
M  V30 5251 C 87.832 44.232 42.724 0
M  V30 5252 C 87.853 43.504 44.079 0
M  V30 5253 C 86.612 43.784 41.902 0
M  V30 5254 C 84.367 57.83 46.194 0
M  V30 5255 C 83.566 56.864 45.295 0
M  V30 5256 C 84.419 56.288 44.159 0
M  V30 5257 C 85.615 55.424 44.685 0
M  V30 5258 C 86.24 56.07 45.996 0
M  V30 5259 C 85.889 57.566 46.148 0
M  V30 5260 C 85.901 55.301 47.281 0
M  V30 5261 C 86.269 53.862 47.123 0
M  V30 5262 C 85.912 53.19 46.013 0
M  V30 5263 C 85.11 53.926 44.932 0
M  V30 5264 C 84.922 53.085 43.618 0
M  V30 5265 C 84.772 51.563 43.83 0
M  V30 5266 C 85.922 51.006 44.707 0
M  V30 5267 C 85.776 51.681 46.074 0
M  V30 5268 C 86.658 50.867 47.011 0
M  V30 5269 C 86.505 49.424 46.504 0
M  V30 5270 C 85.789 49.508 45.129 0
M  V30 5271 C 87.306 51.31 44.064 0
M  V30 5272 C 86.724 55.474 43.596 0
M  V30 5273 O 84.109 59.153 45.8 0
M  V30 5274 H 83.955 59.182 44.843 0
M  V30 5275 C 86.158 48.323 44.159 0
M  V30 5276 C 86.974 48.687 42.9 0
M  V30 5277 C 84.957 47.435 43.736 0
M  V30 5278 C 83.761 48.159 43.079 0
M  V30 5279 C 82.394 47.97 43.793 0
M  V30 5280 C 81.696 46.679 43.328 0
M  V30 5281 C 81.45 49.206 43.639 0
M  V30 5282 C 81.828 50.069 42.423 0
M  V30 5283 C 79.958 48.842 43.586 0
M  V30 5284 C 80.191 47.312 44.619 0
M  V30 5285 C 81.356 46.321 44.828 0
M  V30 5286 C 82.114 46.036 43.527 0
M  V30 5287 C 82.797 47.317 42.935 0
M  V30 5288 C 81.867 48.591 43.136 0
M  V30 5289 C 80.389 48.217 43.382 0
M  V30 5290 C 82.37 49.553 44.22 0
M  V30 5291 C 83.793 49.921 43.953 0
M  V30 5292 C 84.694 48.968 43.655 0
M  V30 5293 C 84.233 47.505 43.615 0
M  V30 5294 C 85.334 46.521 43.076 0
M  V30 5295 C 86.785 46.894 43.449 0
M  V30 5296 C 87.097 48.365 43.074 0
M  V30 5297 C 86.163 49.227 43.928 0
M  V30 5298 C 86.726 50.638 43.826 0
M  V30 5299 C 88.248 50.427 43.778 0
M  V30 5300 C 88.48 48.908 43.553 0
M  V30 5301 C 86.87 48.609 41.554 0
M  V30 5302 C 82.922 47.097 41.401 0
M  V30 5303 O 78.99 46.596 44.488 0
M  V30 5304 H 79.169 45.646 44.566 0
M  V30 5305 C 89.822 48.588 42.791 0
M  V30 5306 C 90.878 47.77 43.565 0
M  V30 5307 C 90.515 49.822 42.153 0
M  V30 5308 C 89.734 50.551 41.037 0
M  V30 5309 C 89.959 52.087 40.962 0
M  V30 5310 C 88.909 52.844 41.797 0
M  V30 5311 C 90.005 52.625 39.496 0
M  V30 5312 C 88.595 52.851 38.922 0
M  V30 5313 C 90.854 53.895 39.329 0
M  V30 5314 C 90.049 47.276 41.879 0
M  V30 5315 C 88.528 47.113 42.09 0
M  V30 5316 C 88.017 47.937 43.276 0
M  V30 5317 C 88.215 49.477 43.068 0
M  V30 5318 C 89.598 49.771 42.34 0
M  V30 5319 C 90.596 48.599 42.462 0
M  V30 5320 C 89.443 50.2 40.875 0
M  V30 5321 C 88.492 51.349 40.781 0
M  V30 5322 C 87.316 51.31 41.432 0
M  V30 5323 C 86.969 50.061 42.252 0
M  V30 5324 C 85.659 50.222 43.106 0
M  V30 5325 C 84.557 51.087 42.457 0
M  V30 5326 C 85.118 52.458 42.004 0
M  V30 5327 C 86.162 52.152 40.925 0
M  V30 5328 C 86.426 53.488 40.243 0
M  V30 5329 C 85.055 54.182 40.245 0
M  V30 5330 C 84.137 53.355 41.184 0
M  V30 5331 C 85.744 53.225 43.204 0
M  V30 5332 C 88.314 50.117 44.482 0
M  V30 5333 O 90.718 46.192 42.47 0
M  V30 5334 H 90.744 46.312 43.432 0
M  V30 5335 C 83.007 54.214 41.869 0
M  V30 5336 C 81.596 54.122 41.25 0
M  V30 5337 C 83.366 55.71 42.074 0
M  V30 5338 C 84.704 56.008 42.787 0
M  V30 5339 C 84.595 56.873 44.073 0
M  V30 5340 C 85.628 58.016 44.064 0
M  V30 5341 C 84.701 56.031 45.385 0
M  V30 5342 C 86.154 55.913 45.876 0
M  V30 5343 C 83.798 56.538 46.52 0
M  V30 5344 C 78.982 49.214 44.394 0
M  V30 5345 C 80.207 49.073 45.324 0
M  V30 5346 C 81.348 48.292 44.663 0
M  V30 5347 C 81.911 49.012 43.39 0
M  V30 5348 C 80.734 49.692 42.565 0
M  V30 5349 C 79.35 49.094 42.898 0
M  V30 5350 C 80.706 51.222 42.683 0
M  V30 5351 C 82.046 51.784 42.335 0
M  V30 5352 C 83.162 51.249 42.863 0
M  V30 5353 C 83.025 50.071 43.836 0
M  V30 5354 C 84.404 49.427 44.23 0
M  V30 5355 C 85.584 50.417 44.331 0
M  V30 5356 C 85.699 51.28 43.05 0
M  V30 5357 C 84.409 52.103 42.975 0
M  V30 5358 C 84.694 53.188 41.946 0
M  V30 5359 C 86.175 53.531 42.169 0
M  V30 5360 C 86.753 52.432 43.1 0
M  V30 5361 C 85.878 50.382 41.791 0
M  V30 5362 C 82.514 47.91 42.474 0
M  V30 5363 O 78.034 48.233 44.723 0
M  V30 5364 H 77.277 48.298 44.12 0
M  V30 5365 C 88.292 52.177 42.886 0
M  V30 5366 C 88.923 52.784 41.614 0
M  V30 5367 C 88.724 50.69 42.997 0
M  V30 5368 C 89.776 50.199 41.976 0
M  V30 5369 C 89.881 48.657 41.818 0
M  V30 5370 C 88.513 48.037 41.478 0
M  V30 5371 C 90.521 47.96 43.061 0
M  V30 5372 C 90.771 46.462 42.815 0
M  V30 5373 C 91.808 48.637 43.557 0
M  V30 5374 C 85.512 56.259 45.766 0
M  V30 5375 C 86.32 55.243 46.602 0
M  V30 5376 C 85.682 53.85 46.594 0
M  V30 5377 C 85.633 53.219 45.161 0
M  V30 5378 C 85.304 54.328 44.071 0
M  V30 5379 C 84.644 55.584 44.68 0
M  V30 5380 C 86.511 54.717 43.206 0
M  V30 5381 C 87.122 53.492 42.608 0
M  V30 5382 C 87.365 52.413 43.374 0
M  V30 5383 C 87.02 52.477 44.868 0
M  V30 5384 C 87.18 51.096 45.602 0
M  V30 5385 C 88.331 50.208 45.083 0
M  V30 5386 C 88.251 50.034 43.546 0
M  V30 5387 C 88.441 51.432 42.95 0
M  V30 5388 C 88.728 51.196 41.474 0
M  V30 5389 C 89.555 49.901 41.459 0
M  V30 5390 C 89.456 49.292 42.884 0
M  V30 5391 C 86.886 49.415 43.127 0
M  V30 5392 C 84.443 52.218 45.146 0
M  V30 5393 O 84.691 57.014 46.62 0
M  V30 5394 H 84.903 56.803 47.542 0
M  V30 5395 C 89.593 47.723 42.903 0
M  V30 5396 C 90.982 47.155 43.266 0
M  V30 5397 C 89.083 47.012 41.621 0
M  V30 5398 C 87.826 46.126 41.777 0
M  V30 5399 C 87.775 45.265 43.07 0
M  V30 5400 C 88.629 43.992 42.923 0
M  V30 5401 C 86.318 44.916 43.513 0
M  V30 5402 C 85.607 46.123 44.15 0
M  V30 5403 C 85.453 44.327 42.387 0
M  V30 5404 C 89.56 51.179 40.474 0
M  V30 5405 C 89.329 52.565 41.113 0
M  V30 5406 C 87.84 52.87 41.309 0
M  V30 5407 C 87.145 51.87 42.295 0
M  V30 5408 C 87.708 50.397 42.088 0
M  V30 5409 C 88.383 50.206 40.712 0
M  V30 5410 C 88.637 49.931 43.217 0
M  V30 5411 C 87.958 50.102 44.537 0
M  V30 5412 C 87.332 51.256 44.831 0
M  V30 5413 C 87.348 52.388 43.795 0
M  V30 5414 C 86.428 53.601 44.187 0
M  V30 5415 C 86.348 53.899 45.7 0
M  V30 5416 C 85.987 52.624 46.502 0
M  V30 5417 C 87.144 51.645 46.284 0
M  V30 5418 C 86.959 50.573 47.35 0
M  V30 5419 C 86.42 51.347 48.563 0
M  V30 5420 C 86.038 52.763 48.056 0
M  V30 5421 C 84.634 52.027 46.015 0
M  V30 5422 C 85.639 51.826 41.911 0
M  V30 5423 O 89.77 51.332 39.095 0
M  V30 5424 H 90.523 51.925 38.945 0
M  V30 5425 C 84.874 53.43 48.883 0
M  V30 5426 C 83.839 52.475 49.514 0
M  V30 5427 C 84.119 54.564 48.139 0
M  V30 5428 C 84.948 55.811 47.757 0
M  V30 5429 C 84.204 56.867 46.895 0
M  V30 5430 C 82.762 56.42 46.588 0
M  V30 5431 C 84.97 57.232 45.583 0
M  V30 5432 C 84.331 56.581 44.344 0
M  V30 5433 C 85.133 58.744 45.362 0
M  V30 5434 C 84.687 57.41 46.198 0
M  V30 5435 C 83.586 56.393 45.826 0
M  V30 5436 C 83.735 55.878 44.391 0
M  V30 5437 C 85.074 55.096 44.168 0
M  V30 5438 C 86.263 55.78 44.971 0
M  V30 5439 C 85.963 57.249 45.342 0
M  V30 5440 C 86.704 54.989 46.21 0
M  V30 5441 C 87.011 53.577 45.828 0
M  V30 5442 C 86.157 52.884 45.053 0
M  V30 5443 C 84.863 53.567 44.59 0
M  V30 5444 C 84.052 52.717 43.546 0
M  V30 5445 C 84.124 51.188 43.749 0
M  V30 5446 C 85.593 50.709 43.86 0
M  V30 5447 C 86.16 51.37 45.12 0
M  V30 5448 C 87.449 50.616 45.415 0
M  V30 5449 C 87.131 49.167 45.013 0
M  V30 5450 C 85.79 49.205 44.232 0
M  V30 5451 C 86.404 51.105 42.593 0
M  V30 5452 C 85.428 55.222 42.66 0
M  V30 5453 O 84.185 58.713 46.051 0
M  V30 5454 H 84.845 59.351 46.36 0
M  V30 5455 C 85.652 48.048 43.171 0
M  V30 5456 C 84.539 47.009 43.422 0
M  V30 5457 C 86.974 47.298 42.855 0
M  V30 5458 C 87.766 47.787 41.622 0
M  V30 5459 C 89.313 47.755 41.769 0
M  V30 5460 C 89.79 46.41 42.349 0
M  V30 5461 C 89.871 48.954 42.601 0
M  V30 5462 C 91.201 48.606 43.291 0
M  V30 5463 C 90.018 50.253 41.792 0
M  V30 5464 C 88.186 48.468 41.403 0
M  V30 5465 C 86.796 48.589 42.064 0
M  V30 5466 C 86.893 48.881 43.565 0
M  V30 5467 C 87.585 50.254 43.867 0
M  V30 5468 C 88.783 50.512 42.855 0
M  V30 5469 C 89.288 49.215 42.187 0
M  V30 5470 C 88.474 51.581 41.797 0
M  V30 5471 C 88.009 52.835 42.464 0
M  V30 5472 C 87.073 52.782 43.428 0
M  V30 5473 C 86.487 51.417 43.812 0
M  V30 5474 C 85.547 51.476 45.071 0
M  V30 5475 C 84.72 52.771 45.21 0
M  V30 5476 C 85.624 54.025 45.111 0
M  V30 5477 C 86.221 54.006 43.7 0
M  V30 5478 C 86.794 55.402 43.496 0
M  V30 5479 C 85.804 56.32 44.231 0
M  V30 5480 C 84.88 55.397 45.071 0
M  V30 5481 C 86.734 53.996 46.201 0
M  V30 5482 C 88.218 50.142 45.283 0
M  V30 5483 O 88.53 47.111 41.289 0
M  V30 5484 H 88.42 46.676 42.148 0
M  V30 5485 C 84.319 56.091 46.37 0
M  V30 5486 C 84.253 57.633 46.357 0
M  V30 5487 C 84.992 55.631 47.691 0
M  V30 5488 C 84.084 54.911 48.713 0
M  V30 5489 C 83.885 53.388 48.471 0
M  V30 5490 C 82.39 53.02 48.44 0
M  V30 5491 C 84.662 52.502 49.496 0
M  V30 5492 C 83.724 51.551 50.26 0
M  V30 5493 C 85.825 51.712 48.875 0
M  V30 5494 C 85.308 57.487 45.233 0
M  V30 5495 C 84.038 56.639 45.005 0
M  V30 5496 C 84.057 55.921 43.651 0
M  V30 5497 C 85.234 54.893 43.532 0
M  V30 5498 C 86.544 55.459 44.232 0
M  V30 5499 C 86.514 56.993 44.402 0
M  V30 5500 C 86.874 54.773 45.565 0
M  V30 5501 C 86.922 53.291 45.375 0
M  V30 5502 C 85.94 52.663 44.703 0
M  V30 5503 C 84.772 53.494 44.156 0
M  V30 5504 C 83.798 52.67 43.238 0
M  V30 5505 C 83.61 51.192 43.645 0
M  V30 5506 C 84.976 50.482 43.816 0
M  V30 5507 C 85.682 51.194 44.973 0
M  V30 5508 C 86.828 50.27 45.363 0
M  V30 5509 C 86.253 48.86 45.161 0
M  V30 5510 C 84.918 49.029 44.386 0
M  V30 5511 C 85.809 50.559 42.504 0
M  V30 5512 C 85.564 54.755 42.019 0
M  V30 5513 O 85.036 58.827 44.913 0
M  V30 5514 H 84.202 58.879 44.421 0
M  V30 5515 C 84.554 47.785 43.491 0
M  V30 5516 C 83.119 47.232 43.626 0
M  V30 5517 C 85.555 46.603 43.586 0
M  V30 5518 C 86.642 46.529 42.489 0
M  V30 5519 C 87.944 45.781 42.891 0
M  V30 5520 C 89.161 46.334 42.127 0
M  V30 5521 C 87.832 44.232 42.724 0
M  V30 5522 C 87.853 43.504 44.079 0
M  V30 5523 C 86.612 43.784 41.902 0
M  V30 5524 C 84.367 57.83 46.194 0
M  V30 5525 C 83.566 56.864 45.295 0
M  V30 5526 C 84.419 56.288 44.159 0
M  V30 5527 C 85.615 55.424 44.685 0
M  V30 5528 C 86.24 56.07 45.996 0
M  V30 5529 C 85.889 57.566 46.148 0
M  V30 5530 C 85.901 55.301 47.281 0
M  V30 5531 C 86.269 53.862 47.123 0
M  V30 5532 C 85.912 53.19 46.013 0
M  V30 5533 C 85.11 53.926 44.932 0
M  V30 5534 C 84.922 53.085 43.618 0
M  V30 5535 C 84.772 51.563 43.83 0
M  V30 5536 C 85.922 51.006 44.707 0
M  V30 5537 C 85.776 51.681 46.074 0
M  V30 5538 C 86.658 50.867 47.011 0
M  V30 5539 C 86.505 49.424 46.504 0
M  V30 5540 C 85.789 49.508 45.129 0
M  V30 5541 C 87.306 51.31 44.064 0
M  V30 5542 C 86.724 55.474 43.596 0
M  V30 5543 O 84.109 59.153 45.8 0
M  V30 5544 H 83.955 59.182 44.843 0
M  V30 5545 C 86.158 48.323 44.159 0
M  V30 5546 C 86.974 48.687 42.9 0
M  V30 5547 C 84.957 47.435 43.736 0
M  V30 5548 C 83.761 48.159 43.079 0
M  V30 5549 C 82.394 47.97 43.793 0
M  V30 5550 C 81.696 46.679 43.328 0
M  V30 5551 C 81.45 49.206 43.639 0
M  V30 5552 C 81.828 50.069 42.423 0
M  V30 5553 C 79.958 48.842 43.586 0
M  V30 5554 C 80.191 47.312 44.619 0
M  V30 5555 C 81.356 46.321 44.828 0
M  V30 5556 C 82.114 46.036 43.527 0
M  V30 5557 C 82.797 47.317 42.935 0
M  V30 5558 C 81.867 48.591 43.136 0
M  V30 5559 C 80.389 48.217 43.382 0
M  V30 5560 C 82.37 49.553 44.22 0
M  V30 5561 C 83.793 49.921 43.953 0
M  V30 5562 C 84.694 48.968 43.655 0
M  V30 5563 C 84.233 47.505 43.615 0
M  V30 5564 C 85.334 46.521 43.076 0
M  V30 5565 C 86.785 46.894 43.449 0
M  V30 5566 C 87.097 48.365 43.074 0
M  V30 5567 C 86.163 49.227 43.928 0
M  V30 5568 C 86.726 50.638 43.826 0
M  V30 5569 C 88.248 50.427 43.778 0
M  V30 5570 C 88.48 48.908 43.553 0
M  V30 5571 C 86.87 48.609 41.554 0
M  V30 5572 C 82.922 47.097 41.401 0
M  V30 5573 O 78.99 46.596 44.488 0
M  V30 5574 H 79.169 45.646 44.566 0
M  V30 5575 C 89.822 48.588 42.791 0
M  V30 5576 C 90.878 47.77 43.565 0
M  V30 5577 C 90.515 49.822 42.153 0
M  V30 5578 C 89.734 50.551 41.037 0
M  V30 5579 C 89.959 52.087 40.962 0
M  V30 5580 C 88.909 52.844 41.797 0
M  V30 5581 C 90.005 52.625 39.496 0
M  V30 5582 C 88.595 52.851 38.922 0
M  V30 5583 C 90.854 53.895 39.329 0
M  V30 5584 C 90.049 47.276 41.879 0
M  V30 5585 C 88.528 47.113 42.09 0
M  V30 5586 C 88.017 47.937 43.276 0
M  V30 5587 C 88.215 49.477 43.068 0
M  V30 5588 C 89.598 49.771 42.34 0
M  V30 5589 C 90.596 48.599 42.462 0
M  V30 5590 C 89.443 50.2 40.875 0
M  V30 5591 C 88.492 51.349 40.781 0
M  V30 5592 C 87.316 51.31 41.432 0
M  V30 5593 C 86.969 50.061 42.252 0
M  V30 5594 C 85.659 50.222 43.106 0
M  V30 5595 C 84.557 51.087 42.457 0
M  V30 5596 C 85.118 52.458 42.004 0
M  V30 5597 C 86.162 52.152 40.925 0
M  V30 5598 C 86.426 53.488 40.243 0
M  V30 5599 C 85.055 54.182 40.245 0
M  V30 5600 C 84.137 53.355 41.184 0
M  V30 5601 C 85.744 53.225 43.204 0
M  V30 5602 C 88.314 50.117 44.482 0
M  V30 5603 O 90.718 46.192 42.47 0
M  V30 5604 H 90.744 46.312 43.432 0
M  V30 5605 C 83.007 54.214 41.869 0
M  V30 5606 C 81.596 54.122 41.25 0
M  V30 5607 C 83.366 55.71 42.074 0
M  V30 5608 C 84.704 56.008 42.787 0
M  V30 5609 C 84.595 56.873 44.073 0
M  V30 5610 C 85.628 58.016 44.064 0
M  V30 5611 C 84.701 56.031 45.385 0
M  V30 5612 C 86.154 55.913 45.876 0
M  V30 5613 C 83.798 56.538 46.52 0
M  V30 5614 C 78.982 49.214 44.394 0
M  V30 5615 C 80.207 49.073 45.324 0
M  V30 5616 C 81.348 48.292 44.663 0
M  V30 5617 C 81.911 49.012 43.39 0
M  V30 5618 C 80.734 49.692 42.565 0
M  V30 5619 C 79.35 49.094 42.898 0
M  V30 5620 C 80.706 51.222 42.683 0
M  V30 5621 C 82.046 51.784 42.335 0
M  V30 5622 C 83.162 51.249 42.863 0
M  V30 5623 C 83.025 50.071 43.836 0
M  V30 5624 C 84.404 49.427 44.23 0
M  V30 5625 C 85.584 50.417 44.331 0
M  V30 5626 C 85.699 51.28 43.05 0
M  V30 5627 C 84.409 52.103 42.975 0
M  V30 5628 C 84.694 53.188 41.946 0
M  V30 5629 C 86.175 53.531 42.169 0
M  V30 5630 C 86.753 52.432 43.1 0
M  V30 5631 C 85.878 50.382 41.791 0
M  V30 5632 C 82.514 47.91 42.474 0
M  V30 5633 O 78.034 48.233 44.723 0
M  V30 5634 H 77.277 48.298 44.12 0
M  V30 5635 C 88.292 52.177 42.886 0
M  V30 5636 C 88.923 52.784 41.614 0
M  V30 5637 C 88.724 50.69 42.997 0
M  V30 5638 C 89.776 50.199 41.976 0
M  V30 5639 C 89.881 48.657 41.818 0
M  V30 5640 C 88.513 48.037 41.478 0
M  V30 5641 C 90.521 47.96 43.061 0
M  V30 5642 C 90.771 46.462 42.815 0
M  V30 5643 C 91.808 48.637 43.557 0
M  V30 5644 C 89.465 49.78 42.565 0
M  V30 5645 C 89.577 50.57 41.238 0
M  V30 5646 C 88.69 51.82 41.402 0
M  V30 5647 C 88.243 51.778 42.86 0
M  V30 5648 C 88.14 50.283 43.196 0
M  V30 5649 C 86.905 49.587 42.541 0
M  V30 5650 C 88.065 50.162 44.734 0
M  V30 5651 C 86.849 50.937 45.293 0
M  V30 5652 C 86.784 52.426 44.817 0
M  V30 5653 C 86.998 52.589 43.28 0
M  V30 5654 C 87.191 54.078 42.951 0
M  V30 5655 C 86.16 54.96 43.599 0
M  V30 5656 C 85.496 54.631 44.731 0
M  V30 5657 C 85.498 53.201 45.299 0
M  V30 5658 C 84.196 52.495 44.829 0
M  V30 5659 C 85.506 53.277 46.859 0
M  V30 5660 C 84.481 54.262 47.437 0
M  V30 5661 C 84.698 55.669 46.875 0
M  V30 5662 C 84.57 55.664 45.348 0
M  V30 5663 C 89.712 48.236 42.498 0
M  V30 5664 C 90.609 47.867 41.305 0
M  V30 5665 C 88.439 46.083 42.099 0
M  V30 5666 C 88.479 47.35 42.545 0
M  V30 5667 C 87.183 45.241 42.23 0
M  V30 5668 C 87.527 43.833 42.81 0
M  V30 5669 C 86.575 43.424 43.943 0
M  V30 5670 C 88.989 43.706 43.267 0
M  V30 5671 C 84.758 46.042 42.328 0
M  V30 5672 C 86.106 45.994 43.051 0
M  V30 5673 O 83.743 56.537 47.429 0
M  V30 5674 H 82.903 56.436 46.953 0
M  V30 5675 C 85.909 49.348 44.146 0
M  V30 5676 C 86.529 49.079 45.539 0
M  V30 5677 C 86.65 50.452 46.23 0
M  V30 5678 C 85.951 51.418 45.28 0
M  V30 5679 C 86.21 50.847 43.878 0
M  V30 5680 C 87.681 51.047 43.393 0
M  V30 5681 C 85.23 51.544 42.909 0
M  V30 5682 C 85.432 53.078 42.924 0
M  V30 5683 C 85.382 53.7 44.359 0
M  V30 5684 C 86.257 52.926 45.394 0
M  V30 5685 C 85.934 53.434 46.809 0
M  V30 5686 C 85.92 54.934 46.904 0
M  V30 5687 C 85.672 55.751 45.855 0
M  V30 5688 C 85.683 55.247 44.401 0
M  V30 5689 C 87.073 55.575 43.789 0
M  V30 5690 C 84.577 56.001 43.596 0
M  V30 5691 C 84.579 57.521 43.814 0
M  V30 5692 C 84.424 57.86 45.299 0
M  V30 5693 C 85.567 57.243 46.113 0
M  V30 5694 C 86.229 48.317 43.012 0
M  V30 5695 C 85.265 47.12 43.062 0
M  V30 5696 C 88.335 47.698 41.749 0
M  V30 5697 C 87.671 47.851 42.908 0
M  V30 5698 C 89.794 47.279 41.728 0
M  V30 5699 C 90.721 48.521 41.911 0
M  V30 5700 C 91.153 48.713 43.372 0
M  V30 5701 C 90.112 49.819 41.357 0
M  V30 5702 C 89.153 44.946 42.553 0
M  V30 5703 C 90.055 46.162 42.771 0
M  V30 5704 O 84.43 59.256 45.454 0
M  V30 5705 H 83.747 59.645 44.887 0
M  V30 5706 C 86.206 49.646 45.284 0
M  V30 5707 C 86.779 49.583 46.721 0
M  V30 5708 C 86.816 51.035 47.236 0
M  V30 5709 C 86.116 51.841 46.147 0
M  V30 5710 C 86.456 51.111 44.839 0
M  V30 5711 C 87.935 51.316 44.384 0
M  V30 5712 C 85.487 51.636 43.756 0
M  V30 5713 C 85.625 53.167 43.583 0
M  V30 5714 C 85.491 53.961 44.925 0
M  V30 5715 C 86.355 53.365 46.079 0
M  V30 5716 C 85.955 54.031 47.406 0
M  V30 5717 C 85.875 55.529 47.309 0
M  V30 5718 C 85.636 56.195 46.156 0
M  V30 5719 C 85.726 55.513 44.78 0
M  V30 5720 C 87.126 55.826 44.18 0
M  V30 5721 C 84.624 56.109 43.847 0
M  V30 5722 C 84.554 57.642 43.87 0
M  V30 5723 C 84.325 58.158 45.293 0
M  V30 5724 C 85.459 57.701 46.218 0
M  V30 5725 C 86.613 48.497 44.303 0
M  V30 5726 C 87.108 49.062 42.96 0
M  V30 5727 C 84.298 47.613 43.782 0
M  V30 5728 C 85.589 47.396 44.085 0
M  V30 5729 C 83.345 46.46 43.525 0
M  V30 5730 C 81.916 46.994 43.198 0
M  V30 5731 C 81.729 48.456 43.631 0
M  V30 5732 C 80.794 46.119 43.778 0
M  V30 5733 C 84.478 44.225 43.018 0
M  V30 5734 C 83.911 45.519 42.431 0
M  V30 5735 O 84.268 59.561 45.269 0
M  V30 5736 H 83.579 59.865 45.881 0
M  V30 5737 C 85.479 53.237 42.476 0
M  V30 5738 C 86.986 53.588 42.431 0
M  V30 5739 C 87.744 52.246 42.477 0
M  V30 5740 C 86.649 51.189 42.382 0
M  V30 5741 C 85.438 51.813 43.091 0
M  V30 5742 C 85.593 51.866 44.644 0
M  V30 5743 C 84.199 50.974 42.708 0
M  V30 5744 C 84.379 49.495 43.125 0
M  V30 5745 C 85.707 48.856 42.599 0
M  V30 5746 C 86.961 49.751 42.849 0
M  V30 5747 C 88.155 49.179 42.069 0
M  V30 5748 C 88.32 47.696 42.253 0
M  V30 5749 C 87.306 46.863 42.582 0
M  V30 5750 C 85.952 47.38 43.098 0
M  V30 5751 C 85.966 47.295 44.649 0
M  V30 5752 C 84.816 46.462 42.544 0
M  V30 5753 C 85.101 44.961 42.697 0
M  V30 5754 C 86.417 44.583 42.012 0
M  V30 5755 C 87.584 45.371 42.618 0
M  V30 5756 C 84.512 54.32 43.059 0
M  V30 5757 C 83.677 54.977 41.946 0
M  V30 5758 C 85.025 55.381 45.301 0
M  V30 5759 C 85.136 55.371 43.961 0
M  V30 5760 C 85.723 56.435 46.141 0
M  V30 5761 C 84.735 57.587 46.504 0
M  V30 5762 C 83.291 57.088 46.654 0
M  V30 5763 C 84.793 58.768 45.522 0
M  V30 5764 C 85.877 54.37 47.639 0
M  V30 5765 C 86.39 55.788 47.382 0
M  V30 5766 O 86.639 43.206 42.175 0
M  V30 5767 H 87.593 43.034 42.199 0
M  V30 5768 C 85.194 52.615 46.276 0
M  V30 5769 C 83.847 52.242 45.61 0
M  V30 5770 C 84.163 51.135 44.585 0
M  V30 5771 C 85.634 50.809 44.821 0
M  V30 5772 C 86.265 52.139 45.259 0
M  V30 5773 C 86.425 53.161 44.09 0
M  V30 5774 C 87.644 51.812 45.874 0
M  V30 5775 C 88.549 51.085 44.851 0
M  V30 5776 C 87.878 49.825 44.21 0
M  V30 5777 C 86.425 50.092 43.707 0
M  V30 5778 C 85.759 48.753 43.351 0
M  V30 5779 C 86.631 47.872 42.5 0
M  V30 5780 C 87.982 47.944 42.483 0
M  V30 5781 C 88.749 49.129 43.094 0
M  V30 5782 C 89.101 50.116 41.947 0
M  V30 5783 C 90.07 48.599 43.739 0
M  V30 5784 C 90.859 47.64 42.836 0
M  V30 5785 C 89.996 46.443 42.425 0
M  V30 5786 C 88.747 46.914 41.672 0
M  V30 5787 C 85.323 54.061 46.861 0
M  V30 5788 C 84.937 54.095 48.35 0
M  V30 5789 C 85.179 55.858 45.082 0
M  V30 5790 C 84.622 55.168 46.093 0
M  V30 5791 C 84.395 56.915 44.326 0
M  V30 5792 C 84.932 58.34 44.666 0
M  V30 5793 C 86.395 58.528 44.237 0
M  V30 5794 C 84.756 58.718 46.146 0
M  V30 5795 C 83.687 55.291 42.483 0
M  V30 5796 C 84.395 56.609 42.806 0
M  V30 5797 O 90.754 45.594 41.603 0
M  V30 5798 H 90.389 44.696 41.645 0
M  V30 5799 C 86.761 53.739 42.619 0
M  V30 5800 C 88.231 53.59 42.157 0
M  V30 5801 C 88.506 52.075 42.074 0
M  V30 5802 C 87.149 51.429 42.33 0
M  V30 5803 C 86.436 52.383 43.3 0
M  V30 5804 C 87.01 52.329 44.751 0
M  V30 5805 C 84.94 51.999 43.304 0
M  V30 5806 C 84.746 50.527 43.739 0
M  V30 5807 C 85.609 49.514 42.915 0
M  V30 5808 C 87.101 49.951 42.775 0
M  V30 5809 C 87.796 49.055 41.738 0
M  V30 5810 C 87.524 47.591 41.953 0
M  V30 5811 C 86.426 47.116 42.583 0
M  V30 5812 C 85.497 48.021 43.41 0
M  V30 5813 C 85.899 47.883 44.905 0
M  V30 5814 C 84.023 47.536 43.228 0
M  V30 5815 C 83.847 46.019 43.381 0
M  V30 5816 C 84.74 45.262 42.393 0
M  V30 5817 C 86.214 45.613 42.624 0
M  V30 5818 C 86.382 55.054 43.378 0
M  V30 5819 C 87.619 55.698 44.027 0
M  V30 5820 C 85.307 55.364 45.651 0
M  V30 5821 C 85.236 54.958 44.371 0
M  V30 5822 C 84.102 55.286 46.569 0
M  V30 5823 C 84.475 54.557 47.898 0
M  V30 5824 C 85.929 54.064 47.902 0
M  V30 5825 C 83.519 53.406 48.248 0
M  V30 5826 C 84.413 57.806 46.282 0
M  V30 5827 C 83.495 56.694 46.794 0
M  V30 5828 O 84.548 43.882 42.566 0
M  V30 5829 H 83.741 43.731 43.082 0
M  V30 5830 C 86.443 49.605 44.659 0
M  V30 5831 C 86.974 49.453 46.106 0
M  V30 5832 C 86.965 50.868 46.72 0
M  V30 5833 C 86.284 51.734 45.666 0
M  V30 5834 C 86.678 51.101 44.323 0
M  V30 5835 C 88.165 51.363 43.93 0
M  V30 5836 C 85.732 51.681 43.247 0
M  V30 5837 C 85.845 53.222 43.183 0
M  V30 5838 C 85.654 53.921 44.57 0
M  V30 5839 C 86.494 53.262 45.709 0
M  V30 5840 C 86.04 53.829 47.064 0
M  V30 5841 C 85.933 55.328 47.066 0
M  V30 5842 C 85.717 56.067 45.954 0
M  V30 5843 C 85.862 55.483 44.538 0
M  V30 5844 C 87.273 55.861 44.006 0
M  V30 5845 C 84.777 56.121 43.614 0
M  V30 5846 C 84.677 57.648 43.738 0
M  V30 5847 C 84.394 58.061 45.185 0
M  V30 5848 C 85.508 57.563 46.113 0
M  V30 5849 C 86.904 48.533 43.616 0
M  V30 5850 C 87.04 49.146 42.212 0
M  V30 5851 C 86.493 46.131 42.924 0
M  V30 5852 C 86.102 47.243 43.57 0
M  V30 5853 C 85.662 44.862 42.969 0
M  V30 5854 C 86.584 43.61 43.106 0
M  V30 5855 C 87.644 43.787 44.204 0
M  V30 5856 C 87.249 43.199 41.783 0
M  V30 5857 C 83.269 45.534 43.564 0
M  V30 5858 C 84.587 44.954 44.082 0
M  V30 5859 O 84.309 59.461 45.255 0
M  V30 5860 H 83.433 59.714 45.583 0
M  V30 5861 C 85.279 53.377 43.387 0
M  V30 5862 C 84.529 54.174 42.293 0
M  V30 5863 C 83.266 53.359 41.953 0
M  V30 5864 C 83.261 52.225 42.973 0
M  V30 5865 C 84.745 51.928 43.237 0
M  V30 5866 C 85.446 51.19 42.053 0
M  V30 5867 C 84.82 51.07 44.519 0
M  V30 5868 C 84.018 49.758 44.357 0
M  V30 5869 C 82.542 49.983 43.888 0
M  V30 5870 C 82.425 50.961 42.677 0
M  V30 5871 C 80.949 51.331 42.466 0
M  V30 5872 C 80.037 50.135 42.475 0
M  V30 5873 C 80.327 48.976 43.108 0
M  V30 5874 C 81.74 48.652 43.624 0
M  V30 5875 C 82.445 47.76 42.564 0
M  V30 5876 C 81.619 47.858 44.964 0
M  V30 5877 C 80.607 46.705 44.913 0
M  V30 5878 C 79.219 47.214 44.517 0
M  V30 5879 C 79.267 47.89 43.141 0
M  V30 5880 C 86.827 53.585 43.487 0
M  V30 5881 C 87.182 55.079 43.577 0
M  V30 5882 C 88.604 51.957 42.708 0
M  V30 5883 C 87.674 52.888 42.436 0
M  V30 5884 C 89.373 51.265 41.598 0
M  V30 5885 C 89.319 49.716 41.78 0
M  V30 5886 C 88.514 49.304 43.021 0
M  V30 5887 C 90.709 49.059 41.802 0
M  V30 5888 C 89.855 52.685 39.528 0
M  V30 5889 C 88.868 51.735 40.21 0
M  V30 5890 O 78.326 46.131 44.482 0
M  V30 5891 H 77.479 46.424 44.111 0
M  V30 5892 C 84.379 53.213 43.173 0
M  V30 5893 C 83.21 52.293 42.743 0
M  V30 5894 C 83.83 50.91 42.461 0
M  V30 5895 C 85.285 51.051 42.895 0
M  V30 5896 C 85.641 52.516 42.601 0
M  V30 5897 C 85.809 52.816 41.078 0
M  V30 5898 C 86.954 52.829 43.353 0
M  V30 5899 C 88.092 51.885 42.9 0
M  V30 5900 C 87.715 50.368 42.983 0
M  V30 5901 C 86.324 50.046 42.353 0
M  V30 5902 C 85.923 48.609 42.721 0
M  V30 5903 C 87.028 47.615 42.493 0
M  V30 5904 C 88.341 47.939 42.499 0
M  V30 5905 C 88.829 49.397 42.433 0
M  V30 5906 C 89.187 49.717 40.955 0
M  V30 5907 C 90.11 49.543 43.315 0
M  V30 5908 C 91.153 48.441 43.079 0
M  V30 5909 C 90.547 47.055 43.318 0
M  V30 5910 C 89.359 46.819 42.377 0
M  V30 5911 C 84.206 54.748 42.922 0
M  V30 5912 C 84.466 55.104 41.448 0
M  V30 5913 C 85.093 55.494 45.174 0
M  V30 5914 C 84.973 55.677 43.848 0
M  V30 5915 C 85.922 56.436 46.027 0
M  V30 5916 C 85.118 57.736 46.344 0
M  V30 5917 C 83.659 57.44 46.72 0
M  V30 5918 C 85.179 58.777 45.214 0
M  V30 5919 C 85.732 54.372 47.522 0
M  V30 5920 C 86.436 55.711 47.297 0
M  V30 5921 O 91.531 46.079 43.093 0
M  V30 5922 H 92.409 46.477 43.203 0
M  V30 END ATOM
M  V30 BEGIN BOND
M  V30 1 1 1 19
M  V30 2 1 1 6
M  V30 3 2 2 1
M  V30 4 1 3 2
M  V30 5 1 22 2
M  V30 6 2 3 4
M  V30 7 1 20 3
M  V30 8 1 4 5
M  V30 9 1 10 4
M  V30 10 1 5 7
M  V30 11 2 5 6
M  V30 12 1 6 40
M  V30 13 1 8 7
M  V30 14 1 8 12 CFG=6
M  V30 15 1 9 8
M  V30 16 1 10 9
M  V30 17 2 11 10
M  V30 18 1 12 13
M  V30 19 2 17 12
M  V30 20 2 13 14
M  V30 21 1 15 14
M  V30 22 2 16 15
M  V30 23 1 17 16
M  V30 24 1 19 18
M  V30 25 1 21 20
M  V30 26 1 22 23
M  V30 27 1 23 24
M  V30 28 2 28 23
M  V30 29 2 24 25
M  V30 30 1 25 31
M  V30 31 1 26 25
M  V30 32 2 27 26
M  V30 33 1 28 27
M  V30 34 1 29 28
M  V30 35 1 30 29
M  V30 36 1 31 32
M  V30 37 2 32 33
M  V30 38 1 32 37
M  V30 39 1 33 34
M  V30 40 2 34 35
M  V30 41 1 36 35
M  V30 42 2 37 36
M  V30 43 1 38 37
M  V30 44 1 38 39
M  V30 45 1 41 40
M  V30 46 1 41 46
M  V30 47 2 42 41
M  V30 48 1 43 42
M  V30 49 2 43 44
M  V30 50 1 49 43
M  V30 51 1 44 45
M  V30 52 2 45 46
M  V30 53 1 46 47
M  V30 54 1 47 48
M  V30 55 1 49 50
M  V30 56 1 50 51
M  V30 57 2 55 50
M  V30 58 2 51 52
M  V30 59 1 53 52
M  V30 60 2 54 53
M  V30 61 1 55 54
M  V30 62 1 56 55
M  V30 63 1 56 57
M  V30 64 1 58 76
M  V30 65 1 58 63
M  V30 66 2 59 58
M  V30 67 1 60 59
M  V30 68 1 79 59
M  V30 69 2 60 61
M  V30 70 1 77 60
M  V30 71 1 61 62
M  V30 72 1 67 61
M  V30 73 1 62 64
M  V30 74 2 62 63
M  V30 75 1 63 97
M  V30 76 1 65 64
M  V30 77 1 65 69 CFG=6
M  V30 78 1 66 65
M  V30 79 1 67 66
M  V30 80 2 68 67
M  V30 81 2 69 74
M  V30 82 1 69 70
M  V30 83 2 70 71
M  V30 84 1 71 72
M  V30 85 2 73 72
M  V30 86 1 74 73
M  V30 87 1 75 76
M  V30 88 1 77 78
M  V30 89 1 79 80
M  V30 90 1 80 81
M  V30 91 2 85 80
M  V30 92 2 81 82
M  V30 93 1 82 88
M  V30 94 1 83 82
M  V30 95 2 84 83
M  V30 96 1 85 84
M  V30 97 1 86 85
M  V30 98 1 87 86
M  V30 99 1 88 89
M  V30 100 2 89 90
M  V30 101 1 89 94
M  V30 102 1 90 91
M  V30 103 2 91 92
M  V30 104 1 92 93
M  V30 105 2 94 93
M  V30 106 1 94 95
M  V30 107 1 96 95
M  V30 108 1 98 97
M  V30 109 1 98 103
M  V30 110 2 99 98
M  V30 111 1 100 99
M  V30 112 2 100 101
M  V30 113 1 106 100
M  V30 114 1 101 102
M  V30 115 2 102 103
M  V30 116 1 103 104
M  V30 117 1 104 105
M  V30 118 1 106 107
M  V30 119 2 107 112
M  V30 120 1 107 108
M  V30 121 2 108 109
M  V30 122 1 109 110
M  V30 123 2 111 110
M  V30 124 1 112 111
M  V30 125 1 113 112
M  V30 126 1 113 114
M  V30 127 2 115 116
M  V30 128 1 115 120
M  V30 129 1 133 115
M  V30 130 1 116 117
M  V30 131 1 136 116
M  V30 132 1 117 134
M  V30 133 2 117 118
M  V30 134 1 118 124
M  V30 135 1 119 118
M  V30 136 1 119 121
M  V30 137 2 120 119
M  V30 138 1 154 120
M  V30 139 1 121 122
M  V30 140 1 122 123
M  V30 141 1 122 126 CFG=1
M  V30 142 1 124 123
M  V30 143 2 124 125
M  V30 144 1 126 131
M  V30 145 2 127 126
M  V30 146 1 127 128
M  V30 147 2 128 129
M  V30 148 1 129 130
M  V30 149 2 131 130
M  V30 150 1 132 133
M  V30 151 1 135 134
M  V30 152 1 136 137
M  V30 153 1 137 142
M  V30 154 2 138 137
M  V30 155 1 138 139
M  V30 156 2 139 140
M  V30 157 1 145 139
M  V30 158 1 140 141
M  V30 159 2 142 141
M  V30 160 1 142 143
M  V30 161 1 143 144
M  V30 162 1 145 146
M  V30 163 1 146 151
M  V30 164 2 147 146
M  V30 165 1 147 148
M  V30 166 2 148 149
M  V30 167 1 149 150
M  V30 168 2 151 150
M  V30 169 1 151 152
M  V30 170 1 152 153
M  V30 171 1 155 154
M  V30 172 1 155 160
M  V30 173 2 156 155
M  V30 174 1 157 156
M  V30 175 2 157 158
M  V30 176 1 163 157
M  V30 177 1 158 159
M  V30 178 2 159 160
M  V30 179 1 160 161
M  V30 180 1 162 161
M  V30 181 1 163 164
M  V30 182 2 164 169
M  V30 183 1 164 165
M  V30 184 2 165 166
M  V30 185 1 166 167
M  V30 186 2 168 167
M  V30 187 1 169 168
M  V30 188 1 170 169
M  V30 189 1 170 171
M  V30 190 2 172 177
M  V30 191 1 172 173
M  V30 192 1 190 172
M  V30 193 1 173 193
M  V30 194 2 173 174
M  V30 195 1 174 191
M  V30 196 1 175 174
M  V30 197 1 175 181
M  V30 198 2 176 175
M  V30 199 1 176 178
M  V30 200 1 177 176
M  V30 201 1 211 177
M  V30 202 1 178 179
M  V30 203 1 179 183 CFG=6
M  V30 204 1 179 180
M  V30 205 1 180 181
M  V30 206 2 181 182
M  V30 207 1 183 184
M  V30 208 2 188 183
M  V30 209 2 185 184
M  V30 210 1 186 185
M  V30 211 2 187 186
M  V30 212 1 187 188
M  V30 213 1 190 189
M  V30 214 1 191 192
M  V30 215 1 194 193
M  V30 216 1 194 199
M  V30 217 2 195 194
M  V30 218 1 196 195
M  V30 219 2 196 197
M  V30 220 1 202 196
M  V30 221 1 197 198
M  V30 222 2 198 199
M  V30 223 1 199 200
M  V30 224 1 200 201
M  V30 225 1 202 203
M  V30 226 1 203 204
M  V30 227 2 208 203
M  V30 228 2 204 205
M  V30 229 1 206 205
M  V30 230 2 207 206
M  V30 231 1 208 207
M  V30 232 1 209 208
M  V30 233 1 210 209
M  V30 234 1 212 211
M  V30 235 2 213 212
M  V30 236 1 217 212
M  V30 237 1 214 213
M  V30 238 2 215 214
M  V30 239 1 220 214
M  V30 240 1 215 216
M  V30 241 2 216 217
M  V30 242 1 217 218
M  V30 243 1 219 218
M  V30 244 1 220 221
M  V30 245 1 221 222
M  V30 246 2 226 221
M  V30 247 2 222 223
M  V30 248 1 224 223
M  V30 249 2 225 224
M  V30 250 1 226 225
M  V30 251 1 227 226
M  V30 252 1 228 227
M  V30 253 1 229 247
M  V30 254 1 230 229
M  V30 255 2 234 229
M  V30 256 1 230 250
M  V30 257 2 231 230
M  V30 258 1 232 231
M  V30 259 1 248 231
M  V30 260 2 233 232
M  V30 261 1 238 232
M  V30 262 1 233 234
M  V30 263 1 235 233
M  V30 264 1 234 268
M  V30 265 1 236 235
M  V30 266 1 236 240 CFG=1
M  V30 267 1 236 237
M  V30 268 1 237 238
M  V30 269 2 238 239
M  V30 270 1 240 241
M  V30 271 2 245 240
M  V30 272 2 242 241
M  V30 273 1 243 242
M  V30 274 2 244 243
M  V30 275 1 244 245
M  V30 276 1 247 246
M  V30 277 1 249 248
M  V30 278 1 251 250
M  V30 279 1 252 251
M  V30 280 2 256 251
M  V30 281 2 253 252
M  V30 282 1 254 253
M  V30 283 1 259 253
M  V30 284 2 254 255
M  V30 285 1 255 256
M  V30 286 1 256 257
M  V30 287 1 258 257
M  V30 288 1 260 259
M  V30 289 1 260 265
M  V30 290 2 261 260
M  V30 291 1 262 261
M  V30 292 2 262 263
M  V30 293 1 263 264
M  V30 294 2 264 265
M  V30 295 1 265 266
M  V30 296 1 266 267
M  V30 297 1 268 269
M  V30 298 1 269 270
M  V30 299 2 274 269
M  V30 300 2 270 271
M  V30 301 1 271 277
M  V30 302 1 272 271
M  V30 303 2 273 272
M  V30 304 1 274 273
M  V30 305 1 275 274
M  V30 306 1 276 275
M  V30 307 1 277 278
M  V30 308 2 278 283
M  V30 309 1 278 279
M  V30 310 2 279 280
M  V30 311 1 280 281
M  V30 312 2 282 281
M  V30 313 1 283 282
M  V30 314 1 284 283
M  V30 315 1 284 285
M  V30 316 1 286 291
M  V30 317 1 286 304
M  V30 318 2 287 286
M  V30 319 1 288 287
M  V30 320 1 307 287
M  V30 321 2 288 289
M  V30 322 1 305 288
M  V30 323 1 289 290
M  V30 324 1 295 289
M  V30 325 1 290 292
M  V30 326 2 290 291
M  V30 327 1 291 325
M  V30 328 1 293 292
M  V30 329 1 293 294
M  V30 330 1 293 297 CFG=1
M  V30 331 1 295 294
M  V30 332 2 296 295
M  V30 333 1 297 298
M  V30 334 2 302 297
M  V30 335 2 298 299
M  V30 336 1 300 299
M  V30 337 2 301 300
M  V30 338 1 302 301
M  V30 339 1 304 303
M  V30 340 1 306 305
M  V30 341 1 308 307
M  V30 342 1 308 313
M  V30 343 2 309 308
M  V30 344 1 310 309
M  V30 345 2 310 311
M  V30 346 1 316 310
M  V30 347 1 311 312
M  V30 348 2 312 313
M  V30 349 1 313 314
M  V30 350 1 314 315
M  V30 351 1 316 317
M  V30 352 1 317 318
M  V30 353 2 322 317
M  V30 354 2 318 319
M  V30 355 1 320 319
M  V30 356 2 321 320
M  V30 357 1 322 321
M  V30 358 1 323 322
M  V30 359 1 324 323
M  V30 360 1 325 326
M  V30 361 2 326 327
M  V30 362 1 326 331
M  V30 363 1 327 328
M  V30 364 1 328 334
M  V30 365 2 328 329
M  V30 366 1 330 329
M  V30 367 2 331 330
M  V30 368 1 332 331
M  V30 369 1 333 332
M  V30 370 1 335 334
M  V30 371 2 336 335
M  V30 372 1 340 335
M  V30 373 1 337 336
M  V30 374 2 338 337
M  V30 375 1 338 339
M  V30 376 2 339 340
M  V30 377 1 340 341
M  V30 378 1 341 342
M  V30 379 1 343 361
M  V30 380 2 344 343
M  V30 381 1 348 343
M  V30 382 1 345 344
M  V30 383 1 364 344
M  V30 384 2 345 346
M  V30 385 1 362 345
M  V30 386 1 346 347
M  V30 387 1 352 346
M  V30 388 2 347 348
M  V30 389 1 349 347
M  V30 390 1 348 382
M  V30 391 1 350 349
M  V30 392 1 350 354 CFG=1
M  V30 393 1 351 350
M  V30 394 1 352 351
M  V30 395 2 353 352
M  V30 396 1 354 355
M  V30 397 2 359 354
M  V30 398 2 355 356
M  V30 399 1 357 356
M  V30 400 2 358 357
M  V30 401 1 359 358
M  V30 402 1 361 360
M  V30 403 1 363 362
M  V30 404 1 364 365
M  V30 405 1 365 366
M  V30 406 2 370 365
M  V30 407 2 366 367
M  V30 408 1 367 373
M  V30 409 1 368 367
M  V30 410 2 369 368
M  V30 411 1 370 369
M  V30 412 1 371 370
M  V30 413 1 371 372
M  V30 414 1 373 374
M  V30 415 2 374 375
M  V30 416 1 374 379
M  V30 417 1 375 376
M  V30 418 2 376 377
M  V30 419 1 378 377
M  V30 420 2 379 378
M  V30 421 1 380 379
M  V30 422 1 380 381
M  V30 423 1 383 382
M  V30 424 2 384 383
M  V30 425 1 388 383
M  V30 426 1 385 384
M  V30 427 2 386 385
M  V30 428 1 391 385
M  V30 429 1 386 387
M  V30 430 2 387 388
M  V30 431 1 388 389
M  V30 432 1 389 390
M  V30 433 1 391 392
M  V30 434 1 392 393
M  V30 435 2 397 392
M  V30 436 2 393 394
M  V30 437 1 395 394
M  V30 438 2 396 395
M  V30 439 1 397 396
M  V30 440 1 398 397
M  V30 441 1 399 398
M  V30 442 1 400 418
M  V30 443 2 401 400
M  V30 444 1 405 400
M  V30 445 1 402 401
M  V30 446 1 421 401
M  V30 447 2 402 403
M  V30 448 1 419 402
M  V30 449 1 403 404
M  V30 450 1 409 403
M  V30 451 2 404 405
M  V30 452 1 406 404
M  V30 453 1 405 439
M  V30 454 1 407 406
M  V30 455 1 407 411 CFG=1
M  V30 456 1 408 407
M  V30 457 1 409 408
M  V30 458 2 410 409
M  V30 459 2 411 412
M  V30 460 1 411 416
M  V30 461 1 412 413
M  V30 462 2 413 414
M  V30 463 1 415 414
M  V30 464 2 416 415
M  V30 465 1 418 417
M  V30 466 1 420 419
M  V30 467 1 421 422
M  V30 468 1 422 423
M  V30 469 2 427 422
M  V30 470 2 423 424
M  V30 471 1 424 430
M  V30 472 1 425 424
M  V30 473 2 426 425
M  V30 474 1 427 426
M  V30 475 1 428 427
M  V30 476 1 429 428
M  V30 477 1 430 431
M  V30 478 2 431 436
M  V30 479 1 431 432
M  V30 480 2 432 433
M  V30 481 1 433 434
M  V30 482 2 435 434
M  V30 483 1 436 435
M  V30 484 1 437 436
M  V30 485 1 437 438
M  V30 486 1 440 439
M  V30 487 1 441 440
M  V30 488 2 445 440
M  V30 489 2 442 441
M  V30 490 1 443 442
M  V30 491 1 448 442
M  V30 492 2 443 444
M  V30 493 1 444 445
M  V30 494 1 445 446
M  V30 495 1 446 447
M  V30 496 1 448 449
M  V30 497 2 449 454
M  V30 498 1 449 450
M  V30 499 2 450 451
M  V30 500 1 451 452
M  V30 501 2 453 452
M  V30 502 1 454 453
M  V30 503 1 455 454
M  V30 504 1 456 455
M  V30 505 1 457 458
M  V30 506 2 462 457
M  V30 507 1 475 457
M  V30 508 2 458 459
M  V30 509 1 458 478
M  V30 510 1 459 476
M  V30 511 1 460 459
M  V30 512 2 461 460
M  V30 513 1 466 460
M  V30 514 1 462 461
M  V30 515 1 463 461
M  V30 516 1 496 462
M  V30 517 1 463 464
M  V30 518 1 464 468 CFG=6
M  V30 519 1 465 464
M  V30 520 1 465 466
M  V30 521 2 466 467
M  V30 522 1 468 473
M  V30 523 2 469 468
M  V30 524 1 470 469
M  V30 525 2 470 471
M  V30 526 1 471 472
M  V30 527 2 472 473
M  V30 528 1 474 475
M  V30 529 1 476 477
M  V30 530 1 479 478
M  V30 531 1 479 484
M  V30 532 2 480 479
M  V30 533 1 481 480
M  V30 534 2 481 482
M  V30 535 1 487 481
M  V30 536 1 482 483
M  V30 537 2 483 484
M  V30 538 1 484 485
M  V30 539 1 485 486
M  V30 540 1 487 488
M  V30 541 1 488 489
M  V30 542 2 493 488
M  V30 543 2 489 490
M  V30 544 1 491 490
M  V30 545 2 492 491
M  V30 546 1 493 492
M  V30 547 1 494 493
M  V30 548 1 494 495
M  V30 549 1 496 497
M  V30 550 1 497 498
M  V30 551 2 502 497
M  V30 552 2 498 499
M  V30 553 1 499 505
M  V30 554 1 500 499
M  V30 555 2 501 500
M  V30 556 1 502 501
M  V30 557 1 503 502
M  V30 558 1 504 503
M  V30 559 1 505 506
M  V30 560 2 506 511
M  V30 561 1 506 507
M  V30 562 2 507 508
M  V30 563 1 508 509
M  V30 564 2 510 509
M  V30 565 1 511 510
M  V30 566 1 512 511
M  V30 567 1 512 513
M  V30 568 1 514 535
M  V30 569 1 515 514
M  V30 570 2 519 514
M  V30 571 1 515 531
M  V30 572 2 516 515
M  V30 573 1 517 516
M  V30 574 1 553 516
M  V30 575 2 517 518
M  V30 576 1 533 517
M  V30 577 1 518 519
M  V30 578 1 523 518
M  V30 579 1 519 520
M  V30 580 1 521 520
M  V30 581 1 521 525 CFG=6
M  V30 582 1 522 521
M  V30 583 1 523 522
M  V30 584 2 524 523
M  V30 585 2 525 530
M  V30 586 1 525 526
M  V30 587 2 526 527
M  V30 588 1 527 528
M  V30 589 2 529 528
M  V30 590 1 530 529
M  V30 591 1 531 532
M  V30 592 1 534 533
M  V30 593 1 535 541
M  V30 594 1 536 542
M  V30 595 1 536 537
M  V30 596 2 541 536
M  V30 597 2 538 537
M  V30 598 1 539 538
M  V30 599 2 540 539
M  V30 600 1 544 539
M  V30 601 1 540 541
M  V30 602 1 543 542
M  V30 603 1 545 544
M  V30 604 2 546 545
M  V30 605 1 550 545
M  V30 606 1 547 546
M  V30 607 2 548 547
M  V30 608 1 548 549
M  V30 609 2 549 550
M  V30 610 1 550 551
M  V30 611 1 551 552
M  V30 612 1 554 553
M  V30 613 1 554 555
M  V30 614 2 559 554
M  V30 615 2 556 555
M  V30 616 1 557 556
M  V30 617 2 558 557
M  V30 618 1 558 559
M  V30 619 1 560 559
M  V30 620 1 561 560
M  V30 621 1 562 583
M  V30 622 1 562 567
M  V30 623 2 563 562
M  V30 624 1 564 563
M  V30 625 1 579 563
M  V30 626 2 564 565
M  V30 627 1 601 564
M  V30 628 1 565 566
M  V30 629 1 581 565
M  V30 630 2 566 567
M  V30 631 1 566 571
M  V30 632 1 567 568
M  V30 633 1 568 569
M  V30 634 1 569 573 CFG=6
M  V30 635 1 570 569
M  V30 636 1 571 570
M  V30 637 2 571 572
M  V30 638 1 573 578
M  V30 639 2 574 573
M  V30 640 1 574 575
M  V30 641 2 575 576
M  V30 642 1 576 577
M  V30 643 2 578 577
M  V30 644 1 579 580
M  V30 645 1 581 582
M  V30 646 1 589 583
M  V30 647 1 584 589
M  V30 648 1 584 590
M  V30 649 2 585 584
M  V30 650 1 586 585
M  V30 651 2 586 587
M  V30 652 1 587 588
M  V30 653 1 592 587
M  V30 654 2 588 589
M  V30 655 1 591 590
M  V30 656 1 592 593
M  V30 657 2 593 594
M  V30 658 1 593 598
M  V30 659 1 594 595
M  V30 660 2 595 596
M  V30 661 1 597 596
M  V30 662 2 598 597
M  V30 663 1 599 598
M  V30 664 1 600 599
M  V30 665 1 601 602
M  V30 666 2 602 607
M  V30 667 1 602 603
M  V30 668 2 603 604
M  V30 669 1 604 605
M  V30 670 2 606 605
M  V30 671 1 607 606
M  V30 672 1 608 607
M  V30 673 1 609 608
M  V30 674 1 610 615
M  V30 675 2 611 610
M  V30 676 1 631 610
M  V30 677 1 611 612
M  V30 678 1 627 611
M  V30 679 2 612 613
M  V30 680 1 649 612
M  V30 681 1 613 614
M  V30 682 1 613 629
M  V30 683 1 614 619
M  V30 684 2 615 614
M  V30 685 1 615 616
M  V30 686 1 616 617
M  V30 687 1 617 621 CFG=1
M  V30 688 1 617 618
M  V30 689 1 619 618
M  V30 690 2 619 620
M  V30 691 1 621 626
M  V30 692 2 622 621
M  V30 693 1 622 623
M  V30 694 2 623 624
M  V30 695 1 624 625
M  V30 696 2 626 625
M  V30 697 1 628 627
M  V30 698 1 629 630
M  V30 699 1 631 637
M  V30 700 2 632 633
M  V30 701 1 632 637
M  V30 702 1 638 632
M  V30 703 1 633 634
M  V30 704 2 634 635
M  V30 705 1 635 640
M  V30 706 1 636 635
M  V30 707 2 637 636
M  V30 708 1 639 638
M  V30 709 1 641 640
M  V30 710 1 641 642
M  V30 711 2 646 641
M  V30 712 2 643 642
M  V30 713 1 644 643
M  V30 714 2 645 644
M  V30 715 1 645 646
M  V30 716 1 647 646
M  V30 717 1 648 647
M  V30 718 1 649 650
M  V30 719 1 650 655
M  V30 720 2 651 650
M  V30 721 1 651 652
M  V30 722 2 652 653
M  V30 723 1 653 654
M  V30 724 2 655 654
M  V30 725 1 655 656
M  V30 726 1 657 656
M  V30 727 1 658 663
M  V30 728 2 659 658
M  V30 729 1 679 658
M  V30 730 1 659 660
M  V30 731 1 675 659
M  V30 732 2 660 661
M  V30 733 1 697 660
M  V30 734 1 661 662
M  V30 735 1 661 677
M  V30 736 1 662 667
M  V30 737 2 663 662
M  V30 738 1 663 664
M  V30 739 1 664 665
M  V30 740 1 665 669 CFG=6
M  V30 741 1 665 666
M  V30 742 1 667 666
M  V30 743 2 667 668
M  V30 744 1 669 670
M  V30 745 2 674 669
M  V30 746 2 670 671
M  V30 747 1 672 671
M  V30 748 2 673 672
M  V30 749 1 674 673
M  V30 750 1 676 675
M  V30 751 1 677 678
M  V30 752 1 679 685
M  V30 753 1 680 686
M  V30 754 1 680 681
M  V30 755 2 685 680
M  V30 756 2 682 681
M  V30 757 1 683 682
M  V30 758 2 684 683
M  V30 759 1 688 683
M  V30 760 1 684 685
M  V30 761 1 686 687
M  V30 762 1 688 689
M  V30 763 2 689 690
M  V30 764 1 689 694
M  V30 765 1 690 691
M  V30 766 2 691 692
M  V30 767 1 693 692
M  V30 768 2 694 693
M  V30 769 1 695 694
M  V30 770 1 696 695
M  V30 771 1 698 697
M  V30 772 1 698 699
M  V30 773 2 703 698
M  V30 774 2 699 700
M  V30 775 1 701 700
M  V30 776 2 702 701
M  V30 777 1 703 702
M  V30 778 1 704 703
M  V30 779 1 704 705
M  V30 780 1 706 727
M  V30 781 1 707 706
M  V30 782 2 711 706
M  V30 783 1 707 723
M  V30 784 2 708 707
M  V30 785 1 708 745
M  V30 786 1 709 708
M  V30 787 2 710 709
M  V30 788 1 725 709
M  V30 789 1 710 711
M  V30 790 1 715 710
M  V30 791 1 711 712
M  V30 792 1 713 712
M  V30 793 1 713 714
M  V30 794 1 713 717 CFG=1
M  V30 795 1 715 714
M  V30 796 2 716 715
M  V30 797 1 717 718
M  V30 798 2 722 717
M  V30 799 2 718 719
M  V30 800 1 720 719
M  V30 801 2 721 720
M  V30 802 1 722 721
M  V30 803 1 723 724
M  V30 804 1 726 725
M  V30 805 1 733 727
M  V30 806 1 728 734
M  V30 807 1 728 733
M  V30 808 2 729 728
M  V30 809 1 730 729
M  V30 810 2 730 731
M  V30 811 1 731 732
M  V30 812 1 736 731
M  V30 813 2 732 733
M  V30 814 1 734 735
M  V30 815 1 736 737
M  V30 816 2 737 742
M  V30 817 1 737 738
M  V30 818 2 738 739
M  V30 819 1 739 740
M  V30 820 2 741 740
M  V30 821 1 742 741
M  V30 822 1 743 742
M  V30 823 1 743 744
M  V30 824 1 746 745
M  V30 825 1 747 746
M  V30 826 2 751 746
M  V30 827 2 748 747
M  V30 828 1 749 748
M  V30 829 2 749 750
M  V30 830 1 750 751
M  V30 831 1 751 752
M  V30 832 1 753 752
M  V30 833 1 754 775
M  V30 834 1 755 754
M  V30 835 2 759 754
M  V30 836 1 755 771
M  V30 837 2 756 755
M  V30 838 1 757 756
M  V30 839 1 793 756
M  V30 840 2 757 758
M  V30 841 1 773 757
M  V30 842 1 758 759
M  V30 843 1 763 758
M  V30 844 1 759 760
M  V30 845 1 761 760
M  V30 846 1 761 765 CFG=6
M  V30 847 1 762 761
M  V30 848 1 762 763
M  V30 849 2 764 763
M  V30 850 1 765 770
M  V30 851 2 766 765
M  V30 852 1 767 766
M  V30 853 2 767 768
M  V30 854 1 768 769
M  V30 855 2 769 770
M  V30 856 1 772 771
M  V30 857 1 773 774
M  V30 858 1 781 775
M  V30 859 1 776 781
M  V30 860 1 776 782
M  V30 861 2 777 776
M  V30 862 1 778 777
M  V30 863 2 778 779
M  V30 864 1 779 780
M  V30 865 1 784 779
M  V30 866 2 780 781
M  V30 867 1 782 783
M  V30 868 1 785 784
M  V30 869 1 785 790
M  V30 870 2 786 785
M  V30 871 1 787 786
M  V30 872 2 787 788
M  V30 873 1 788 789
M  V30 874 2 789 790
M  V30 875 1 790 791
M  V30 876 1 792 791
M  V30 877 1 793 794
M  V30 878 1 794 795
M  V30 879 2 799 794
M  V30 880 2 795 796
M  V30 881 1 797 796
M  V30 882 2 798 797
M  V30 883 1 799 798
M  V30 884 1 800 799
M  V30 885 1 801 800
M  V30 886 1 802 807
M  V30 887 2 803 802
M  V30 888 1 823 802
M  V30 889 1 803 804
M  V30 890 1 819 803
M  V30 891 2 804 805
M  V30 892 1 841 804
M  V30 893 1 805 806
M  V30 894 1 805 821
M  V30 895 1 806 811
M  V30 896 2 807 806
M  V30 897 1 807 808
M  V30 898 1 808 809
M  V30 899 1 809 813 CFG=6
M  V30 900 1 809 810
M  V30 901 1 810 811
M  V30 902 2 811 812
M  V30 903 1 813 818
M  V30 904 2 814 813
M  V30 905 1 815 814
M  V30 906 2 815 816
M  V30 907 1 816 817
M  V30 908 2 817 818
M  V30 909 1 820 819
M  V30 910 1 822 821
M  V30 911 1 829 823
M  V30 912 1 824 829
M  V30 913 1 824 830
M  V30 914 2 825 824
M  V30 915 1 826 825
M  V30 916 2 826 827
M  V30 917 1 827 828
M  V30 918 1 832 827
M  V30 919 2 828 829
M  V30 920 1 831 830
M  V30 921 1 832 833
M  V30 922 1 833 834
M  V30 923 2 838 833
M  V30 924 2 834 835
M  V30 925 1 836 835
M  V30 926 2 837 836
M  V30 927 1 838 837
M  V30 928 1 839 838
M  V30 929 1 840 839
M  V30 930 1 842 841
M  V30 931 2 843 842
M  V30 932 1 847 842
M  V30 933 1 844 843
M  V30 934 2 845 844
M  V30 935 1 845 846
M  V30 936 2 846 847
M  V30 937 1 847 848
M  V30 938 1 848 849
M  V30 939 1 850 871
M  V30 940 1 851 850
M  V30 941 2 855 850
M  V30 942 1 851 867
M  V30 943 2 852 851
M  V30 944 1 853 852
M  V30 945 1 889 852
M  V30 946 2 853 854
M  V30 947 1 869 853
M  V30 948 1 854 855
M  V30 949 1 859 854
M  V30 950 1 855 856
M  V30 951 1 857 856
M  V30 952 1 857 861 CFG=6
M  V30 953 1 858 857
M  V30 954 1 858 859
M  V30 955 2 860 859
M  V30 956 1 861 866
M  V30 957 2 862 861
M  V30 958 1 863 862
M  V30 959 2 863 864
M  V30 960 1 864 865
M  V30 961 2 865 866
M  V30 962 1 867 868
M  V30 963 1 870 869
M  V30 964 1 877 871
M  V30 965 1 872 878
M  V30 966 2 873 872
M  V30 967 1 877 872
M  V30 968 1 874 873
M  V30 969 2 875 874
M  V30 970 1 875 876
M  V30 971 1 880 875
M  V30 972 2 876 877
M  V30 973 1 878 879
M  V30 974 1 880 881
M  V30 975 1 881 882
M  V30 976 2 886 881
M  V30 977 2 882 883
M  V30 978 1 884 883
M  V30 979 2 885 884
M  V30 980 1 886 885
M  V30 981 1 887 886
M  V30 982 1 888 887
M  V30 983 1 889 890
M  V30 984 2 890 895
M  V30 985 1 890 891
M  V30 986 2 891 892
M  V30 987 1 892 893
M  V30 988 2 894 893
M  V30 989 1 895 894
M  V30 990 1 896 895
M  V30 991 1 896 897
M  V30 992 1 898 919
M  V30 993 1 899 898
M  V30 994 2 903 898
M  V30 995 1 899 915
M  V30 996 2 900 899
M  V30 997 1 901 900
M  V30 998 1 937 900
M  V30 999 2 901 902
M  V30 1000 1 917 901
M  V30 1001 1 902 903
M  V30 1002 1 907 902
M  V30 1003 1 903 904
M  V30 1004 1 905 904
M  V30 1005 1 905 909 CFG=6
M  V30 1006 1 906 905
M  V30 1007 1 906 907
M  V30 1008 2 908 907
M  V30 1009 1 909 914
M  V30 1010 2 910 909
M  V30 1011 1 911 910
M  V30 1012 2 911 912
M  V30 1013 1 912 913
M  V30 1014 2 913 914
M  V30 1015 1 915 916
M  V30 1016 1 917 918
M  V30 1017 1 925 919
M  V30 1018 1 920 926
M  V30 1019 2 921 920
M  V30 1020 1 925 920
M  V30 1021 1 922 921
M  V30 1022 2 923 922
M  V30 1023 1 923 924
M  V30 1024 1 928 923
M  V30 1025 2 924 925
M  V30 1026 1 927 926
M  V30 1027 1 928 929
M  V30 1028 1 929 934
M  V30 1029 2 930 929
M  V30 1030 1 930 931
M  V30 1031 2 931 932
M  V30 1032 1 932 933
M  V30 1033 2 934 933
M  V30 1034 1 934 935
M  V30 1035 1 936 935
M  V30 1036 1 938 937
M  V30 1037 1 938 939
M  V30 1038 2 943 938
M  V30 1039 2 940 939
M  V30 1040 1 941 940
M  V30 1041 2 942 941
M  V30 1042 1 942 943
M  V30 1043 1 944 943
M  V30 1044 1 945 944
M  V30 1045 1 946 967
M  V30 1046 1 947 946
M  V30 1047 2 951 946
M  V30 1048 1 947 963
M  V30 1049 2 948 947
M  V30 1050 1 949 948
M  V30 1051 1 976 948
M  V30 1052 2 949 950
M  V30 1053 1 965 949
M  V30 1054 1 950 951
M  V30 1055 1 955 950
M  V30 1056 1 951 952
M  V30 1057 1 953 952
M  V30 1058 1 953 957 CFG=6
M  V30 1059 1 954 953
M  V30 1060 1 955 954
M  V30 1061 2 956 955
M  V30 1062 1 957 958
M  V30 1063 2 962 957
M  V30 1064 2 958 959
M  V30 1065 1 960 959
M  V30 1066 2 961 960
M  V30 1067 1 962 961
M  V30 1068 1 963 964
M  V30 1069 1 965 966
M  V30 1070 1 973 967
M  V30 1071 1 968 974
M  V30 1072 2 969 968
M  V30 1073 1 973 968
M  V30 1074 1 970 969
M  V30 1075 2 971 970
M  V30 1076 1 971 972
M  V30 1077 2 972 973
M  V30 1078 1 975 974
M  V30 1079 1 976 977
M  V30 1080 1 977 978
M  V30 1081 2 982 977
M  V30 1082 2 978 979
M  V30 1083 1 980 979
M  V30 1084 2 981 980
M  V30 1085 1 982 981
M  V30 1086 1 983 982
M  V30 1087 1 984 983
M  V30 1088 1 985 990
M  V30 1089 2 986 985
M  V30 1090 1 1006 985
M  V30 1091 1 986 987
M  V30 1092 1 1002 986
M  V30 1093 2 987 988
M  V30 1094 1 1015 987
M  V30 1095 1 988 989
M  V30 1096 1 988 1004
M  V30 1097 1 989 994
M  V30 1098 2 990 989
M  V30 1099 1 990 991
M  V30 1100 1 991 992
M  V30 1101 1 992 996 CFG=6
M  V30 1102 1 992 993
M  V30 1103 1 994 993
M  V30 1104 2 994 995
M  V30 1105 1 996 1001
M  V30 1106 2 997 996
M  V30 1107 1 998 997
M  V30 1108 2 998 999
M  V30 1109 1 999 1000
M  V30 1110 2 1000 1001
M  V30 1111 1 1003 1002
M  V30 1112 1 1004 1005
M  V30 1113 1 1012 1006
M  V30 1114 1 1007 1012
M  V30 1115 2 1008 1007
M  V30 1116 1 1013 1007
M  V30 1117 1 1008 1009
M  V30 1118 2 1009 1010
M  V30 1119 1 1010 1011
M  V30 1120 2 1012 1011
M  V30 1121 1 1013 1014
M  V30 1122 1 1016 1015
M  V30 1123 1 1016 1021
M  V30 1124 2 1017 1016
M  V30 1125 1 1018 1017
M  V30 1126 2 1018 1019
M  V30 1127 1 1019 1020
M  V30 1128 2 1020 1021
M  V30 1129 1 1021 1022
M  V30 1130 1 1022 1023
M  V30 1131 1 1024 1045
M  V30 1132 1 1025 1024
M  V30 1133 2 1029 1024
M  V30 1134 1 1025 1041
M  V30 1135 2 1026 1025
M  V30 1136 1 1027 1026
M  V30 1137 1 1054 1026
M  V30 1138 2 1027 1028
M  V30 1139 1 1043 1027
M  V30 1140 1 1028 1029
M  V30 1141 1 1033 1028
M  V30 1142 1 1029 1030
M  V30 1143 1 1031 1030
M  V30 1144 1 1031 1035 CFG=6
M  V30 1145 1 1032 1031
M  V30 1146 1 1033 1032
M  V30 1147 2 1034 1033
M  V30 1148 2 1035 1036
M  V30 1149 1 1035 1040
M  V30 1150 1 1036 1037
M  V30 1151 2 1037 1038
M  V30 1152 1 1039 1038
M  V30 1153 2 1040 1039
M  V30 1154 1 1041 1042
M  V30 1155 1 1044 1043
M  V30 1156 1 1051 1045
M  V30 1157 1 1046 1052
M  V30 1158 2 1047 1046
M  V30 1159 1 1051 1046
M  V30 1160 1 1048 1047
M  V30 1161 2 1049 1048
M  V30 1162 1 1049 1050
M  V30 1163 2 1050 1051
M  V30 1164 1 1053 1052
M  V30 1165 1 1055 1054
M  V30 1166 1 1055 1056
M  V30 1167 2 1060 1055
M  V30 1168 2 1057 1056
M  V30 1169 1 1058 1057
M  V30 1170 2 1059 1058
M  V30 1171 1 1059 1060
M  V30 1172 1 1061 1060
M  V30 1173 1 1061 1062
M  V30 1174 1 1063 1084
M  V30 1175 1 1064 1063
M  V30 1176 2 1068 1063
M  V30 1177 1 1064 1080
M  V30 1178 2 1065 1064
M  V30 1179 1 1066 1065
M  V30 1180 1 1093 1065
M  V30 1181 2 1066 1067
M  V30 1182 1 1082 1066
M  V30 1183 1 1067 1068
M  V30 1184 1 1072 1067
M  V30 1185 1 1068 1069
M  V30 1186 1 1070 1069
M  V30 1187 1 1070 1071
M  V30 1188 1 1070 1074 CFG=1
M  V30 1189 1 1072 1071
M  V30 1190 2 1073 1072
M  V30 1191 1 1074 1079
M  V30 1192 2 1075 1074
M  V30 1193 1 1075 1076
M  V30 1194 2 1076 1077
M  V30 1195 1 1077 1078
M  V30 1196 2 1079 1078
M  V30 1197 1 1080 1081
M  V30 1198 1 1082 1083
M  V30 1199 1 1090 1084
M  V30 1200 1 1085 1090
M  V30 1201 1 1085 1091
M  V30 1202 2 1086 1085
M  V30 1203 1 1087 1086
M  V30 1204 2 1087 1088
M  V30 1205 1 1088 1089
M  V30 1206 2 1089 1090
M  V30 1207 1 1092 1091
M  V30 1208 1 1094 1093
M  V30 1209 1 1095 1094
M  V30 1210 2 1099 1094
M  V30 1211 2 1096 1095
M  V30 1212 1 1097 1096
M  V30 1213 2 1097 1098
M  V30 1214 1 1098 1099
M  V30 1215 1 1100 1099
M  V30 1216 1 1100 1101
M  V30 1217 1 1102 1123
M  V30 1218 1 1103 1102
M  V30 1219 2 1107 1102
M  V30 1220 1 1103 1119
M  V30 1221 2 1104 1103
M  V30 1222 1 1105 1104
M  V30 1223 1 1132 1104
M  V30 1224 2 1105 1106
M  V30 1225 1 1121 1105
M  V30 1226 1 1106 1107
M  V30 1227 1 1111 1106
M  V30 1228 1 1107 1108
M  V30 1229 1 1109 1108
M  V30 1230 1 1109 1113 CFG=6
M  V30 1231 1 1110 1109
M  V30 1232 1 1111 1110
M  V30 1233 2 1112 1111
M  V30 1234 1 1113 1114
M  V30 1235 2 1118 1113
M  V30 1236 2 1114 1115
M  V30 1237 1 1116 1115
M  V30 1238 2 1117 1116
M  V30 1239 1 1118 1117
M  V30 1240 1 1120 1119
M  V30 1241 1 1121 1122
M  V30 1242 1 1123 1129
M  V30 1243 1 1124 1125
M  V30 1244 2 1129 1124
M  V30 1245 1 1130 1124
M  V30 1246 2 1125 1126
M  V30 1247 1 1127 1126
M  V30 1248 2 1128 1127
M  V30 1249 1 1129 1128
M  V30 1250 1 1131 1130
M  V30 1251 1 1132 1133
M  V30 1252 2 1133 1138
M  V30 1253 1 1133 1134
M  V30 1254 2 1134 1135
M  V30 1255 1 1135 1136
M  V30 1256 2 1137 1136
M  V30 1257 1 1138 1137
M  V30 1258 1 1139 1138
M  V30 1259 1 1140 1139
M  V30 1260 1 1141 1142
M  V30 1261 1 1141 1162
M  V30 1262 2 1146 1141
M  V30 1263 1 1142 1158
M  V30 1264 2 1143 1142
M  V30 1265 1 1144 1143
M  V30 1266 1 1171 1143
M  V30 1267 2 1144 1145
M  V30 1268 1 1160 1144
M  V30 1269 1 1145 1146
M  V30 1270 1 1150 1145
M  V30 1271 1 1147 1146
M  V30 1272 1 1148 1147
M  V30 1273 1 1148 1152 CFG=1
M  V30 1274 1 1149 1148
M  V30 1275 1 1150 1149
M  V30 1276 2 1151 1150
M  V30 1277 2 1152 1153
M  V30 1278 1 1152 1157
M  V30 1279 1 1153 1154
M  V30 1280 2 1154 1155
M  V30 1281 1 1156 1155
M  V30 1282 2 1157 1156
M  V30 1283 1 1158 1159
M  V30 1284 1 1160 1161
M  V30 1285 1 1168 1162
M  V30 1286 1 1163 1168
M  V30 1287 1 1163 1169
M  V30 1288 2 1164 1163
M  V30 1289 1 1165 1164
M  V30 1290 2 1165 1166
M  V30 1291 1 1166 1167
M  V30 1292 2 1167 1168
M  V30 1293 1 1170 1169
M  V30 1294 1 1172 1171
M  V30 1295 1 1172 1177
M  V30 1296 2 1173 1172
M  V30 1297 1 1174 1173
M  V30 1298 2 1174 1175
M  V30 1299 1 1175 1176
M  V30 1300 2 1176 1177
M  V30 1301 1 1177 1178
M  V30 1302 1 1179 1178
M  V30 1303 1 1180 1185
M  V30 1304 2 1181 1180
M  V30 1305 1 1201 1180
M  V30 1306 1 1181 1182
M  V30 1307 1 1197 1181
M  V30 1308 2 1182 1183
M  V30 1309 1 1210 1182
M  V30 1310 1 1183 1184
M  V30 1311 1 1183 1199
M  V30 1312 1 1184 1189
M  V30 1313 2 1185 1184
M  V30 1314 1 1185 1186
M  V30 1315 1 1186 1187
M  V30 1316 1 1187 1191 CFG=6
M  V30 1317 1 1187 1188
M  V30 1318 1 1189 1188
M  V30 1319 2 1189 1190
M  V30 1320 1 1191 1196
M  V30 1321 2 1192 1191
M  V30 1322 1 1193 1192
M  V30 1323 2 1193 1194
M  V30 1324 1 1194 1195
M  V30 1325 2 1195 1196
M  V30 1326 1 1198 1197
M  V30 1327 1 1199 1200
M  V30 1328 1 1207 1201
M  V30 1329 1 1202 1207
M  V30 1330 2 1203 1202
M  V30 1331 1 1208 1202
M  V30 1332 1 1203 1204
M  V30 1333 2 1204 1205
M  V30 1334 1 1205 1206
M  V30 1335 2 1207 1206
M  V30 1336 1 1209 1208
M  V30 1337 1 1211 1210
M  V30 1338 1 1211 1212
M  V30 1339 2 1216 1211
M  V30 1340 2 1213 1212
M  V30 1341 1 1214 1213
M  V30 1342 2 1215 1214
M  V30 1343 1 1215 1216
M  V30 1344 1 1217 1216
M  V30 1345 1 1218 1217
M  V30 1346 1 1219 1224
M  V30 1347 1 1219 1240
M  V30 1348 2 1220 1219
M  V30 1349 1 1221 1220
M  V30 1350 1 1236 1220
M  V30 1351 2 1221 1222
M  V30 1352 1 1249 1221
M  V30 1353 1 1222 1223
M  V30 1354 1 1238 1222
M  V30 1355 2 1223 1224
M  V30 1356 1 1228 1223
M  V30 1357 1 1224 1225
M  V30 1358 1 1225 1226
M  V30 1359 1 1226 1230 CFG=6
M  V30 1360 1 1227 1226
M  V30 1361 1 1228 1227
M  V30 1362 2 1229 1228
M  V30 1363 1 1230 1231
M  V30 1364 2 1235 1230
M  V30 1365 2 1231 1232
M  V30 1366 1 1233 1232
M  V30 1367 2 1234 1233
M  V30 1368 1 1235 1234
M  V30 1369 1 1237 1236
M  V30 1370 1 1239 1238
M  V30 1371 1 1246 1240
M  V30 1372 1 1241 1246
M  V30 1373 1 1241 1247
M  V30 1374 2 1242 1241
M  V30 1375 1 1243 1242
M  V30 1376 2 1243 1244
M  V30 1377 1 1244 1245
M  V30 1378 2 1245 1246
M  V30 1379 1 1248 1247
M  V30 1380 1 1249 1250
M  V30 1381 2 1250 1255
M  V30 1382 1 1250 1251
M  V30 1383 2 1251 1252
M  V30 1384 1 1252 1253
M  V30 1385 2 1254 1253
M  V30 1386 1 1255 1254
M  V30 1387 1 1256 1255
M  V30 1388 1 1256 1257
M  V30 1389 1 1258 1279
M  V30 1390 1 1259 1258
M  V30 1391 2 1263 1258
M  V30 1392 1 1259 1275
M  V30 1393 2 1260 1259
M  V30 1394 1 1261 1260
M  V30 1395 1 1288 1260
M  V30 1396 2 1261 1262
M  V30 1397 1 1277 1261
M  V30 1398 1 1262 1263
M  V30 1399 1 1267 1262
M  V30 1400 1 1263 1264
M  V30 1401 1 1265 1264
M  V30 1402 1 1265 1269 CFG=1
M  V30 1403 1 1266 1265
M  V30 1404 1 1267 1266
M  V30 1405 2 1268 1267
M  V30 1406 2 1269 1274
M  V30 1407 1 1269 1270
M  V30 1408 2 1270 1271
M  V30 1409 1 1271 1272
M  V30 1410 2 1273 1272
M  V30 1411 1 1274 1273
M  V30 1412 1 1276 1275
M  V30 1413 1 1278 1277
M  V30 1414 1 1285 1279
M  V30 1415 1 1280 1285
M  V30 1416 1 1280 1286
M  V30 1417 2 1281 1280
M  V30 1418 1 1282 1281
M  V30 1419 2 1282 1283
M  V30 1420 1 1283 1284
M  V30 1421 2 1284 1285
M  V30 1422 1 1287 1286
M  V30 1423 1 1288 1289
M  V30 1424 2 1289 1294
M  V30 1425 1 1289 1290
M  V30 1426 2 1290 1291
M  V30 1427 1 1291 1292
M  V30 1428 2 1293 1292
M  V30 1429 1 1294 1293
M  V30 1430 1 1295 1294
M  V30 1431 1 1295 1296
M  V30 1432 1 1297 1298
M  V30 1433 1 1297 1311 CFG=1
M  V30 1434 1 1307 1297
M  V30 1435 1 1299 1298
M  V30 1436 1 1299 1300
M  V30 1437 2 1304 1299
M  V30 1438 2 1301 1300
M  V30 1439 1 1301 1316
M  V30 1440 1 1302 1301
M  V30 1441 2 1303 1302
M  V30 1442 1 1303 1304
M  V30 1443 1 1318 1303
M  V30 1444 1 1305 1304
M  V30 1445 1 1305 1307
M  V30 1446 2 1306 1305
M  V30 1447 1 1307 1320 CFG=6
M  V30 1448 1 1308 1314
M  V30 1449 1 1309 1308
M  V30 1450 2 1313 1308
M  V30 1451 2 1310 1309
M  V30 1452 1 1311 1310
M  V30 1453 2 1311 1312
M  V30 1454 1 1312 1313
M  V30 1455 1 1314 1315
M  V30 1456 1 1316 1317
M  V30 1457 1 1319 1318
M  V30 1458 1 1321 1320 CFG=1
M  V30 1459 1 1321 1322
M  V30 1460 1 1327 1321
M  V30 1461 1 1322 1323
M  V30 1462 1 1323 1324 CFG=6
M  V30 1463 1 1325 1323
M  V30 1464 1 1325 1332 CFG=1
M  V30 1465 1 1326 1325
M  V30 1466 1 1326 1330 CFG=6
M  V30 1467 1 1326 1327
M  V30 1468 1 1327 1328 CFG=6
M  V30 1469 1 1328 1329
M  V30 1470 1 1331 1330
M  V30 1471 1 1332 1333
M  V30 1472 1 1334 1335
M  V30 1473 1 1334 1348 CFG=1
M  V30 1474 1 1344 1334
M  V30 1475 1 1336 1335
M  V30 1476 1 1336 1337
M  V30 1477 2 1341 1336
M  V30 1478 2 1338 1337
M  V30 1479 1 1338 1353
M  V30 1480 1 1339 1338
M  V30 1481 2 1340 1339
M  V30 1482 1 1340 1341
M  V30 1483 1 1355 1340
M  V30 1484 1 1342 1341
M  V30 1485 1 1342 1344
M  V30 1486 2 1343 1342
M  V30 1487 1 1344 1357 CFG=1
M  V30 1488 1 1345 1346
M  V30 1489 1 1345 1351
M  V30 1490 2 1350 1345
M  V30 1491 2 1347 1346
M  V30 1492 1 1348 1347
M  V30 1493 2 1349 1348
M  V30 1494 1 1349 1350
M  V30 1495 1 1351 1352
M  V30 1496 1 1354 1353
M  V30 1497 1 1355 1356
M  V30 1498 1 1358 1357 CFG=1
M  V30 1499 1 1358 1359
M  V30 1500 1 1364 1358
M  V30 1501 1 1359 1360
M  V30 1502 1 1360 1361 CFG=1
M  V30 1503 1 1362 1360
M  V30 1504 1 1362 1369 CFG=6
M  V30 1505 1 1363 1362
M  V30 1506 1 1363 1367 CFG=1
M  V30 1507 1 1364 1363
M  V30 1508 1 1364 1365 CFG=6
M  V30 1509 1 1366 1365
M  V30 1510 1 1367 1368
M  V30 1511 1 1369 1370
M  V30 1512 1 1371 1385 CFG=1
M  V30 1513 1 1371 1372
M  V30 1514 1 1381 1371
M  V30 1515 1 1372 1373
M  V30 1516 1 1373 1374
M  V30 1517 2 1378 1373
M  V30 1518 2 1374 1375
M  V30 1519 1 1375 1390
M  V30 1520 1 1376 1375
M  V30 1521 2 1377 1376
M  V30 1522 1 1378 1377
M  V30 1523 1 1392 1377
M  V30 1524 1 1379 1378
M  V30 1525 2 1380 1379
M  V30 1526 1 1381 1379
M  V30 1527 1 1381 1394 CFG=1
M  V30 1528 1 1382 1387
M  V30 1529 2 1383 1382
M  V30 1530 1 1388 1382
M  V30 1531 1 1383 1384
M  V30 1532 2 1384 1385
M  V30 1533 1 1385 1386
M  V30 1534 2 1387 1386
M  V30 1535 1 1389 1388
M  V30 1536 1 1390 1391
M  V30 1537 1 1392 1393
M  V30 1538 1 1395 1394 CFG=1
M  V30 1539 1 1395 1401
M  V30 1540 1 1396 1395
M  V30 1541 1 1396 1397
M  V30 1542 1 1397 1398 CFG=6
M  V30 1543 1 1399 1397
M  V30 1544 1 1399 1406 CFG=1
M  V30 1545 1 1400 1399
M  V30 1546 1 1400 1404 CFG=6
M  V30 1547 1 1400 1401
M  V30 1548 1 1401 1402 CFG=6
M  V30 1549 1 1403 1402
M  V30 1550 1 1405 1404
M  V30 1551 1 1407 1406
M  V30 1552 1 1408 1422 CFG=6
M  V30 1553 1 1408 1409
M  V30 1554 1 1408 1418
M  V30 1555 1 1409 1410
M  V30 1556 2 1410 1411
M  V30 1557 1 1410 1415
M  V30 1558 1 1411 1412
M  V30 1559 1 1412 1427
M  V30 1560 2 1412 1413
M  V30 1561 1 1414 1413
M  V30 1562 1 1414 1429
M  V30 1563 2 1415 1414
M  V30 1564 1 1416 1415
M  V30 1565 2 1416 1417
M  V30 1566 1 1418 1416
M  V30 1567 1 1418 1431 CFG=6
M  V30 1568 2 1419 1424
M  V30 1569 1 1419 1420
M  V30 1570 1 1425 1419
M  V30 1571 2 1420 1421
M  V30 1572 1 1421 1422
M  V30 1573 2 1423 1422
M  V30 1574 1 1424 1423
M  V30 1575 1 1426 1425
M  V30 1576 1 1427 1428
M  V30 1577 1 1429 1430
M  V30 1578 1 1432 1431 CFG=6
M  V30 1579 1 1432 1433
M  V30 1580 1 1438 1432
M  V30 1581 1 1434 1433
M  V30 1582 1 1434 1435 CFG=1
M  V30 1583 1 1436 1434
M  V30 1584 1 1436 1443 CFG=6
M  V30 1585 1 1436 1437
M  V30 1586 1 1437 1438
M  V30 1587 1 1437 1441 CFG=1
M  V30 1588 1 1438 1439 CFG=1
M  V30 1589 1 1439 1440
M  V30 1590 1 1442 1441
M  V30 1591 1 1444 1443
M  V30 1592 1 1445 1459 CFG=1
M  V30 1593 1 1446 1445
M  V30 1594 1 1455 1445
M  V30 1595 1 1447 1446
M  V30 1596 1 1447 1448
M  V30 1597 2 1452 1447
M  V30 1598 2 1449 1448
M  V30 1599 1 1449 1464
M  V30 1600 1 1450 1449
M  V30 1601 2 1451 1450
M  V30 1602 1 1451 1452
M  V30 1603 1 1466 1451
M  V30 1604 1 1452 1453
M  V30 1605 1 1453 1455
M  V30 1606 2 1454 1453
M  V30 1607 1 1455 1468 CFG=6
M  V30 1608 1 1456 1462
M  V30 1609 2 1457 1456
M  V30 1610 1 1461 1456
M  V30 1611 1 1458 1457
M  V30 1612 2 1459 1458
M  V30 1613 1 1459 1460
M  V30 1614 2 1460 1461
M  V30 1615 1 1462 1463
M  V30 1616 1 1464 1465
M  V30 1617 1 1467 1466
M  V30 1618 1 1469 1468 CFG=6
M  V30 1619 1 1470 1469
M  V30 1620 1 1475 1469
M  V30 1621 1 1471 1470
M  V30 1622 1 1471 1472 CFG=1
M  V30 1623 1 1473 1471
M  V30 1624 1 1473 1480 CFG=6
M  V30 1625 1 1473 1474
M  V30 1626 1 1474 1475
M  V30 1627 1 1474 1478 CFG=1
M  V30 1628 1 1475 1476 CFG=1
M  V30 1629 1 1476 1477
M  V30 1630 1 1478 1479
M  V30 1631 1 1481 1480
M  V30 1632 1 1482 1496 CFG=6
M  V30 1633 1 1482 1492
M  V30 1634 1 1482 1483
M  V30 1635 1 1483 1484
M  V30 1636 2 1484 1489
M  V30 1637 1 1484 1485
M  V30 1638 2 1485 1486
M  V30 1639 1 1486 1487
M  V30 1640 1 1486 1501
M  V30 1641 2 1488 1487
M  V30 1642 1 1488 1503
M  V30 1643 1 1489 1488
M  V30 1644 1 1490 1489
M  V30 1645 2 1490 1491
M  V30 1646 1 1492 1490
M  V30 1647 1 1492 1505 CFG=1
M  V30 1648 1 1493 1498
M  V30 1649 2 1494 1493
M  V30 1650 1 1499 1493
M  V30 1651 1 1494 1495
M  V30 1652 2 1495 1496
M  V30 1653 1 1496 1497
M  V30 1654 2 1498 1497
M  V30 1655 1 1499 1500
M  V30 1656 1 1502 1501
M  V30 1657 1 1503 1504
M  V30 1658 1 1506 1505 CFG=1
M  V30 1659 1 1506 1507
M  V30 1660 1 1512 1506
M  V30 1661 1 1507 1508
M  V30 1662 1 1508 1509 CFG=1
M  V30 1663 1 1510 1508
M  V30 1664 1 1510 1517 CFG=1
M  V30 1665 1 1511 1510
M  V30 1666 1 1511 1515 CFG=6
M  V30 1667 1 1512 1511
M  V30 1668 1 1512 1513 CFG=6
M  V30 1669 1 1514 1513
M  V30 1670 1 1515 1516
M  V30 1671 1 1517 1518
M  V30 1672 1 1519 1533 CFG=6
M  V30 1673 1 1520 1519
M  V30 1674 1 1529 1519
M  V30 1675 1 1521 1520
M  V30 1676 1 1521 1526
M  V30 1677 2 1522 1521
M  V30 1678 1 1523 1522
M  V30 1679 2 1523 1524
M  V30 1680 1 1538 1523
M  V30 1681 1 1524 1525
M  V30 1682 2 1525 1526
M  V30 1683 1 1525 1540
M  V30 1684 1 1526 1527
M  V30 1685 2 1527 1528
M  V30 1686 1 1529 1527
M  V30 1687 1 1529 1542 CFG=6
M  V30 1688 1 1530 1535
M  V30 1689 2 1531 1530
M  V30 1690 1 1536 1530
M  V30 1691 1 1531 1532
M  V30 1692 2 1532 1533
M  V30 1693 1 1533 1534
M  V30 1694 2 1535 1534
M  V30 1695 1 1537 1536
M  V30 1696 1 1538 1539
M  V30 1697 1 1541 1540
M  V30 1698 1 1543 1542 CFG=6
M  V30 1699 1 1544 1543
M  V30 1700 1 1549 1543
M  V30 1701 1 1545 1544
M  V30 1702 1 1545 1546 CFG=1
M  V30 1703 1 1547 1545
M  V30 1704 1 1547 1554 CFG=6
M  V30 1705 1 1547 1548
M  V30 1706 1 1548 1552 CFG=1
M  V30 1707 1 1548 1549
M  V30 1708 1 1549 1550 CFG=1
M  V30 1709 1 1550 1551
M  V30 1710 1 1552 1553
M  V30 1711 1 1555 1554
M  V30 1712 1 1556 1570 CFG=1
M  V30 1713 1 1556 1566
M  V30 1714 1 1557 1556
M  V30 1715 1 1558 1557
M  V30 1716 1 1558 1563
M  V30 1717 2 1559 1558
M  V30 1718 1 1560 1559
M  V30 1719 2 1560 1561
M  V30 1720 1 1575 1560
M  V30 1721 1 1561 1562
M  V30 1722 2 1562 1563
M  V30 1723 1 1562 1577
M  V30 1724 1 1563 1564
M  V30 1725 2 1564 1565
M  V30 1726 1 1564 1566
M  V30 1727 1 1566 1579 CFG=1
M  V30 1728 1 1567 1568
M  V30 1729 1 1567 1573
M  V30 1730 2 1572 1567
M  V30 1731 2 1569 1568
M  V30 1732 1 1570 1569
M  V30 1733 2 1571 1570
M  V30 1734 1 1571 1572
M  V30 1735 1 1574 1573
M  V30 1736 1 1575 1576
M  V30 1737 1 1577 1578
M  V30 1738 1 1580 1579 CFG=6
M  V30 1739 1 1580 1581
M  V30 1740 1 1580 1586
M  V30 1741 1 1581 1582
M  V30 1742 1 1582 1583 CFG=1
M  V30 1743 1 1582 1584
M  V30 1744 1 1584 1585
M  V30 1745 1 1584 1591 CFG=6
M  V30 1746 1 1585 1589 CFG=6
M  V30 1747 1 1586 1585
M  V30 1748 1 1586 1587 CFG=1
M  V30 1749 1 1587 1588
M  V30 1750 1 1589 1590
M  V30 1751 1 1591 1592
M  V30 1752 1 1593 1607 CFG=6
M  V30 1753 1 1593 1594
M  V30 1754 1 1593 1603
M  V30 1755 1 1594 1595
M  V30 1756 2 1595 1596
M  V30 1757 1 1595 1600
M  V30 1758 1 1596 1597
M  V30 1759 1 1597 1612
M  V30 1760 2 1597 1598
M  V30 1761 1 1599 1598
M  V30 1762 1 1599 1614
M  V30 1763 2 1600 1599
M  V30 1764 1 1601 1600
M  V30 1765 2 1601 1602
M  V30 1766 1 1603 1601
M  V30 1767 1 1603 1616 CFG=6
M  V30 1768 2 1604 1609
M  V30 1769 1 1604 1605
M  V30 1770 1 1610 1604
M  V30 1771 2 1605 1606
M  V30 1772 1 1606 1607
M  V30 1773 2 1608 1607
M  V30 1774 1 1609 1608
M  V30 1775 1 1611 1610
M  V30 1776 1 1612 1613
M  V30 1777 1 1614 1615
M  V30 1778 1 1617 1616 CFG=1
M  V30 1779 1 1617 1623
M  V30 1780 1 1618 1617
M  V30 1781 1 1618 1619
M  V30 1782 1 1619 1620 CFG=6
M  V30 1783 1 1619 1621
M  V30 1784 1 1621 1622
M  V30 1785 1 1621 1628 CFG=1
M  V30 1786 1 1622 1626 CFG=6
M  V30 1787 1 1622 1623
M  V30 1788 1 1623 1624 CFG=6
M  V30 1789 1 1624 1625
M  V30 1790 1 1626 1627
M  V30 1791 1 1628 1629
M  V30 1792 1 1630 1631
M  V30 1793 1 1631 1636
M  V30 1794 2 1632 1631
M  V30 1795 1 1632 1633
M  V30 1796 1 1633 1638 CFG=1
M  V30 1797 1 1633 1634
M  V30 1798 1 1634 1648
M  V30 1799 1 1634 1637 CFG=1
M  V30 1800 1 1635 1634
M  V30 1801 1 1636 1635
M  V30 1802 2 1638 1639
M  V30 1803 1 1638 1643
M  V30 1804 1 1639 1640
M  V30 1805 2 1640 1641
M  V30 1806 1 1641 1646
M  V30 1807 1 1642 1641
M  V30 1808 1 1642 1644
M  V30 1809 2 1643 1642
M  V30 1810 2 1644 1645
M  V30 1811 1 1646 1645
M  V30 1812 1 1646 1647
M  V30 1813 2 1649 1648
M  V30 1814 1 1649 1650
M  V30 1815 1 1650 1655
M  V30 1816 2 1651 1650
M  V30 1817 1 1651 1652
M  V30 1818 2 1652 1653
M  V30 1819 1 1653 1654
M  V30 1820 1 1653 1658
M  V30 1821 1 1654 1656
M  V30 1822 2 1655 1654
M  V30 1823 2 1656 1657
M  V30 1824 1 1658 1657
M  V30 1825 1 1659 1658
M  V30 1826 1 1660 1661
M  V30 1827 1 1661 1666
M  V30 1828 2 1662 1661
M  V30 1829 1 1662 1663
M  V30 1830 1 1663 1668 CFG=1
M  V30 1831 1 1663 1664
M  V30 1832 1 1664 1678
M  V30 1833 1 1664 1667 CFG=1
M  V30 1834 1 1665 1664
M  V30 1835 1 1666 1665
M  V30 1836 2 1668 1673
M  V30 1837 1 1668 1669
M  V30 1838 2 1669 1670
M  V30 1839 1 1670 1671
M  V30 1840 1 1671 1676
M  V30 1841 2 1672 1671
M  V30 1842 1 1672 1674
M  V30 1843 1 1673 1672
M  V30 1844 2 1674 1675
M  V30 1845 1 1676 1675
M  V30 1846 1 1676 1677
M  V30 1847 2 1678 1679
M  V30 1848 1 1679 1680
M  V30 1849 1 1680 1681
M  V30 1850 2 1685 1680
M  V30 1851 2 1681 1682
M  V30 1852 1 1683 1682
M  V30 1853 1 1683 1688
M  V30 1854 2 1684 1683
M  V30 1855 1 1685 1684
M  V30 1856 1 1686 1684
M  V30 1857 2 1686 1687
M  V30 1858 1 1687 1688
M  V30 1859 1 1688 1689
M  V30 1860 1 1691 1690
M  V30 1861 1 1691 1696
M  V30 1862 2 1692 1691
M  V30 1863 1 1693 1692
M  V30 1864 1 1693 1698 CFG=6
M  V30 1865 1 1693 1694
M  V30 1866 1 1694 1697 CFG=6
M  V30 1867 1 1694 1695
M  V30 1868 1 1708 1694
M  V30 1869 1 1695 1696
M  V30 1870 2 1699 1698
M  V30 1871 1 1703 1698
M  V30 1872 1 1700 1699
M  V30 1873 2 1701 1700
M  V30 1874 1 1701 1702
M  V30 1875 1 1706 1701
M  V30 1876 2 1702 1703
M  V30 1877 1 1704 1702
M  V30 1878 2 1705 1704
M  V30 1879 1 1706 1705
M  V30 1880 1 1707 1706
M  V30 1881 2 1709 1708
M  V30 1882 1 1710 1709
M  V30 1883 1 1710 1715
M  V30 1884 2 1711 1710
M  V30 1885 1 1712 1711
M  V30 1886 2 1712 1713
M  V30 1887 1 1713 1714
M  V30 1888 1 1718 1713
M  V30 1889 1 1714 1716
M  V30 1890 2 1714 1715
M  V30 1891 2 1717 1716
M  V30 1892 1 1718 1717
M  V30 1893 1 1719 1718
M  V30 1894 1 1721 1720
M  V30 1895 1 1721 1726
M  V30 1896 2 1722 1721
M  V30 1897 1 1723 1722
M  V30 1898 1 1723 1728 CFG=6
M  V30 1899 1 1723 1724
M  V30 1900 1 1724 1727 CFG=6
M  V30 1901 1 1724 1725
M  V30 1902 1 1738 1724
M  V30 1903 1 1725 1726
M  V30 1904 2 1729 1728
M  V30 1905 1 1733 1728
M  V30 1906 1 1730 1729
M  V30 1907 2 1731 1730
M  V30 1908 1 1731 1732
M  V30 1909 1 1736 1731
M  V30 1910 2 1732 1733
M  V30 1911 1 1734 1732
M  V30 1912 2 1735 1734
M  V30 1913 1 1736 1735
M  V30 1914 1 1737 1736
M  V30 1915 2 1739 1738
M  V30 1916 1 1740 1739
M  V30 1917 2 1741 1740
M  V30 1918 1 1745 1740
M  V30 1919 1 1742 1741
M  V30 1920 2 1743 1742
M  V30 1921 1 1743 1744
M  V30 1922 1 1748 1743
M  V30 1923 2 1744 1745
M  V30 1924 1 1746 1744
M  V30 1925 2 1747 1746
M  V30 1926 1 1748 1747
M  V30 1927 1 1749 1748
M  V30 1928 1 1750 1751
M  V30 1929 2 1751 1752
M  V30 1930 1 1756 1751
M  V30 1931 1 1752 1753
M  V30 1932 1 1753 1758 CFG=6
M  V30 1933 1 1754 1753
M  V30 1934 1 1754 1757 CFG=6
M  V30 1935 1 1754 1768
M  V30 1936 1 1755 1754
M  V30 1937 1 1756 1755
M  V30 1938 1 1758 1763
M  V30 1939 2 1759 1758
M  V30 1940 1 1759 1760
M  V30 1941 2 1760 1761
M  V30 1942 1 1761 1762
M  V30 1943 1 1761 1766
M  V30 1944 1 1762 1764
M  V30 1945 2 1763 1762
M  V30 1946 2 1764 1765
M  V30 1947 1 1766 1765
M  V30 1948 1 1767 1766
M  V30 1949 2 1769 1768
M  V30 1950 1 1769 1770
M  V30 1951 2 1770 1775
M  V30 1952 1 1770 1771
M  V30 1953 2 1771 1772
M  V30 1954 1 1772 1773
M  V30 1955 1 1773 1778
M  V30 1956 2 1774 1773
M  V30 1957 1 1774 1776
M  V30 1958 1 1775 1774
M  V30 1959 2 1776 1777
M  V30 1960 1 1777 1778
M  V30 1961 1 1778 1779
M  V30 1962 1 1780 1781
M  V30 1963 1 1781 1786
M  V30 1964 2 1782 1781
M  V30 1965 1 1782 1783
M  V30 1966 1 1783 1788 CFG=1
M  V30 1967 1 1783 1784
M  V30 1968 1 1784 1785
M  V30 1969 1 1784 1787 CFG=1
M  V30 1970 1 1798 1784
M  V30 1971 1 1785 1786
M  V30 1972 2 1789 1788
M  V30 1973 1 1793 1788
M  V30 1974 1 1790 1789
M  V30 1975 2 1790 1791
M  V30 1976 1 1791 1792
M  V30 1977 1 1796 1791
M  V30 1978 2 1792 1793
M  V30 1979 1 1794 1792
M  V30 1980 2 1795 1794
M  V30 1981 1 1796 1795
M  V30 1982 1 1797 1796
M  V30 1983 2 1799 1798
M  V30 1984 1 1800 1799
M  V30 1985 1 1800 1805
M  V30 1986 2 1801 1800
M  V30 1987 1 1802 1801
M  V30 1988 2 1802 1803
M  V30 1989 1 1803 1804
M  V30 1990 1 1808 1803
M  V30 1991 1 1804 1806
M  V30 1992 2 1804 1805
M  V30 1993 2 1807 1806
M  V30 1994 1 1808 1807
M  V30 1995 1 1809 1808
M  V30 1996 1 1811 1810
M  V30 1997 2 1811 1812
M  V30 1998 1 1816 1811
M  V30 1999 1 1813 1812
M  V30 2000 1 1813 1818 CFG=1
M  V30 2001 1 1814 1813
M  V30 2002 1 1814 1817 CFG=6
M  V30 2003 1 1815 1814
M  V30 2004 1 1828 1814
M  V30 2005 1 1815 1816
M  V30 2006 1 1818 1819
M  V30 2007 2 1823 1818
M  V30 2008 2 1819 1820
M  V30 2009 1 1821 1820
M  V30 2010 1 1821 1826
M  V30 2011 2 1822 1821
M  V30 2012 1 1823 1822
M  V30 2013 1 1824 1822
M  V30 2014 2 1824 1825
M  V30 2015 1 1825 1826
M  V30 2016 1 1826 1827
M  V30 2017 2 1829 1828
M  V30 2018 1 1830 1829
M  V30 2019 1 1830 1835
M  V30 2020 2 1831 1830
M  V30 2021 1 1832 1831
M  V30 2022 2 1832 1833
M  V30 2023 1 1833 1834
M  V30 2024 1 1838 1833
M  V30 2025 1 1834 1836
M  V30 2026 2 1834 1835
M  V30 2027 2 1837 1836
M  V30 2028 1 1838 1837
M  V30 2029 1 1839 1838
M  V30 2030 1 1841 1840
M  V30 2031 2 1841 1842
M  V30 2032 1 1846 1841
M  V30 2033 1 1843 1842
M  V30 2034 1 1843 1848 CFG=6
M  V30 2035 1 1844 1843
M  V30 2036 1 1844 1847 CFG=6
M  V30 2037 1 1844 1845
M  V30 2038 1 1858 1844
M  V30 2039 1 1845 1846
M  V30 2040 1 1848 1853
M  V30 2041 2 1849 1848
M  V30 2042 1 1850 1849
M  V30 2043 2 1850 1851
M  V30 2044 1 1851 1852
M  V30 2045 1 1856 1851
M  V30 2046 2 1852 1853
M  V30 2047 1 1852 1854
M  V30 2048 2 1855 1854
M  V30 2049 1 1856 1855
M  V30 2050 1 1857 1856
M  V30 2051 2 1858 1859
M  V30 2052 1 1860 1859
M  V30 2053 1 1860 1865
M  V30 2054 2 1861 1860
M  V30 2055 1 1862 1861
M  V30 2056 2 1862 1863
M  V30 2057 1 1863 1864
M  V30 2058 1 1868 1863
M  V30 2059 2 1864 1865
M  V30 2060 1 1864 1866
M  V30 2061 2 1867 1866
M  V30 2062 1 1868 1867
M  V30 2063 1 1869 1868
M  V30 2064 1 1871 1870
M  V30 2065 2 1871 1872
M  V30 2066 1 1876 1871
M  V30 2067 1 1872 1873
M  V30 2068 1 1873 1878 CFG=1
M  V30 2069 1 1874 1873
M  V30 2070 1 1874 1877 CFG=1
M  V30 2071 1 1875 1874
M  V30 2072 1 1888 1874
M  V30 2073 1 1875 1876
M  V30 2074 2 1878 1879
M  V30 2075 1 1878 1883
M  V30 2076 1 1879 1880
M  V30 2077 2 1880 1881
M  V30 2078 1 1881 1886
M  V30 2079 1 1882 1881
M  V30 2080 1 1882 1884
M  V30 2081 2 1883 1882
M  V30 2082 2 1884 1885
M  V30 2083 1 1886 1885
M  V30 2084 1 1886 1887
M  V30 2085 2 1889 1888
M  V30 2086 1 1890 1889
M  V30 2087 1 1890 1895
M  V30 2088 2 1891 1890
M  V30 2089 1 1892 1891
M  V30 2090 2 1892 1893
M  V30 2091 1 1893 1894
M  V30 2092 1 1898 1893
M  V30 2093 1 1894 1896
M  V30 2094 2 1894 1895
M  V30 2095 2 1897 1896
M  V30 2096 1 1898 1897
M  V30 2097 1 1899 1898
M  V30 2098 1 1900 1901
M  V30 2099 1 1901 1906
M  V30 2100 2 1902 1901
M  V30 2101 1 1902 1903
M  V30 2102 1 1903 1908 CFG=1
M  V30 2103 1 1903 1904
M  V30 2104 1 1904 1918
M  V30 2105 1 1904 1907 CFG=1
M  V30 2106 1 1905 1904
M  V30 2107 1 1906 1905
M  V30 2108 2 1908 1909
M  V30 2109 1 1908 1913
M  V30 2110 1 1909 1910
M  V30 2111 2 1910 1911
M  V30 2112 1 1911 1916
M  V30 2113 1 1912 1911
M  V30 2114 1 1912 1914
M  V30 2115 2 1913 1912
M  V30 2116 2 1914 1915
M  V30 2117 1 1916 1915
M  V30 2118 1 1916 1917
M  V30 2119 2 1919 1918
M  V30 2120 1 1919 1920
M  V30 2121 1 1920 1925
M  V30 2122 2 1921 1920
M  V30 2123 1 1921 1922
M  V30 2124 2 1922 1923
M  V30 2125 1 1923 1924
M  V30 2126 1 1923 1928
M  V30 2127 1 1924 1926
M  V30 2128 2 1925 1924
M  V30 2129 2 1926 1927
M  V30 2130 1 1928 1927
M  V30 2131 1 1929 1928
M  V30 2132 1 1930 1931
M  V30 2133 1 1931 1936
M  V30 2134 2 1932 1931
M  V30 2135 1 1932 1933
M  V30 2136 1 1933 1938 CFG=1
M  V30 2137 1 1933 1934
M  V30 2138 1 1934 1948
M  V30 2139 1 1934 1937 CFG=1
M  V30 2140 1 1935 1934
M  V30 2141 1 1936 1935
M  V30 2142 2 1938 1943
M  V30 2143 1 1938 1939
M  V30 2144 2 1939 1940
M  V30 2145 1 1940 1941
M  V30 2146 1 1941 1946
M  V30 2147 2 1942 1941
M  V30 2148 1 1942 1944
M  V30 2149 1 1943 1942
M  V30 2150 2 1944 1945
M  V30 2151 1 1946 1945
M  V30 2152 1 1946 1947
M  V30 2153 2 1948 1949
M  V30 2154 1 1949 1950
M  V30 2155 1 1950 1951
M  V30 2156 2 1955 1950
M  V30 2157 2 1951 1952
M  V30 2158 1 1953 1952
M  V30 2159 1 1953 1958
M  V30 2160 2 1954 1953
M  V30 2161 1 1955 1954
M  V30 2162 1 1956 1954
M  V30 2163 2 1956 1957
M  V30 2164 1 1957 1958
M  V30 2165 1 1958 1959
M  V30 2166 1 1961 1960
M  V30 2167 1 1961 1966
M  V30 2168 2 1962 1961
M  V30 2169 1 1963 1962
M  V30 2170 1 1963 1968 CFG=6
M  V30 2171 1 1963 1964
M  V30 2172 1 1964 1967 CFG=6
M  V30 2173 1 1964 1965
M  V30 2174 1 1978 1964
M  V30 2175 1 1965 1966
M  V30 2176 2 1969 1968
M  V30 2177 1 1973 1968
M  V30 2178 1 1970 1969
M  V30 2179 2 1971 1970
M  V30 2180 1 1971 1972
M  V30 2181 1 1976 1971
M  V30 2182 2 1972 1973
M  V30 2183 1 1974 1972
M  V30 2184 2 1975 1974
M  V30 2185 1 1976 1975
M  V30 2186 1 1977 1976
M  V30 2187 2 1979 1978
M  V30 2188 1 1980 1979
M  V30 2189 1 1980 1985
M  V30 2190 2 1981 1980
M  V30 2191 1 1982 1981
M  V30 2192 2 1982 1983
M  V30 2193 1 1983 1984
M  V30 2194 1 1988 1983
M  V30 2195 1 1984 1986
M  V30 2196 2 1984 1985
M  V30 2197 2 1987 1986
M  V30 2198 1 1988 1987
M  V30 2199 1 1989 1988
M  V30 2200 1 1991 1990
M  V30 2201 1 1991 1996
M  V30 2202 2 1992 1991
M  V30 2203 1 1993 1992
M  V30 2204 1 1993 1998 CFG=6
M  V30 2205 1 1993 1994
M  V30 2206 1 1994 1997 CFG=6
M  V30 2207 1 1994 1995
M  V30 2208 1 2008 1994
M  V30 2209 1 1995 1996
M  V30 2210 2 1999 1998
M  V30 2211 1 2003 1998
M  V30 2212 1 2000 1999
M  V30 2213 2 2001 2000
M  V30 2214 1 2001 2002
M  V30 2215 1 2006 2001
M  V30 2216 2 2002 2003
M  V30 2217 1 2004 2002
M  V30 2218 2 2005 2004
M  V30 2219 1 2006 2005
M  V30 2220 1 2007 2006
M  V30 2221 2 2009 2008
M  V30 2222 1 2010 2009
M  V30 2223 2 2011 2010
M  V30 2224 1 2015 2010
M  V30 2225 1 2012 2011
M  V30 2226 2 2013 2012
M  V30 2227 1 2013 2014
M  V30 2228 1 2018 2013
M  V30 2229 2 2014 2015
M  V30 2230 1 2016 2014
M  V30 2231 2 2017 2016
M  V30 2232 1 2018 2017
M  V30 2233 1 2019 2018
M  V30 2234 1 2020 2021
M  V30 2235 2 2021 2022
M  V30 2236 1 2026 2021
M  V30 2237 1 2022 2023
M  V30 2238 1 2023 2028 CFG=6
M  V30 2239 1 2024 2023
M  V30 2240 1 2024 2027 CFG=6
M  V30 2241 1 2024 2038
M  V30 2242 1 2025 2024
M  V30 2243 1 2026 2025
M  V30 2244 1 2028 2033
M  V30 2245 2 2029 2028
M  V30 2246 1 2029 2030
M  V30 2247 2 2030 2031
M  V30 2248 1 2031 2032
M  V30 2249 1 2031 2036
M  V30 2250 1 2032 2034
M  V30 2251 2 2033 2032
M  V30 2252 2 2034 2035
M  V30 2253 1 2036 2035
M  V30 2254 1 2037 2036
M  V30 2255 2 2039 2038
M  V30 2256 1 2039 2040
M  V30 2257 2 2040 2045
M  V30 2258 1 2040 2041
M  V30 2259 2 2041 2042
M  V30 2260 1 2042 2043
M  V30 2261 1 2043 2048
M  V30 2262 2 2044 2043
M  V30 2263 1 2044 2046
M  V30 2264 1 2045 2044
M  V30 2265 2 2046 2047
M  V30 2266 1 2047 2048
M  V30 2267 1 2048 2049
M  V30 2268 1 2050 2051
M  V30 2269 1 2051 2056
M  V30 2270 2 2052 2051
M  V30 2271 1 2052 2053
M  V30 2272 1 2053 2058 CFG=1
M  V30 2273 1 2053 2054
M  V30 2274 1 2054 2055
M  V30 2275 1 2054 2057 CFG=1
M  V30 2276 1 2068 2054
M  V30 2277 1 2055 2056
M  V30 2278 2 2059 2058
M  V30 2279 1 2063 2058
M  V30 2280 1 2060 2059
M  V30 2281 2 2060 2061
M  V30 2282 1 2061 2062
M  V30 2283 1 2066 2061
M  V30 2284 2 2062 2063
M  V30 2285 1 2064 2062
M  V30 2286 2 2065 2064
M  V30 2287 1 2066 2065
M  V30 2288 1 2067 2066
M  V30 2289 2 2069 2068
M  V30 2290 1 2070 2069
M  V30 2291 1 2070 2075
M  V30 2292 2 2071 2070
M  V30 2293 1 2072 2071
M  V30 2294 2 2072 2073
M  V30 2295 1 2073 2074
M  V30 2296 1 2078 2073
M  V30 2297 1 2074 2076
M  V30 2298 2 2074 2075
M  V30 2299 2 2077 2076
M  V30 2300 1 2078 2077
M  V30 2301 1 2079 2078
M  V30 2302 1 2081 2080
M  V30 2303 2 2081 2082
M  V30 2304 1 2086 2081
M  V30 2305 1 2083 2082
M  V30 2306 1 2083 2088 CFG=1
M  V30 2307 1 2084 2083
M  V30 2308 1 2084 2087 CFG=6
M  V30 2309 1 2085 2084
M  V30 2310 1 2098 2084
M  V30 2311 1 2085 2086
M  V30 2312 1 2088 2089
M  V30 2313 2 2093 2088
M  V30 2314 2 2089 2090
M  V30 2315 1 2091 2090
M  V30 2316 1 2091 2096
M  V30 2317 2 2092 2091
M  V30 2318 1 2093 2092
M  V30 2319 1 2094 2092
M  V30 2320 2 2094 2095
M  V30 2321 1 2095 2096
M  V30 2322 1 2096 2097
M  V30 2323 2 2099 2098
M  V30 2324 1 2100 2099
M  V30 2325 1 2100 2105
M  V30 2326 2 2101 2100
M  V30 2327 1 2102 2101
M  V30 2328 2 2102 2103
M  V30 2329 1 2103 2104
M  V30 2330 1 2108 2103
M  V30 2331 1 2104 2106
M  V30 2332 2 2104 2105
M  V30 2333 2 2107 2106
M  V30 2334 1 2108 2107
M  V30 2335 1 2109 2108
M  V30 2336 1 2111 2110
M  V30 2337 2 2111 2112
M  V30 2338 1 2116 2111
M  V30 2339 1 2113 2112
M  V30 2340 1 2113 2118 CFG=6
M  V30 2341 1 2114 2113
M  V30 2342 1 2114 2117 CFG=6
M  V30 2343 1 2114 2115
M  V30 2344 1 2128 2114
M  V30 2345 1 2115 2116
M  V30 2346 1 2118 2123
M  V30 2347 2 2119 2118
M  V30 2348 1 2120 2119
M  V30 2349 2 2120 2121
M  V30 2350 1 2121 2122
M  V30 2351 1 2126 2121
M  V30 2352 2 2122 2123
M  V30 2353 1 2122 2124
M  V30 2354 2 2125 2124
M  V30 2355 1 2126 2125
M  V30 2356 1 2127 2126
M  V30 2357 2 2128 2129
M  V30 2358 1 2130 2129
M  V30 2359 1 2130 2135
M  V30 2360 2 2131 2130
M  V30 2361 1 2132 2131
M  V30 2362 2 2132 2133
M  V30 2363 1 2133 2134
M  V30 2364 1 2138 2133
M  V30 2365 2 2134 2135
M  V30 2366 1 2134 2136
M  V30 2367 2 2137 2136
M  V30 2368 1 2138 2137
M  V30 2369 1 2139 2138
M  V30 2370 1 2141 2140
M  V30 2371 2 2141 2142
M  V30 2372 1 2146 2141
M  V30 2373 1 2142 2143
M  V30 2374 1 2143 2148 CFG=1
M  V30 2375 1 2144 2143
M  V30 2376 1 2144 2147 CFG=1
M  V30 2377 1 2145 2144
M  V30 2378 1 2158 2144
M  V30 2379 1 2145 2146
M  V30 2380 2 2148 2149
M  V30 2381 1 2148 2153
M  V30 2382 1 2149 2150
M  V30 2383 2 2150 2151
M  V30 2384 1 2151 2156
M  V30 2385 1 2152 2151
M  V30 2386 1 2152 2154
M  V30 2387 2 2153 2152
M  V30 2388 2 2154 2155
M  V30 2389 1 2156 2155
M  V30 2390 1 2156 2157
M  V30 2391 2 2159 2158
M  V30 2392 1 2160 2159
M  V30 2393 1 2160 2165
M  V30 2394 2 2161 2160
M  V30 2395 1 2162 2161
M  V30 2396 2 2162 2163
M  V30 2397 1 2163 2164
M  V30 2398 1 2168 2163
M  V30 2399 1 2164 2166
M  V30 2400 2 2164 2165
M  V30 2401 2 2167 2166
M  V30 2402 1 2168 2167
M  V30 2403 1 2169 2168
M  V30 2404 1 2170 2171
M  V30 2405 1 2171 2176
M  V30 2406 2 2172 2171
M  V30 2407 1 2172 2173
M  V30 2408 1 2173 2178 CFG=1
M  V30 2409 1 2173 2174
M  V30 2410 1 2174 2188
M  V30 2411 1 2174 2177 CFG=1
M  V30 2412 1 2175 2174
M  V30 2413 1 2176 2175
M  V30 2414 2 2178 2179
M  V30 2415 1 2178 2183
M  V30 2416 1 2179 2180
M  V30 2417 2 2180 2181
M  V30 2418 1 2181 2186
M  V30 2419 1 2182 2181
M  V30 2420 1 2182 2184
M  V30 2421 2 2183 2182
M  V30 2422 2 2184 2185
M  V30 2423 1 2186 2185
M  V30 2424 1 2186 2187
M  V30 2425 2 2189 2188
M  V30 2426 1 2189 2190
M  V30 2427 1 2190 2195
M  V30 2428 2 2191 2190
M  V30 2429 1 2191 2192
M  V30 2430 2 2192 2193
M  V30 2431 1 2193 2194
M  V30 2432 1 2193 2198
M  V30 2433 1 2194 2196
M  V30 2434 2 2195 2194
M  V30 2435 2 2196 2197
M  V30 2436 1 2198 2197
M  V30 2437 1 2199 2198
M  V30 2438 1 2200 2201
M  V30 2439 1 2201 2206
M  V30 2440 2 2202 2201
M  V30 2441 1 2202 2203
M  V30 2442 1 2203 2208 CFG=1
M  V30 2443 1 2203 2204
M  V30 2444 1 2204 2218
M  V30 2445 1 2204 2207 CFG=1
M  V30 2446 1 2205 2204
M  V30 2447 1 2206 2205
M  V30 2448 2 2208 2213
M  V30 2449 1 2208 2209
M  V30 2450 2 2209 2210
M  V30 2451 1 2210 2211
M  V30 2452 1 2211 2216
M  V30 2453 2 2212 2211
M  V30 2454 1 2212 2214
M  V30 2455 1 2213 2212
M  V30 2456 2 2214 2215
M  V30 2457 1 2216 2215
M  V30 2458 1 2216 2217
M  V30 2459 2 2218 2219
M  V30 2460 1 2219 2220
M  V30 2461 1 2220 2221
M  V30 2462 2 2225 2220
M  V30 2463 2 2221 2222
M  V30 2464 1 2223 2222
M  V30 2465 1 2223 2228
M  V30 2466 2 2224 2223
M  V30 2467 1 2225 2224
M  V30 2468 1 2226 2224
M  V30 2469 2 2226 2227
M  V30 2470 1 2227 2228
M  V30 2471 1 2228 2229
M  V30 2472 1 2231 2230
M  V30 2473 1 2231 2236
M  V30 2474 2 2232 2231
M  V30 2475 1 2233 2232
M  V30 2476 1 2233 2238 CFG=6
M  V30 2477 1 2233 2234
M  V30 2478 1 2234 2237 CFG=6
M  V30 2479 1 2234 2235
M  V30 2480 1 2248 2234
M  V30 2481 1 2235 2236
M  V30 2482 2 2239 2238
M  V30 2483 1 2243 2238
M  V30 2484 1 2240 2239
M  V30 2485 2 2241 2240
M  V30 2486 1 2241 2242
M  V30 2487 1 2246 2241
M  V30 2488 2 2242 2243
M  V30 2489 1 2244 2242
M  V30 2490 2 2245 2244
M  V30 2491 1 2246 2245
M  V30 2492 1 2247 2246
M  V30 2493 2 2249 2248
M  V30 2494 1 2250 2249
M  V30 2495 1 2250 2255
M  V30 2496 2 2251 2250
M  V30 2497 1 2252 2251
M  V30 2498 2 2252 2253
M  V30 2499 1 2253 2254
M  V30 2500 1 2258 2253
M  V30 2501 1 2254 2256
M  V30 2502 2 2254 2255
M  V30 2503 2 2257 2256
M  V30 2504 1 2258 2257
M  V30 2505 1 2259 2258
M  V30 2506 1 2261 2260
M  V30 2507 1 2261 2266
M  V30 2508 2 2262 2261
M  V30 2509 1 2263 2262
M  V30 2510 1 2263 2268 CFG=6
M  V30 2511 1 2263 2264
M  V30 2512 1 2264 2267 CFG=6
M  V30 2513 1 2264 2265
M  V30 2514 1 2278 2264
M  V30 2515 1 2265 2266
M  V30 2516 2 2269 2268
M  V30 2517 1 2273 2268
M  V30 2518 1 2270 2269
M  V30 2519 2 2271 2270
M  V30 2520 1 2271 2272
M  V30 2521 1 2276 2271
M  V30 2522 2 2272 2273
M  V30 2523 1 2274 2272
M  V30 2524 2 2275 2274
M  V30 2525 1 2276 2275
M  V30 2526 1 2277 2276
M  V30 2527 2 2279 2278
M  V30 2528 1 2280 2279
M  V30 2529 2 2281 2280
M  V30 2530 1 2285 2280
M  V30 2531 1 2282 2281
M  V30 2532 2 2283 2282
M  V30 2533 1 2283 2284
M  V30 2534 1 2288 2283
M  V30 2535 2 2284 2285
M  V30 2536 1 2286 2284
M  V30 2537 2 2287 2286
M  V30 2538 1 2288 2287
M  V30 2539 1 2289 2288
M  V30 2540 1 2290 2291
M  V30 2541 2 2291 2292
M  V30 2542 1 2296 2291
M  V30 2543 1 2292 2293
M  V30 2544 1 2293 2298 CFG=6
M  V30 2545 1 2294 2293
M  V30 2546 1 2294 2297 CFG=6
M  V30 2547 1 2294 2308
M  V30 2548 1 2295 2294
M  V30 2549 1 2296 2295
M  V30 2550 1 2298 2303
M  V30 2551 2 2299 2298
M  V30 2552 1 2299 2300
M  V30 2553 2 2300 2301
M  V30 2554 1 2301 2302
M  V30 2555 1 2301 2306
M  V30 2556 1 2302 2304
M  V30 2557 2 2303 2302
M  V30 2558 2 2304 2305
M  V30 2559 1 2306 2305
M  V30 2560 1 2307 2306
M  V30 2561 2 2309 2308
M  V30 2562 1 2309 2310
M  V30 2563 2 2310 2315
M  V30 2564 1 2310 2311
M  V30 2565 2 2311 2312
M  V30 2566 1 2312 2313
M  V30 2567 1 2313 2318
M  V30 2568 2 2314 2313
M  V30 2569 1 2314 2316
M  V30 2570 1 2315 2314
M  V30 2571 2 2316 2317
M  V30 2572 1 2317 2318
M  V30 2573 1 2318 2319
M  V30 2574 1 2320 2321
M  V30 2575 1 2321 2326
M  V30 2576 2 2322 2321
M  V30 2577 1 2322 2323
M  V30 2578 1 2323 2328 CFG=1
M  V30 2579 1 2323 2324
M  V30 2580 1 2324 2325
M  V30 2581 1 2324 2327 CFG=1
M  V30 2582 1 2338 2324
M  V30 2583 1 2325 2326
M  V30 2584 2 2329 2328
M  V30 2585 1 2333 2328
M  V30 2586 1 2330 2329
M  V30 2587 2 2330 2331
M  V30 2588 1 2331 2332
M  V30 2589 1 2336 2331
M  V30 2590 2 2332 2333
M  V30 2591 1 2334 2332
M  V30 2592 2 2335 2334
M  V30 2593 1 2336 2335
M  V30 2594 1 2337 2336
M  V30 2595 2 2339 2338
M  V30 2596 1 2340 2339
M  V30 2597 1 2340 2345
M  V30 2598 2 2341 2340
M  V30 2599 1 2342 2341
M  V30 2600 2 2342 2343
M  V30 2601 1 2343 2344
M  V30 2602 1 2348 2343
M  V30 2603 1 2344 2346
M  V30 2604 2 2344 2345
M  V30 2605 2 2347 2346
M  V30 2606 1 2348 2347
M  V30 2607 1 2349 2348
M  V30 2608 1 2351 2350
M  V30 2609 2 2351 2352
M  V30 2610 1 2356 2351
M  V30 2611 1 2353 2352
M  V30 2612 1 2353 2358 CFG=1
M  V30 2613 1 2354 2353
M  V30 2614 1 2354 2357 CFG=6
M  V30 2615 1 2355 2354
M  V30 2616 1 2368 2354
M  V30 2617 1 2355 2356
M  V30 2618 1 2358 2359
M  V30 2619 2 2363 2358
M  V30 2620 2 2359 2360
M  V30 2621 1 2361 2360
M  V30 2622 1 2361 2366
M  V30 2623 2 2362 2361
M  V30 2624 1 2363 2362
M  V30 2625 1 2364 2362
M  V30 2626 2 2364 2365
M  V30 2627 1 2365 2366
M  V30 2628 1 2366 2367
M  V30 2629 2 2369 2368
M  V30 2630 1 2370 2369
M  V30 2631 1 2370 2375
M  V30 2632 2 2371 2370
M  V30 2633 1 2372 2371
M  V30 2634 2 2372 2373
M  V30 2635 1 2373 2374
M  V30 2636 1 2378 2373
M  V30 2637 1 2374 2376
M  V30 2638 2 2374 2375
M  V30 2639 2 2377 2376
M  V30 2640 1 2378 2377
M  V30 2641 1 2379 2378
M  V30 2642 1 2381 2380
M  V30 2643 2 2381 2382
M  V30 2644 1 2386 2381
M  V30 2645 1 2383 2382
M  V30 2646 1 2383 2388 CFG=6
M  V30 2647 1 2384 2383
M  V30 2648 1 2384 2387 CFG=6
M  V30 2649 1 2384 2385
M  V30 2650 1 2398 2384
M  V30 2651 1 2385 2386
M  V30 2652 1 2388 2393
M  V30 2653 2 2389 2388
M  V30 2654 1 2390 2389
M  V30 2655 2 2390 2391
M  V30 2656 1 2391 2392
M  V30 2657 1 2396 2391
M  V30 2658 2 2392 2393
M  V30 2659 1 2392 2394
M  V30 2660 2 2395 2394
M  V30 2661 1 2396 2395
M  V30 2662 1 2397 2396
M  V30 2663 2 2398 2399
M  V30 2664 1 2400 2399
M  V30 2665 1 2400 2405
M  V30 2666 2 2401 2400
M  V30 2667 1 2402 2401
M  V30 2668 2 2402 2403
M  V30 2669 1 2403 2404
M  V30 2670 1 2408 2403
M  V30 2671 2 2404 2405
M  V30 2672 1 2404 2406
M  V30 2673 2 2407 2406
M  V30 2674 1 2408 2407
M  V30 2675 1 2409 2408
M  V30 2676 1 2411 2410
M  V30 2677 2 2411 2412
M  V30 2678 1 2416 2411
M  V30 2679 1 2412 2413
M  V30 2680 1 2413 2418 CFG=1
M  V30 2681 1 2414 2413
M  V30 2682 1 2414 2417 CFG=1
M  V30 2683 1 2415 2414
M  V30 2684 1 2428 2414
M  V30 2685 1 2415 2416
M  V30 2686 2 2418 2419
M  V30 2687 1 2418 2423
M  V30 2688 1 2419 2420
M  V30 2689 2 2420 2421
M  V30 2690 1 2421 2426
M  V30 2691 1 2422 2421
M  V30 2692 1 2422 2424
M  V30 2693 2 2423 2422
M  V30 2694 2 2424 2425
M  V30 2695 1 2426 2425
M  V30 2696 1 2426 2427
M  V30 2697 2 2429 2428
M  V30 2698 1 2430 2429
M  V30 2699 1 2430 2435
M  V30 2700 2 2431 2430
M  V30 2701 1 2432 2431
M  V30 2702 2 2432 2433
M  V30 2703 1 2433 2434
M  V30 2704 1 2438 2433
M  V30 2705 1 2434 2436
M  V30 2706 2 2434 2435
M  V30 2707 2 2437 2436
M  V30 2708 1 2438 2437
M  V30 2709 1 2439 2438
M  V30 2710 1 2440 2441
M  V30 2711 1 2441 2446
M  V30 2712 2 2442 2441
M  V30 2713 1 2442 2443
M  V30 2714 1 2443 2448 CFG=1
M  V30 2715 1 2443 2444
M  V30 2716 1 2444 2458
M  V30 2717 1 2444 2447 CFG=1
M  V30 2718 1 2445 2444
M  V30 2719 1 2446 2445
M  V30 2720 2 2448 2449
M  V30 2721 1 2448 2453
M  V30 2722 1 2449 2450
M  V30 2723 2 2450 2451
M  V30 2724 1 2451 2456
M  V30 2725 1 2452 2451
M  V30 2726 1 2452 2454
M  V30 2727 2 2453 2452
M  V30 2728 2 2454 2455
M  V30 2729 1 2456 2455
M  V30 2730 1 2456 2457
M  V30 2731 2 2459 2458
M  V30 2732 1 2459 2460
M  V30 2733 1 2460 2465
M  V30 2734 2 2461 2460
M  V30 2735 1 2461 2462
M  V30 2736 2 2462 2463
M  V30 2737 1 2463 2464
M  V30 2738 1 2463 2468
M  V30 2739 1 2464 2466
M  V30 2740 2 2465 2464
M  V30 2741 2 2466 2467
M  V30 2742 1 2468 2467
M  V30 2743 1 2469 2468
M  V30 2744 1 2470 2471
M  V30 2745 1 2471 2476
M  V30 2746 2 2472 2471
M  V30 2747 1 2472 2473
M  V30 2748 1 2473 2478 CFG=1
M  V30 2749 1 2473 2474
M  V30 2750 1 2474 2488
M  V30 2751 1 2474 2477 CFG=1
M  V30 2752 1 2475 2474
M  V30 2753 1 2476 2475
M  V30 2754 2 2478 2483
M  V30 2755 1 2478 2479
M  V30 2756 2 2479 2480
M  V30 2757 1 2480 2481
M  V30 2758 1 2481 2486
M  V30 2759 2 2482 2481
M  V30 2760 1 2482 2484
M  V30 2761 1 2483 2482
M  V30 2762 2 2484 2485
M  V30 2763 1 2486 2485
M  V30 2764 1 2486 2487
M  V30 2765 2 2488 2489
M  V30 2766 1 2489 2490
M  V30 2767 1 2490 2491
M  V30 2768 2 2495 2490
M  V30 2769 2 2491 2492
M  V30 2770 1 2493 2492
M  V30 2771 1 2493 2498
M  V30 2772 2 2494 2493
M  V30 2773 1 2495 2494
M  V30 2774 1 2496 2494
M  V30 2775 2 2496 2497
M  V30 2776 1 2497 2498
M  V30 2777 1 2498 2499
M  V30 2778 1 2501 2500
M  V30 2779 1 2501 2506
M  V30 2780 2 2502 2501
M  V30 2781 1 2503 2502
M  V30 2782 1 2503 2508 CFG=6
M  V30 2783 1 2503 2504
M  V30 2784 1 2504 2507 CFG=6
M  V30 2785 1 2504 2505
M  V30 2786 1 2518 2504
M  V30 2787 1 2505 2506
M  V30 2788 2 2509 2508
M  V30 2789 1 2513 2508
M  V30 2790 1 2510 2509
M  V30 2791 2 2511 2510
M  V30 2792 1 2511 2512
M  V30 2793 1 2516 2511
M  V30 2794 2 2512 2513
M  V30 2795 1 2514 2512
M  V30 2796 2 2515 2514
M  V30 2797 1 2516 2515
M  V30 2798 1 2517 2516
M  V30 2799 2 2519 2518
M  V30 2800 1 2520 2519
M  V30 2801 1 2520 2525
M  V30 2802 2 2521 2520
M  V30 2803 1 2522 2521
M  V30 2804 2 2522 2523
M  V30 2805 1 2523 2524
M  V30 2806 1 2528 2523
M  V30 2807 1 2524 2526
M  V30 2808 2 2524 2525
M  V30 2809 2 2527 2526
M  V30 2810 1 2528 2527
M  V30 2811 1 2529 2528
M  V30 2812 1 2531 2530
M  V30 2813 1 2531 2536
M  V30 2814 2 2532 2531
M  V30 2815 1 2533 2532
M  V30 2816 1 2533 2538 CFG=6
M  V30 2817 1 2533 2534
M  V30 2818 1 2534 2537 CFG=6
M  V30 2819 1 2534 2535
M  V30 2820 1 2548 2534
M  V30 2821 1 2535 2536
M  V30 2822 2 2539 2538
M  V30 2823 1 2543 2538
M  V30 2824 1 2540 2539
M  V30 2825 2 2541 2540
M  V30 2826 1 2541 2542
M  V30 2827 1 2546 2541
M  V30 2828 2 2542 2543
M  V30 2829 1 2544 2542
M  V30 2830 2 2545 2544
M  V30 2831 1 2546 2545
M  V30 2832 1 2547 2546
M  V30 2833 2 2549 2548
M  V30 2834 1 2550 2549
M  V30 2835 2 2551 2550
M  V30 2836 1 2555 2550
M  V30 2837 1 2552 2551
M  V30 2838 2 2553 2552
M  V30 2839 1 2553 2554
M  V30 2840 1 2558 2553
M  V30 2841 2 2554 2555
M  V30 2842 1 2556 2554
M  V30 2843 2 2557 2556
M  V30 2844 1 2558 2557
M  V30 2845 1 2559 2558
M  V30 2846 1 2560 2561
M  V30 2847 2 2561 2562
M  V30 2848 1 2566 2561
M  V30 2849 1 2562 2563
M  V30 2850 1 2563 2568 CFG=6
M  V30 2851 1 2564 2563
M  V30 2852 1 2564 2567 CFG=6
M  V30 2853 1 2564 2578
M  V30 2854 1 2565 2564
M  V30 2855 1 2566 2565
M  V30 2856 1 2568 2573
M  V30 2857 2 2569 2568
M  V30 2858 1 2569 2570
M  V30 2859 2 2570 2571
M  V30 2860 1 2571 2572
M  V30 2861 1 2571 2576
M  V30 2862 1 2572 2574
M  V30 2863 2 2573 2572
M  V30 2864 2 2574 2575
M  V30 2865 1 2576 2575
M  V30 2866 1 2577 2576
M  V30 2867 2 2579 2578
M  V30 2868 1 2579 2580
M  V30 2869 2 2580 2585
M  V30 2870 1 2580 2581
M  V30 2871 2 2581 2582
M  V30 2872 1 2582 2583
M  V30 2873 1 2583 2588
M  V30 2874 2 2584 2583
M  V30 2875 1 2584 2586
M  V30 2876 1 2585 2584
M  V30 2877 2 2586 2587
M  V30 2878 1 2587 2588
M  V30 2879 1 2588 2589
M  V30 2880 1 2590 2591
M  V30 2881 1 2591 2596
M  V30 2882 2 2592 2591
M  V30 2883 1 2592 2593
M  V30 2884 1 2593 2598 CFG=1
M  V30 2885 1 2593 2594
M  V30 2886 1 2594 2595
M  V30 2887 1 2594 2597 CFG=1
M  V30 2888 1 2608 2594
M  V30 2889 1 2595 2596
M  V30 2890 2 2599 2598
M  V30 2891 1 2603 2598
M  V30 2892 1 2600 2599
M  V30 2893 2 2600 2601
M  V30 2894 1 2601 2602
M  V30 2895 1 2606 2601
M  V30 2896 2 2602 2603
M  V30 2897 1 2604 2602
M  V30 2898 2 2605 2604
M  V30 2899 1 2606 2605
M  V30 2900 1 2607 2606
M  V30 2901 2 2609 2608
M  V30 2902 1 2610 2609
M  V30 2903 1 2610 2615
M  V30 2904 2 2611 2610
M  V30 2905 1 2612 2611
M  V30 2906 2 2612 2613
M  V30 2907 1 2613 2614
M  V30 2908 1 2618 2613
M  V30 2909 1 2614 2616
M  V30 2910 2 2614 2615
M  V30 2911 2 2617 2616
M  V30 2912 1 2618 2617
M  V30 2913 1 2619 2618
M  V30 2914 1 2621 2620
M  V30 2915 2 2621 2622
M  V30 2916 1 2626 2621
M  V30 2917 1 2623 2622
M  V30 2918 1 2623 2628 CFG=1
M  V30 2919 1 2624 2623
M  V30 2920 1 2624 2627 CFG=6
M  V30 2921 1 2625 2624
M  V30 2922 1 2638 2624
M  V30 2923 1 2625 2626
M  V30 2924 1 2628 2629
M  V30 2925 2 2633 2628
M  V30 2926 2 2629 2630
M  V30 2927 1 2631 2630
M  V30 2928 1 2631 2636
M  V30 2929 2 2632 2631
M  V30 2930 1 2633 2632
M  V30 2931 1 2634 2632
M  V30 2932 2 2634 2635
M  V30 2933 1 2635 2636
M  V30 2934 1 2636 2637
M  V30 2935 2 2639 2638
M  V30 2936 1 2640 2639
M  V30 2937 1 2640 2645
M  V30 2938 2 2641 2640
M  V30 2939 1 2642 2641
M  V30 2940 2 2642 2643
M  V30 2941 1 2643 2644
M  V30 2942 1 2648 2643
M  V30 2943 1 2644 2646
M  V30 2944 2 2644 2645
M  V30 2945 2 2647 2646
M  V30 2946 1 2648 2647
M  V30 2947 1 2649 2648
M  V30 2948 1 2651 2650
M  V30 2949 2 2651 2652
M  V30 2950 1 2656 2651
M  V30 2951 1 2653 2652
M  V30 2952 1 2653 2658 CFG=6
M  V30 2953 1 2654 2653
M  V30 2954 1 2654 2657 CFG=6
M  V30 2955 1 2654 2655
M  V30 2956 1 2668 2654
M  V30 2957 1 2655 2656
M  V30 2958 1 2658 2663
M  V30 2959 2 2659 2658
M  V30 2960 1 2660 2659
M  V30 2961 2 2660 2661
M  V30 2962 1 2661 2662
M  V30 2963 1 2666 2661
M  V30 2964 2 2662 2663
M  V30 2965 1 2662 2664
M  V30 2966 2 2665 2664
M  V30 2967 1 2666 2665
M  V30 2968 1 2667 2666
M  V30 2969 2 2668 2669
M  V30 2970 1 2670 2669
M  V30 2971 1 2670 2675
M  V30 2972 2 2671 2670
M  V30 2973 1 2672 2671
M  V30 2974 2 2672 2673
M  V30 2975 1 2673 2674
M  V30 2976 1 2678 2673
M  V30 2977 2 2674 2675
M  V30 2978 1 2674 2676
M  V30 2979 2 2677 2676
M  V30 2980 1 2678 2677
M  V30 2981 1 2679 2678
M  V30 2982 1 2681 2680
M  V30 2983 2 2681 2682
M  V30 2984 1 2686 2681
M  V30 2985 1 2682 2683
M  V30 2986 1 2683 2688 CFG=1
M  V30 2987 1 2684 2683
M  V30 2988 1 2684 2687 CFG=1
M  V30 2989 1 2685 2684
M  V30 2990 1 2698 2684
M  V30 2991 1 2685 2686
M  V30 2992 2 2688 2689
M  V30 2993 1 2688 2693
M  V30 2994 1 2689 2690
M  V30 2995 2 2690 2691
M  V30 2996 1 2691 2696
M  V30 2997 1 2692 2691
M  V30 2998 1 2692 2694
M  V30 2999 2 2693 2692
M  V30 3000 2 2694 2695
M  V30 3001 1 2696 2695
M  V30 3002 1 2696 2697
M  V30 3003 2 2699 2698
M  V30 3004 1 2700 2699
M  V30 3005 1 2700 2705
M  V30 3006 2 2701 2700
M  V30 3007 1 2702 2701
M  V30 3008 2 2702 2703
M  V30 3009 1 2703 2704
M  V30 3010 1 2708 2703
M  V30 3011 1 2704 2706
M  V30 3012 2 2704 2705
M  V30 3013 2 2707 2706
M  V30 3014 1 2708 2707
M  V30 3015 1 2709 2708
M  V30 3016 1 2710 2711
M  V30 3017 1 2711 2716
M  V30 3018 2 2712 2711
M  V30 3019 1 2712 2713
M  V30 3020 1 2713 2718 CFG=1
M  V30 3021 1 2713 2714
M  V30 3022 1 2714 2728
M  V30 3023 1 2714 2717 CFG=1
M  V30 3024 1 2715 2714
M  V30 3025 1 2716 2715
M  V30 3026 2 2718 2719
M  V30 3027 1 2718 2723
M  V30 3028 1 2719 2720
M  V30 3029 2 2720 2721
M  V30 3030 1 2721 2726
M  V30 3031 1 2722 2721
M  V30 3032 1 2722 2724
M  V30 3033 2 2723 2722
M  V30 3034 2 2724 2725
M  V30 3035 1 2726 2725
M  V30 3036 1 2726 2727
M  V30 3037 2 2729 2728
M  V30 3038 1 2729 2730
M  V30 3039 1 2730 2735
M  V30 3040 2 2731 2730
M  V30 3041 1 2731 2732
M  V30 3042 2 2732 2733
M  V30 3043 1 2733 2734
M  V30 3044 1 2733 2738
M  V30 3045 1 2734 2736
M  V30 3046 2 2735 2734
M  V30 3047 2 2736 2737
M  V30 3048 1 2738 2737
M  V30 3049 1 2739 2738
M  V30 3050 1 2740 2741
M  V30 3051 1 2741 2746
M  V30 3052 2 2742 2741
M  V30 3053 1 2742 2743
M  V30 3054 1 2743 2748 CFG=1
M  V30 3055 1 2743 2744
M  V30 3056 1 2744 2758
M  V30 3057 1 2744 2747 CFG=1
M  V30 3058 1 2745 2744
M  V30 3059 1 2746 2745
M  V30 3060 2 2748 2753
M  V30 3061 1 2748 2749
M  V30 3062 2 2749 2750
M  V30 3063 1 2750 2751
M  V30 3064 1 2751 2756
M  V30 3065 2 2752 2751
M  V30 3066 1 2752 2754
M  V30 3067 1 2753 2752
M  V30 3068 2 2754 2755
M  V30 3069 1 2756 2755
M  V30 3070 1 2756 2757
M  V30 3071 2 2758 2759
M  V30 3072 1 2759 2760
M  V30 3073 1 2760 2761
M  V30 3074 2 2765 2760
M  V30 3075 2 2761 2762
M  V30 3076 1 2763 2762
M  V30 3077 1 2763 2768
M  V30 3078 2 2764 2763
M  V30 3079 1 2765 2764
M  V30 3080 1 2766 2764
M  V30 3081 2 2766 2767
M  V30 3082 1 2767 2768
M  V30 3083 1 2768 2769
M  V30 3084 1 2771 2770
M  V30 3085 1 2771 2776
M  V30 3086 2 2772 2771
M  V30 3087 1 2773 2772
M  V30 3088 1 2773 2778 CFG=6
M  V30 3089 1 2773 2774
M  V30 3090 1 2774 2777 CFG=6
M  V30 3091 1 2774 2775
M  V30 3092 1 2788 2774
M  V30 3093 1 2775 2776
M  V30 3094 2 2779 2778
M  V30 3095 1 2783 2778
M  V30 3096 1 2780 2779
M  V30 3097 2 2781 2780
M  V30 3098 1 2781 2782
M  V30 3099 1 2786 2781
M  V30 3100 2 2782 2783
M  V30 3101 1 2784 2782
M  V30 3102 2 2785 2784
M  V30 3103 1 2786 2785
M  V30 3104 1 2787 2786
M  V30 3105 2 2789 2788
M  V30 3106 1 2790 2789
M  V30 3107 1 2790 2795
M  V30 3108 2 2791 2790
M  V30 3109 1 2792 2791
M  V30 3110 2 2792 2793
M  V30 3111 1 2793 2794
M  V30 3112 1 2798 2793
M  V30 3113 1 2794 2796
M  V30 3114 2 2794 2795
M  V30 3115 2 2797 2796
M  V30 3116 1 2798 2797
M  V30 3117 1 2799 2798
M  V30 3118 1 2801 2800
M  V30 3119 1 2801 2806
M  V30 3120 2 2802 2801
M  V30 3121 1 2803 2802
M  V30 3122 1 2803 2808 CFG=6
M  V30 3123 1 2803 2804
M  V30 3124 1 2804 2807 CFG=6
M  V30 3125 1 2804 2805
M  V30 3126 1 2818 2804
M  V30 3127 1 2805 2806
M  V30 3128 2 2809 2808
M  V30 3129 1 2813 2808
M  V30 3130 1 2810 2809
M  V30 3131 2 2811 2810
M  V30 3132 1 2811 2812
M  V30 3133 1 2816 2811
M  V30 3134 2 2812 2813
M  V30 3135 1 2814 2812
M  V30 3136 2 2815 2814
M  V30 3137 1 2816 2815
M  V30 3138 1 2817 2816
M  V30 3139 2 2819 2818
M  V30 3140 1 2820 2819
M  V30 3141 2 2821 2820
M  V30 3142 1 2825 2820
M  V30 3143 1 2822 2821
M  V30 3144 2 2823 2822
M  V30 3145 1 2823 2824
M  V30 3146 1 2828 2823
M  V30 3147 2 2824 2825
M  V30 3148 1 2826 2824
M  V30 3149 2 2827 2826
M  V30 3150 1 2828 2827
M  V30 3151 1 2829 2828
M  V30 3152 1 2830 2831
M  V30 3153 2 2831 2832
M  V30 3154 1 2836 2831
M  V30 3155 1 2832 2833
M  V30 3156 1 2833 2838 CFG=6
M  V30 3157 1 2834 2833
M  V30 3158 1 2834 2837 CFG=6
M  V30 3159 1 2834 2848
M  V30 3160 1 2835 2834
M  V30 3161 1 2836 2835
M  V30 3162 1 2838 2843
M  V30 3163 2 2839 2838
M  V30 3164 1 2839 2840
M  V30 3165 2 2840 2841
M  V30 3166 1 2841 2842
M  V30 3167 1 2841 2846
M  V30 3168 1 2842 2844
M  V30 3169 2 2843 2842
M  V30 3170 2 2844 2845
M  V30 3171 1 2846 2845
M  V30 3172 1 2847 2846
M  V30 3173 2 2849 2848
M  V30 3174 1 2849 2850
M  V30 3175 2 2850 2855
M  V30 3176 1 2850 2851
M  V30 3177 2 2851 2852
M  V30 3178 1 2852 2853
M  V30 3179 1 2853 2858
M  V30 3180 2 2854 2853
M  V30 3181 1 2854 2856
M  V30 3182 1 2855 2854
M  V30 3183 2 2856 2857
M  V30 3184 1 2857 2858
M  V30 3185 1 2858 2859
M  V30 3186 1 2860 2861
M  V30 3187 1 2861 2866
M  V30 3188 2 2862 2861
M  V30 3189 1 2862 2863
M  V30 3190 1 2863 2868 CFG=1
M  V30 3191 1 2863 2864
M  V30 3192 1 2864 2865
M  V30 3193 1 2864 2867 CFG=1
M  V30 3194 1 2878 2864
M  V30 3195 1 2865 2866
M  V30 3196 2 2869 2868
M  V30 3197 1 2873 2868
M  V30 3198 1 2870 2869
M  V30 3199 2 2870 2871
M  V30 3200 1 2871 2872
M  V30 3201 1 2876 2871
M  V30 3202 2 2872 2873
M  V30 3203 1 2874 2872
M  V30 3204 2 2875 2874
M  V30 3205 1 2876 2875
M  V30 3206 1 2877 2876
M  V30 3207 2 2879 2878
M  V30 3208 1 2880 2879
M  V30 3209 1 2880 2885
M  V30 3210 2 2881 2880
M  V30 3211 1 2882 2881
M  V30 3212 2 2882 2883
M  V30 3213 1 2883 2884
M  V30 3214 1 2888 2883
M  V30 3215 1 2884 2886
M  V30 3216 2 2884 2885
M  V30 3217 2 2887 2886
M  V30 3218 1 2888 2887
M  V30 3219 1 2889 2888
M  V30 3220 1 2891 2890
M  V30 3221 2 2891 2892
M  V30 3222 1 2896 2891
M  V30 3223 1 2893 2892
M  V30 3224 1 2893 2898 CFG=1
M  V30 3225 1 2894 2893
M  V30 3226 1 2894 2897 CFG=6
M  V30 3227 1 2895 2894
M  V30 3228 1 2908 2894
M  V30 3229 1 2895 2896
M  V30 3230 1 2898 2899
M  V30 3231 2 2903 2898
M  V30 3232 2 2899 2900
M  V30 3233 1 2901 2900
M  V30 3234 1 2901 2906
M  V30 3235 2 2902 2901
M  V30 3236 1 2903 2902
M  V30 3237 1 2904 2902
M  V30 3238 2 2904 2905
M  V30 3239 1 2905 2906
M  V30 3240 1 2906 2907
M  V30 3241 2 2909 2908
M  V30 3242 1 2910 2909
M  V30 3243 1 2910 2915
M  V30 3244 2 2911 2910
M  V30 3245 1 2912 2911
M  V30 3246 2 2912 2913
M  V30 3247 1 2913 2914
M  V30 3248 1 2918 2913
M  V30 3249 1 2914 2916
M  V30 3250 2 2914 2915
M  V30 3251 2 2917 2916
M  V30 3252 1 2918 2917
M  V30 3253 1 2919 2918
M  V30 3254 1 2921 2920
M  V30 3255 2 2921 2922
M  V30 3256 1 2926 2921
M  V30 3257 1 2923 2922
M  V30 3258 1 2923 2928 CFG=6
M  V30 3259 1 2924 2923
M  V30 3260 1 2924 2927 CFG=6
M  V30 3261 1 2924 2925
M  V30 3262 1 2938 2924
M  V30 3263 1 2925 2926
M  V30 3264 1 2928 2933
M  V30 3265 2 2929 2928
M  V30 3266 1 2930 2929
M  V30 3267 2 2930 2931
M  V30 3268 1 2931 2932
M  V30 3269 1 2936 2931
M  V30 3270 2 2932 2933
M  V30 3271 1 2932 2934
M  V30 3272 2 2935 2934
M  V30 3273 1 2936 2935
M  V30 3274 1 2937 2936
M  V30 3275 2 2938 2939
M  V30 3276 1 2940 2939
M  V30 3277 1 2940 2945
M  V30 3278 2 2941 2940
M  V30 3279 1 2942 2941
M  V30 3280 2 2942 2943
M  V30 3281 1 2943 2944
M  V30 3282 1 2948 2943
M  V30 3283 2 2944 2945
M  V30 3284 1 2944 2946
M  V30 3285 2 2947 2946
M  V30 3286 1 2948 2947
M  V30 3287 1 2949 2948
M  V30 3288 1 2951 2950
M  V30 3289 2 2951 2952
M  V30 3290 1 2956 2951
M  V30 3291 1 2952 2953
M  V30 3292 1 2953 2958 CFG=1
M  V30 3293 1 2954 2953
M  V30 3294 1 2954 2957 CFG=1
M  V30 3295 1 2955 2954
M  V30 3296 1 2968 2954
M  V30 3297 1 2955 2956
M  V30 3298 2 2958 2959
M  V30 3299 1 2958 2963
M  V30 3300 1 2959 2960
M  V30 3301 2 2960 2961
M  V30 3302 1 2961 2966
M  V30 3303 1 2962 2961
M  V30 3304 1 2962 2964
M  V30 3305 2 2963 2962
M  V30 3306 2 2964 2965
M  V30 3307 1 2966 2965
M  V30 3308 1 2966 2967
M  V30 3309 2 2969 2968
M  V30 3310 1 2970 2969
M  V30 3311 1 2970 2975
M  V30 3312 2 2971 2970
M  V30 3313 1 2972 2971
M  V30 3314 2 2972 2973
M  V30 3315 1 2973 2974
M  V30 3316 1 2978 2973
M  V30 3317 1 2974 2976
M  V30 3318 2 2974 2975
M  V30 3319 2 2977 2976
M  V30 3320 1 2978 2977
M  V30 3321 1 2979 2978
M  V30 3322 1 2980 2981
M  V30 3323 1 2981 2986
M  V30 3324 2 2982 2981
M  V30 3325 1 2982 2983
M  V30 3326 1 2983 2988 CFG=1
M  V30 3327 1 2983 2984
M  V30 3328 1 2984 2998
M  V30 3329 1 2984 2987 CFG=1
M  V30 3330 1 2985 2984
M  V30 3331 1 2986 2985
M  V30 3332 2 2988 2989
M  V30 3333 1 2988 2993
M  V30 3334 1 2989 2990
M  V30 3335 2 2990 2991
M  V30 3336 1 2991 2996
M  V30 3337 1 2992 2991
M  V30 3338 1 2992 2994
M  V30 3339 2 2993 2992
M  V30 3340 2 2994 2995
M  V30 3341 1 2996 2995
M  V30 3342 1 2996 2997
M  V30 3343 2 2999 2998
M  V30 3344 1 2999 3000
M  V30 3345 1 3000 3005
M  V30 3346 2 3001 3000
M  V30 3347 1 3001 3002
M  V30 3348 2 3002 3003
M  V30 3349 1 3003 3004
M  V30 3350 1 3003 3008
M  V30 3351 1 3004 3006
M  V30 3352 2 3005 3004
M  V30 3353 2 3006 3007
M  V30 3354 1 3008 3007
M  V30 3355 1 3009 3008
M  V30 3356 1 3010 3011
M  V30 3357 1 3011 3016
M  V30 3358 2 3012 3011
M  V30 3359 1 3012 3013
M  V30 3360 1 3013 3018 CFG=1
M  V30 3361 1 3013 3014
M  V30 3362 1 3014 3028
M  V30 3363 1 3014 3017 CFG=1
M  V30 3364 1 3015 3014
M  V30 3365 1 3016 3015
M  V30 3366 2 3018 3023
M  V30 3367 1 3018 3019
M  V30 3368 2 3019 3020
M  V30 3369 1 3020 3021
M  V30 3370 1 3021 3026
M  V30 3371 2 3022 3021
M  V30 3372 1 3022 3024
M  V30 3373 1 3023 3022
M  V30 3374 2 3024 3025
M  V30 3375 1 3026 3025
M  V30 3376 1 3026 3027
M  V30 3377 2 3028 3029
M  V30 3378 1 3029 3030
M  V30 3379 1 3030 3031
M  V30 3380 2 3035 3030
M  V30 3381 2 3031 3032
M  V30 3382 1 3033 3032
M  V30 3383 1 3033 3038
M  V30 3384 2 3034 3033
M  V30 3385 1 3035 3034
M  V30 3386 1 3036 3034
M  V30 3387 2 3036 3037
M  V30 3388 1 3037 3038
M  V30 3389 1 3038 3039
M  V30 3390 1 3041 3040
M  V30 3391 1 3041 3046
M  V30 3392 2 3042 3041
M  V30 3393 1 3043 3042
M  V30 3394 1 3043 3048 CFG=6
M  V30 3395 1 3043 3044
M  V30 3396 1 3044 3047 CFG=6
M  V30 3397 1 3044 3045
M  V30 3398 1 3058 3044
M  V30 3399 1 3045 3046
M  V30 3400 2 3049 3048
M  V30 3401 1 3053 3048
M  V30 3402 1 3050 3049
M  V30 3403 2 3051 3050
M  V30 3404 1 3051 3052
M  V30 3405 1 3056 3051
M  V30 3406 2 3052 3053
M  V30 3407 1 3054 3052
M  V30 3408 2 3055 3054
M  V30 3409 1 3056 3055
M  V30 3410 1 3057 3056
M  V30 3411 2 3059 3058
M  V30 3412 1 3060 3059
M  V30 3413 1 3060 3065
M  V30 3414 2 3061 3060
M  V30 3415 1 3062 3061
M  V30 3416 2 3062 3063
M  V30 3417 1 3063 3064
M  V30 3418 1 3068 3063
M  V30 3419 1 3064 3066
M  V30 3420 2 3064 3065
M  V30 3421 2 3067 3066
M  V30 3422 1 3068 3067
M  V30 3423 1 3069 3068
M  V30 3424 1 3071 3070
M  V30 3425 1 3071 3076
M  V30 3426 2 3072 3071
M  V30 3427 1 3073 3072
M  V30 3428 1 3073 3078 CFG=6
M  V30 3429 1 3073 3074
M  V30 3430 1 3074 3077 CFG=6
M  V30 3431 1 3074 3075
M  V30 3432 1 3088 3074
M  V30 3433 1 3075 3076
M  V30 3434 2 3079 3078
M  V30 3435 1 3083 3078
M  V30 3436 1 3080 3079
M  V30 3437 2 3081 3080
M  V30 3438 1 3081 3082
M  V30 3439 1 3086 3081
M  V30 3440 2 3082 3083
M  V30 3441 1 3084 3082
M  V30 3442 2 3085 3084
M  V30 3443 1 3086 3085
M  V30 3444 1 3087 3086
M  V30 3445 2 3089 3088
M  V30 3446 1 3090 3089
M  V30 3447 2 3091 3090
M  V30 3448 1 3095 3090
M  V30 3449 1 3092 3091
M  V30 3450 2 3093 3092
M  V30 3451 1 3093 3094
M  V30 3452 1 3098 3093
M  V30 3453 2 3094 3095
M  V30 3454 1 3096 3094
M  V30 3455 2 3097 3096
M  V30 3456 1 3098 3097
M  V30 3457 1 3099 3098
M  V30 3458 1 3100 3101
M  V30 3459 2 3101 3102
M  V30 3460 1 3106 3101
M  V30 3461 1 3102 3103
M  V30 3462 1 3103 3108 CFG=6
M  V30 3463 1 3104 3103
M  V30 3464 1 3104 3107 CFG=6
M  V30 3465 1 3104 3118
M  V30 3466 1 3105 3104
M  V30 3467 1 3106 3105
M  V30 3468 1 3108 3113
M  V30 3469 2 3109 3108
M  V30 3470 1 3109 3110
M  V30 3471 2 3110 3111
M  V30 3472 1 3111 3112
M  V30 3473 1 3111 3116
M  V30 3474 1 3112 3114
M  V30 3475 2 3113 3112
M  V30 3476 2 3114 3115
M  V30 3477 1 3116 3115
M  V30 3478 1 3117 3116
M  V30 3479 2 3119 3118
M  V30 3480 1 3119 3120
M  V30 3481 2 3120 3125
M  V30 3482 1 3120 3121
M  V30 3483 2 3121 3122
M  V30 3484 1 3122 3123
M  V30 3485 1 3123 3128
M  V30 3486 2 3124 3123
M  V30 3487 1 3124 3126
M  V30 3488 1 3125 3124
M  V30 3489 2 3126 3127
M  V30 3490 1 3127 3128
M  V30 3491 1 3128 3129
M  V30 3492 1 3130 3131
M  V30 3493 1 3131 3136
M  V30 3494 2 3132 3131
M  V30 3495 1 3132 3133
M  V30 3496 1 3133 3138 CFG=1
M  V30 3497 1 3133 3134
M  V30 3498 1 3134 3135
M  V30 3499 1 3134 3137 CFG=1
M  V30 3500 1 3148 3134
M  V30 3501 1 3135 3136
M  V30 3502 2 3139 3138
M  V30 3503 1 3143 3138
M  V30 3504 1 3140 3139
M  V30 3505 2 3140 3141
M  V30 3506 1 3141 3142
M  V30 3507 1 3146 3141
M  V30 3508 2 3142 3143
M  V30 3509 1 3144 3142
M  V30 3510 2 3145 3144
M  V30 3511 1 3146 3145
M  V30 3512 1 3147 3146
M  V30 3513 2 3149 3148
M  V30 3514 1 3150 3149
M  V30 3515 1 3150 3155
M  V30 3516 2 3151 3150
M  V30 3517 1 3152 3151
M  V30 3518 2 3152 3153
M  V30 3519 1 3153 3154
M  V30 3520 1 3158 3153
M  V30 3521 1 3154 3156
M  V30 3522 2 3154 3155
M  V30 3523 2 3157 3156
M  V30 3524 1 3158 3157
M  V30 3525 1 3159 3158
M  V30 3526 1 3161 3160
M  V30 3527 2 3161 3162
M  V30 3528 1 3166 3161
M  V30 3529 1 3163 3162
M  V30 3530 1 3163 3168 CFG=1
M  V30 3531 1 3164 3163
M  V30 3532 1 3164 3167 CFG=6
M  V30 3533 1 3165 3164
M  V30 3534 1 3178 3164
M  V30 3535 1 3165 3166
M  V30 3536 1 3168 3169
M  V30 3537 2 3173 3168
M  V30 3538 2 3169 3170
M  V30 3539 1 3171 3170
M  V30 3540 1 3171 3176
M  V30 3541 2 3172 3171
M  V30 3542 1 3173 3172
M  V30 3543 1 3174 3172
M  V30 3544 2 3174 3175
M  V30 3545 1 3175 3176
M  V30 3546 1 3176 3177
M  V30 3547 2 3179 3178
M  V30 3548 1 3180 3179
M  V30 3549 1 3180 3185
M  V30 3550 2 3181 3180
M  V30 3551 1 3182 3181
M  V30 3552 2 3182 3183
M  V30 3553 1 3183 3184
M  V30 3554 1 3188 3183
M  V30 3555 1 3184 3186
M  V30 3556 2 3184 3185
M  V30 3557 2 3187 3186
M  V30 3558 1 3188 3187
M  V30 3559 1 3189 3188
M  V30 3560 1 3191 3190
M  V30 3561 2 3191 3192
M  V30 3562 1 3196 3191
M  V30 3563 1 3193 3192
M  V30 3564 1 3193 3198 CFG=6
M  V30 3565 1 3194 3193
M  V30 3566 1 3194 3197 CFG=6
M  V30 3567 1 3194 3195
M  V30 3568 1 3208 3194
M  V30 3569 1 3195 3196
M  V30 3570 1 3198 3203
M  V30 3571 2 3199 3198
M  V30 3572 1 3200 3199
M  V30 3573 2 3200 3201
M  V30 3574 1 3201 3202
M  V30 3575 1 3206 3201
M  V30 3576 2 3202 3203
M  V30 3577 1 3202 3204
M  V30 3578 2 3205 3204
M  V30 3579 1 3206 3205
M  V30 3580 1 3207 3206
M  V30 3581 2 3208 3209
M  V30 3582 1 3210 3209
M  V30 3583 1 3210 3215
M  V30 3584 2 3211 3210
M  V30 3585 1 3212 3211
M  V30 3586 2 3212 3213
M  V30 3587 1 3213 3214
M  V30 3588 1 3218 3213
M  V30 3589 2 3214 3215
M  V30 3590 1 3214 3216
M  V30 3591 2 3217 3216
M  V30 3592 1 3218 3217
M  V30 3593 1 3219 3218
M  V30 3594 1 3221 3220
M  V30 3595 2 3221 3222
M  V30 3596 1 3226 3221
M  V30 3597 1 3222 3223
M  V30 3598 1 3223 3228 CFG=1
M  V30 3599 1 3224 3223
M  V30 3600 1 3224 3227 CFG=1
M  V30 3601 1 3225 3224
M  V30 3602 1 3238 3224
M  V30 3603 1 3225 3226
M  V30 3604 2 3228 3229
M  V30 3605 1 3228 3233
M  V30 3606 1 3229 3230
M  V30 3607 2 3230 3231
M  V30 3608 1 3231 3236
M  V30 3609 1 3232 3231
M  V30 3610 1 3232 3234
M  V30 3611 2 3233 3232
M  V30 3612 2 3234 3235
M  V30 3613 1 3236 3235
M  V30 3614 1 3236 3237
M  V30 3615 2 3239 3238
M  V30 3616 1 3240 3239
M  V30 3617 1 3240 3245
M  V30 3618 2 3241 3240
M  V30 3619 1 3242 3241
M  V30 3620 2 3242 3243
M  V30 3621 1 3243 3244
M  V30 3622 1 3248 3243
M  V30 3623 1 3244 3246
M  V30 3624 2 3244 3245
M  V30 3625 2 3247 3246
M  V30 3626 1 3248 3247
M  V30 3627 1 3249 3248
M  V30 3628 1 3250 3251
M  V30 3629 1 3251 3256
M  V30 3630 2 3252 3251
M  V30 3631 1 3252 3253
M  V30 3632 1 3253 3258 CFG=1
M  V30 3633 1 3253 3254
M  V30 3634 1 3254 3268
M  V30 3635 1 3254 3257 CFG=1
M  V30 3636 1 3255 3254
M  V30 3637 1 3256 3255
M  V30 3638 2 3258 3259
M  V30 3639 1 3258 3263
M  V30 3640 1 3259 3260
M  V30 3641 2 3260 3261
M  V30 3642 1 3261 3266
M  V30 3643 1 3262 3261
M  V30 3644 1 3262 3264
M  V30 3645 2 3263 3262
M  V30 3646 2 3264 3265
M  V30 3647 1 3266 3265
M  V30 3648 1 3266 3267
M  V30 3649 2 3269 3268
M  V30 3650 1 3269 3270
M  V30 3651 1 3270 3275
M  V30 3652 2 3271 3270
M  V30 3653 1 3271 3272
M  V30 3654 2 3272 3273
M  V30 3655 1 3273 3274
M  V30 3656 1 3273 3278
M  V30 3657 1 3274 3276
M  V30 3658 2 3275 3274
M  V30 3659 2 3276 3277
M  V30 3660 1 3278 3277
M  V30 3661 1 3279 3278
M  V30 3662 1 3280 3281
M  V30 3663 1 3281 3286
M  V30 3664 2 3282 3281
M  V30 3665 1 3282 3283
M  V30 3666 1 3283 3288 CFG=1
M  V30 3667 1 3283 3284
M  V30 3668 1 3284 3298
M  V30 3669 1 3284 3287 CFG=1
M  V30 3670 1 3285 3284
M  V30 3671 1 3286 3285
M  V30 3672 2 3288 3293
M  V30 3673 1 3288 3289
M  V30 3674 2 3289 3290
M  V30 3675 1 3290 3291
M  V30 3676 1 3291 3296
M  V30 3677 2 3292 3291
M  V30 3678 1 3292 3294
M  V30 3679 1 3293 3292
M  V30 3680 2 3294 3295
M  V30 3681 1 3296 3295
M  V30 3682 1 3296 3297
M  V30 3683 2 3298 3299
M  V30 3684 1 3299 3300
M  V30 3685 1 3300 3301
M  V30 3686 2 3305 3300
M  V30 3687 2 3301 3302
M  V30 3688 1 3303 3302
M  V30 3689 1 3303 3308
M  V30 3690 2 3304 3303
M  V30 3691 1 3305 3304
M  V30 3692 1 3306 3304
M  V30 3693 2 3306 3307
M  V30 3694 1 3307 3308
M  V30 3695 1 3308 3309
M  V30 3696 1 3311 3310
M  V30 3697 1 3311 3316
M  V30 3698 2 3312 3311
M  V30 3699 1 3313 3312
M  V30 3700 1 3313 3318 CFG=6
M  V30 3701 1 3313 3314
M  V30 3702 1 3314 3317 CFG=6
M  V30 3703 1 3314 3315
M  V30 3704 1 3328 3314
M  V30 3705 1 3315 3316
M  V30 3706 2 3319 3318
M  V30 3707 1 3323 3318
M  V30 3708 1 3320 3319
M  V30 3709 2 3321 3320
M  V30 3710 1 3321 3322
M  V30 3711 1 3326 3321
M  V30 3712 2 3322 3323
M  V30 3713 1 3324 3322
M  V30 3714 2 3325 3324
M  V30 3715 1 3326 3325
M  V30 3716 1 3327 3326
M  V30 3717 2 3329 3328
M  V30 3718 1 3330 3329
M  V30 3719 1 3330 3335
M  V30 3720 2 3331 3330
M  V30 3721 1 3332 3331
M  V30 3722 2 3332 3333
M  V30 3723 1 3333 3334
M  V30 3724 1 3338 3333
M  V30 3725 1 3334 3336
M  V30 3726 2 3334 3335
M  V30 3727 2 3337 3336
M  V30 3728 1 3338 3337
M  V30 3729 1 3339 3338
M  V30 3730 1 3341 3340
M  V30 3731 1 3341 3346
M  V30 3732 2 3342 3341
M  V30 3733 1 3343 3342
M  V30 3734 1 3343 3348 CFG=6
M  V30 3735 1 3343 3344
M  V30 3736 1 3344 3347 CFG=6
M  V30 3737 1 3344 3345
M  V30 3738 1 3358 3344
M  V30 3739 1 3345 3346
M  V30 3740 2 3349 3348
M  V30 3741 1 3353 3348
M  V30 3742 1 3350 3349
M  V30 3743 2 3351 3350
M  V30 3744 1 3351 3352
M  V30 3745 1 3356 3351
M  V30 3746 2 3352 3353
M  V30 3747 1 3354 3352
M  V30 3748 2 3355 3354
M  V30 3749 1 3356 3355
M  V30 3750 1 3357 3356
M  V30 3751 2 3359 3358
M  V30 3752 1 3360 3359
M  V30 3753 2 3361 3360
M  V30 3754 1 3365 3360
M  V30 3755 1 3362 3361
M  V30 3756 2 3363 3362
M  V30 3757 1 3363 3364
M  V30 3758 1 3368 3363
M  V30 3759 2 3364 3365
M  V30 3760 1 3366 3364
M  V30 3761 2 3367 3366
M  V30 3762 1 3368 3367
M  V30 3763 1 3369 3368
M  V30 3764 1 3370 3371
M  V30 3765 2 3371 3372
M  V30 3766 1 3376 3371
M  V30 3767 1 3372 3373
M  V30 3768 1 3373 3378 CFG=6
M  V30 3769 1 3374 3373
M  V30 3770 1 3374 3377 CFG=6
M  V30 3771 1 3374 3388
M  V30 3772 1 3375 3374
M  V30 3773 1 3376 3375
M  V30 3774 1 3378 3383
M  V30 3775 2 3379 3378
M  V30 3776 1 3379 3380
M  V30 3777 2 3380 3381
M  V30 3778 1 3381 3382
M  V30 3779 1 3381 3386
M  V30 3780 1 3382 3384
M  V30 3781 2 3383 3382
M  V30 3782 2 3384 3385
M  V30 3783 1 3386 3385
M  V30 3784 1 3387 3386
M  V30 3785 2 3389 3388
M  V30 3786 1 3389 3390
M  V30 3787 2 3390 3395
M  V30 3788 1 3390 3391
M  V30 3789 2 3391 3392
M  V30 3790 1 3392 3393
M  V30 3791 1 3393 3398
M  V30 3792 2 3394 3393
M  V30 3793 1 3394 3396
M  V30 3794 1 3395 3394
M  V30 3795 2 3396 3397
M  V30 3796 1 3397 3398
M  V30 3797 1 3398 3399
M  V30 3798 1 3400 3401
M  V30 3799 1 3401 3406
M  V30 3800 2 3402 3401
M  V30 3801 1 3402 3403
M  V30 3802 1 3403 3408 CFG=1
M  V30 3803 1 3403 3404
M  V30 3804 1 3404 3405
M  V30 3805 1 3404 3407 CFG=1
M  V30 3806 1 3418 3404
M  V30 3807 1 3405 3406
M  V30 3808 2 3409 3408
M  V30 3809 1 3413 3408
M  V30 3810 1 3410 3409
M  V30 3811 2 3410 3411
M  V30 3812 1 3411 3412
M  V30 3813 1 3416 3411
M  V30 3814 2 3412 3413
M  V30 3815 1 3414 3412
M  V30 3816 2 3415 3414
M  V30 3817 1 3416 3415
M  V30 3818 1 3417 3416
M  V30 3819 2 3419 3418
M  V30 3820 1 3420 3419
M  V30 3821 1 3420 3425
M  V30 3822 2 3421 3420
M  V30 3823 1 3422 3421
M  V30 3824 2 3422 3423
M  V30 3825 1 3423 3424
M  V30 3826 1 3428 3423
M  V30 3827 1 3424 3426
M  V30 3828 2 3424 3425
M  V30 3829 2 3427 3426
M  V30 3830 1 3428 3427
M  V30 3831 1 3429 3428
M  V30 3832 1 3431 3430
M  V30 3833 2 3431 3432
M  V30 3834 1 3436 3431
M  V30 3835 1 3433 3432
M  V30 3836 1 3433 3438 CFG=1
M  V30 3837 1 3434 3433
M  V30 3838 1 3434 3437 CFG=6
M  V30 3839 1 3435 3434
M  V30 3840 1 3448 3434
M  V30 3841 1 3435 3436
M  V30 3842 1 3438 3439
M  V30 3843 2 3443 3438
M  V30 3844 2 3439 3440
M  V30 3845 1 3441 3440
M  V30 3846 1 3441 3446
M  V30 3847 2 3442 3441
M  V30 3848 1 3443 3442
M  V30 3849 1 3444 3442
M  V30 3850 2 3444 3445
M  V30 3851 1 3445 3446
M  V30 3852 1 3446 3447
M  V30 3853 2 3449 3448
M  V30 3854 1 3450 3449
M  V30 3855 1 3450 3455
M  V30 3856 2 3451 3450
M  V30 3857 1 3452 3451
M  V30 3858 2 3452 3453
M  V30 3859 1 3453 3454
M  V30 3860 1 3458 3453
M  V30 3861 1 3454 3456
M  V30 3862 2 3454 3455
M  V30 3863 2 3457 3456
M  V30 3864 1 3458 3457
M  V30 3865 1 3459 3458
M  V30 3866 1 3461 3460
M  V30 3867 2 3461 3462
M  V30 3868 1 3466 3461
M  V30 3869 1 3463 3462
M  V30 3870 1 3463 3468 CFG=6
M  V30 3871 1 3464 3463
M  V30 3872 1 3464 3467 CFG=6
M  V30 3873 1 3464 3465
M  V30 3874 1 3478 3464
M  V30 3875 1 3465 3466
M  V30 3876 1 3468 3473
M  V30 3877 2 3469 3468
M  V30 3878 1 3470 3469
M  V30 3879 2 3470 3471
M  V30 3880 1 3471 3472
M  V30 3881 1 3476 3471
M  V30 3882 2 3472 3473
M  V30 3883 1 3472 3474
M  V30 3884 2 3475 3474
M  V30 3885 1 3476 3475
M  V30 3886 1 3477 3476
M  V30 3887 2 3478 3479
M  V30 3888 1 3480 3479
M  V30 3889 1 3480 3485
M  V30 3890 2 3481 3480
M  V30 3891 1 3482 3481
M  V30 3892 2 3482 3483
M  V30 3893 1 3483 3484
M  V30 3894 1 3488 3483
M  V30 3895 2 3484 3485
M  V30 3896 1 3484 3486
M  V30 3897 2 3487 3486
M  V30 3898 1 3488 3487
M  V30 3899 1 3489 3488
M  V30 3900 1 3491 3490
M  V30 3901 2 3491 3492
M  V30 3902 1 3496 3491
M  V30 3903 1 3492 3493
M  V30 3904 1 3493 3498 CFG=1
M  V30 3905 1 3494 3493
M  V30 3906 1 3494 3497 CFG=1
M  V30 3907 1 3495 3494
M  V30 3908 1 3508 3494
M  V30 3909 1 3495 3496
M  V30 3910 2 3498 3499
M  V30 3911 1 3498 3503
M  V30 3912 1 3499 3500
M  V30 3913 2 3500 3501
M  V30 3914 1 3501 3506
M  V30 3915 1 3502 3501
M  V30 3916 1 3502 3504
M  V30 3917 2 3503 3502
M  V30 3918 2 3504 3505
M  V30 3919 1 3506 3505
M  V30 3920 1 3506 3507
M  V30 3921 2 3509 3508
M  V30 3922 1 3510 3509
M  V30 3923 1 3510 3515
M  V30 3924 2 3511 3510
M  V30 3925 1 3512 3511
M  V30 3926 2 3512 3513
M  V30 3927 1 3513 3514
M  V30 3928 1 3518 3513
M  V30 3929 1 3514 3516
M  V30 3930 2 3514 3515
M  V30 3931 2 3517 3516
M  V30 3932 1 3518 3517
M  V30 3933 1 3519 3518
M  V30 3934 1 3520 3521
M  V30 3935 1 3521 3526
M  V30 3936 2 3522 3521
M  V30 3937 1 3522 3523
M  V30 3938 1 3523 3528 CFG=1
M  V30 3939 1 3523 3524
M  V30 3940 1 3524 3538
M  V30 3941 1 3524 3527 CFG=1
M  V30 3942 1 3525 3524
M  V30 3943 1 3526 3525
M  V30 3944 2 3528 3529
M  V30 3945 1 3528 3533
M  V30 3946 1 3529 3530
M  V30 3947 2 3530 3531
M  V30 3948 1 3531 3536
M  V30 3949 1 3532 3531
M  V30 3950 1 3532 3534
M  V30 3951 2 3533 3532
M  V30 3952 2 3534 3535
M  V30 3953 1 3536 3535
M  V30 3954 1 3536 3537
M  V30 3955 2 3539 3538
M  V30 3956 1 3539 3540
M  V30 3957 1 3540 3545
M  V30 3958 2 3541 3540
M  V30 3959 1 3541 3542
M  V30 3960 2 3542 3543
M  V30 3961 1 3543 3544
M  V30 3962 1 3543 3548
M  V30 3963 1 3544 3546
M  V30 3964 2 3545 3544
M  V30 3965 2 3546 3547
M  V30 3966 1 3548 3547
M  V30 3967 1 3549 3548
M  V30 3968 1 3550 3551
M  V30 3969 1 3551 3556
M  V30 3970 2 3552 3551
M  V30 3971 1 3552 3553
M  V30 3972 1 3553 3558 CFG=1
M  V30 3973 1 3553 3554
M  V30 3974 1 3554 3568
M  V30 3975 1 3554 3557 CFG=1
M  V30 3976 1 3555 3554
M  V30 3977 1 3556 3555
M  V30 3978 2 3558 3563
M  V30 3979 1 3558 3559
M  V30 3980 2 3559 3560
M  V30 3981 1 3560 3561
M  V30 3982 1 3561 3566
M  V30 3983 2 3562 3561
M  V30 3984 1 3562 3564
M  V30 3985 1 3563 3562
M  V30 3986 2 3564 3565
M  V30 3987 1 3566 3565
M  V30 3988 1 3566 3567
M  V30 3989 2 3568 3569
M  V30 3990 1 3569 3570
M  V30 3991 1 3570 3571
M  V30 3992 2 3575 3570
M  V30 3993 2 3571 3572
M  V30 3994 1 3573 3572
M  V30 3995 1 3573 3578
M  V30 3996 2 3574 3573
M  V30 3997 1 3575 3574
M  V30 3998 1 3576 3574
M  V30 3999 2 3576 3577
M  V30 4000 1 3577 3578
M  V30 4001 1 3578 3579
M  V30 4002 1 3581 3580
M  V30 4003 1 3581 3586
M  V30 4004 2 3582 3581
M  V30 4005 1 3583 3582
M  V30 4006 1 3583 3588 CFG=6
M  V30 4007 1 3583 3584
M  V30 4008 1 3584 3587 CFG=6
M  V30 4009 1 3584 3585
M  V30 4010 1 3598 3584
M  V30 4011 1 3585 3586
M  V30 4012 2 3589 3588
M  V30 4013 1 3593 3588
M  V30 4014 1 3590 3589
M  V30 4015 2 3591 3590
M  V30 4016 1 3591 3592
M  V30 4017 1 3596 3591
M  V30 4018 2 3592 3593
M  V30 4019 1 3594 3592
M  V30 4020 2 3595 3594
M  V30 4021 1 3596 3595
M  V30 4022 1 3597 3596
M  V30 4023 2 3599 3598
M  V30 4024 1 3600 3599
M  V30 4025 1 3600 3605
M  V30 4026 2 3601 3600
M  V30 4027 1 3602 3601
M  V30 4028 2 3602 3603
M  V30 4029 1 3603 3604
M  V30 4030 1 3608 3603
M  V30 4031 1 3604 3606
M  V30 4032 2 3604 3605
M  V30 4033 2 3607 3606
M  V30 4034 1 3608 3607
M  V30 4035 1 3609 3608
M  V30 4036 1 3611 3610
M  V30 4037 1 3611 3616
M  V30 4038 2 3612 3611
M  V30 4039 1 3613 3612
M  V30 4040 1 3613 3618 CFG=6
M  V30 4041 1 3613 3614
M  V30 4042 1 3614 3617 CFG=6
M  V30 4043 1 3614 3615
M  V30 4044 1 3628 3614
M  V30 4045 1 3615 3616
M  V30 4046 2 3619 3618
M  V30 4047 1 3623 3618
M  V30 4048 1 3620 3619
M  V30 4049 2 3621 3620
M  V30 4050 1 3621 3622
M  V30 4051 1 3626 3621
M  V30 4052 2 3622 3623
M  V30 4053 1 3624 3622
M  V30 4054 2 3625 3624
M  V30 4055 1 3626 3625
M  V30 4056 1 3627 3626
M  V30 4057 2 3629 3628
M  V30 4058 1 3630 3629
M  V30 4059 2 3631 3630
M  V30 4060 1 3635 3630
M  V30 4061 1 3632 3631
M  V30 4062 2 3633 3632
M  V30 4063 1 3633 3634
M  V30 4064 1 3638 3633
M  V30 4065 2 3634 3635
M  V30 4066 1 3636 3634
M  V30 4067 2 3637 3636
M  V30 4068 1 3638 3637
M  V30 4069 1 3639 3638
M  V30 4070 1 3640 3641
M  V30 4071 2 3641 3642
M  V30 4072 1 3646 3641
M  V30 4073 1 3642 3643
M  V30 4074 1 3643 3648 CFG=6
M  V30 4075 1 3644 3643
M  V30 4076 1 3644 3647 CFG=6
M  V30 4077 1 3644 3658
M  V30 4078 1 3645 3644
M  V30 4079 1 3646 3645
M  V30 4080 1 3648 3653
M  V30 4081 2 3649 3648
M  V30 4082 1 3649 3650
M  V30 4083 2 3650 3651
M  V30 4084 1 3651 3652
M  V30 4085 1 3651 3656
M  V30 4086 1 3652 3654
M  V30 4087 2 3653 3652
M  V30 4088 2 3654 3655
M  V30 4089 1 3656 3655
M  V30 4090 1 3657 3656
M  V30 4091 2 3659 3658
M  V30 4092 1 3659 3660
M  V30 4093 2 3660 3665
M  V30 4094 1 3660 3661
M  V30 4095 2 3661 3662
M  V30 4096 1 3662 3663
M  V30 4097 1 3663 3668
M  V30 4098 2 3664 3663
M  V30 4099 1 3664 3666
M  V30 4100 1 3665 3664
M  V30 4101 2 3666 3667
M  V30 4102 1 3667 3668
M  V30 4103 1 3668 3669
M  V30 4104 1 3670 3671
M  V30 4105 1 3671 3676
M  V30 4106 2 3672 3671
M  V30 4107 1 3672 3673
M  V30 4108 1 3673 3678 CFG=1
M  V30 4109 1 3673 3674
M  V30 4110 1 3674 3675
M  V30 4111 1 3674 3677 CFG=1
M  V30 4112 1 3688 3674
M  V30 4113 1 3675 3676
M  V30 4114 2 3679 3678
M  V30 4115 1 3683 3678
M  V30 4116 1 3680 3679
M  V30 4117 2 3680 3681
M  V30 4118 1 3681 3682
M  V30 4119 1 3686 3681
M  V30 4120 2 3682 3683
M  V30 4121 1 3684 3682
M  V30 4122 2 3685 3684
M  V30 4123 1 3686 3685
M  V30 4124 1 3687 3686
M  V30 4125 2 3689 3688
M  V30 4126 1 3690 3689
M  V30 4127 1 3690 3695
M  V30 4128 2 3691 3690
M  V30 4129 1 3692 3691
M  V30 4130 2 3692 3693
M  V30 4131 1 3693 3694
M  V30 4132 1 3698 3693
M  V30 4133 1 3694 3696
M  V30 4134 2 3694 3695
M  V30 4135 2 3697 3696
M  V30 4136 1 3698 3697
M  V30 4137 1 3699 3698
M  V30 4138 1 3701 3700
M  V30 4139 2 3701 3702
M  V30 4140 1 3706 3701
M  V30 4141 1 3703 3702
M  V30 4142 1 3703 3708 CFG=1
M  V30 4143 1 3704 3703
M  V30 4144 1 3704 3707 CFG=6
M  V30 4145 1 3705 3704
M  V30 4146 1 3718 3704
M  V30 4147 1 3705 3706
M  V30 4148 1 3708 3709
M  V30 4149 2 3713 3708
M  V30 4150 2 3709 3710
M  V30 4151 1 3711 3710
M  V30 4152 1 3711 3716
M  V30 4153 2 3712 3711
M  V30 4154 1 3713 3712
M  V30 4155 1 3714 3712
M  V30 4156 2 3714 3715
M  V30 4157 1 3715 3716
M  V30 4158 1 3716 3717
M  V30 4159 2 3719 3718
M  V30 4160 1 3720 3719
M  V30 4161 1 3720 3725
M  V30 4162 2 3721 3720
M  V30 4163 1 3722 3721
M  V30 4164 2 3722 3723
M  V30 4165 1 3723 3724
M  V30 4166 1 3728 3723
M  V30 4167 1 3724 3726
M  V30 4168 2 3724 3725
M  V30 4169 2 3727 3726
M  V30 4170 1 3728 3727
M  V30 4171 1 3729 3728
M  V30 4172 1 3731 3730
M  V30 4173 2 3731 3732
M  V30 4174 1 3736 3731
M  V30 4175 1 3733 3732
M  V30 4176 1 3733 3738 CFG=6
M  V30 4177 1 3734 3733
M  V30 4178 1 3734 3737 CFG=6
M  V30 4179 1 3734 3735
M  V30 4180 1 3748 3734
M  V30 4181 1 3735 3736
M  V30 4182 1 3738 3743
M  V30 4183 2 3739 3738
M  V30 4184 1 3740 3739
M  V30 4185 2 3740 3741
M  V30 4186 1 3741 3742
M  V30 4187 1 3746 3741
M  V30 4188 2 3742 3743
M  V30 4189 1 3742 3744
M  V30 4190 2 3745 3744
M  V30 4191 1 3746 3745
M  V30 4192 1 3747 3746
M  V30 4193 2 3748 3749
M  V30 4194 1 3750 3749
M  V30 4195 1 3750 3755
M  V30 4196 2 3751 3750
M  V30 4197 1 3752 3751
M  V30 4198 2 3752 3753
M  V30 4199 1 3753 3754
M  V30 4200 1 3758 3753
M  V30 4201 2 3754 3755
M  V30 4202 1 3754 3756
M  V30 4203 2 3757 3756
M  V30 4204 1 3758 3757
M  V30 4205 1 3759 3758
M  V30 4206 1 3761 3760
M  V30 4207 2 3761 3762
M  V30 4208 1 3766 3761
M  V30 4209 1 3762 3763
M  V30 4210 1 3763 3768 CFG=1
M  V30 4211 1 3764 3763
M  V30 4212 1 3764 3767 CFG=1
M  V30 4213 1 3765 3764
M  V30 4214 1 3778 3764
M  V30 4215 1 3765 3766
M  V30 4216 2 3768 3769
M  V30 4217 1 3768 3773
M  V30 4218 1 3769 3770
M  V30 4219 2 3770 3771
M  V30 4220 1 3771 3776
M  V30 4221 1 3772 3771
M  V30 4222 1 3772 3774
M  V30 4223 2 3773 3772
M  V30 4224 2 3774 3775
M  V30 4225 1 3776 3775
M  V30 4226 1 3776 3777
M  V30 4227 2 3779 3778
M  V30 4228 1 3780 3779
M  V30 4229 1 3780 3785
M  V30 4230 2 3781 3780
M  V30 4231 1 3782 3781
M  V30 4232 2 3782 3783
M  V30 4233 1 3783 3784
M  V30 4234 1 3788 3783
M  V30 4235 1 3784 3786
M  V30 4236 2 3784 3785
M  V30 4237 2 3787 3786
M  V30 4238 1 3788 3787
M  V30 4239 1 3789 3788
M  V30 4240 2 3790 3791
M  V30 4241 1 3790 3795
M  V30 4242 1 3807 3790
M  V30 4243 1 3791 3792
M  V30 4244 1 3792 3809
M  V30 4245 2 3792 3793
M  V30 4246 1 3793 3799
M  V30 4247 1 3794 3793
M  V30 4248 1 3794 3796
M  V30 4249 2 3795 3794
M  V30 4250 1 3811 3795
M  V30 4251 1 3796 3797
M  V30 4252 1 3797 3798
M  V30 4253 1 3797 3801 CFG=1
M  V30 4254 1 3799 3798
M  V30 4255 2 3799 3800
M  V30 4256 1 3801 3802
M  V30 4257 2 3806 3801
M  V30 4258 2 3802 3803
M  V30 4259 1 3804 3803
M  V30 4260 2 3805 3804
M  V30 4261 1 3806 3805
M  V30 4262 1 3808 3807
M  V30 4263 1 3809 3810
M  V30 4264 1 3812 3811
M  V30 4265 1 3812 3813
M  V30 4266 2 3817 3812
M  V30 4267 2 3814 3813
M  V30 4268 1 3815 3814
M  V30 4269 2 3816 3815
M  V30 4270 1 3816 3817
M  V30 4271 1 3818 3817
M  V30 4272 1 3818 3819
M  V30 4273 1 3820 3825
M  V30 4274 2 3821 3820
M  V30 4275 1 3837 3820
M  V30 4276 1 3821 3822
M  V30 4277 2 3822 3823
M  V30 4278 1 3839 3822
M  V30 4279 1 3823 3829
M  V30 4280 1 3823 3824
M  V30 4281 1 3824 3826
M  V30 4282 2 3825 3824
M  V30 4283 1 3825 3841
M  V30 4284 1 3826 3827
M  V30 4285 1 3827 3831 CFG=6
M  V30 4286 1 3828 3827
M  V30 4287 1 3829 3828
M  V30 4288 2 3830 3829
M  V30 4289 1 3831 3836
M  V30 4290 2 3832 3831
M  V30 4291 1 3832 3833
M  V30 4292 2 3833 3834
M  V30 4293 1 3834 3835
M  V30 4294 2 3836 3835
M  V30 4295 1 3838 3837
M  V30 4296 1 3839 3840
M  V30 4297 1 3841 3842
M  V30 4298 2 3842 3843
M  V30 4299 1 3842 3847
M  V30 4300 1 3843 3844
M  V30 4301 2 3844 3845
M  V30 4302 1 3846 3845
M  V30 4303 2 3847 3846
M  V30 4304 1 3848 3847
M  V30 4305 1 3849 3848
M  V30 4306 1 3850 3855
M  V30 4307 2 3851 3850
M  V30 4308 1 3867 3850
M  V30 4309 1 3851 3852
M  V30 4310 2 3852 3853
M  V30 4311 1 3869 3852
M  V30 4312 1 3853 3854
M  V30 4313 1 3853 3859
M  V30 4314 1 3854 3856
M  V30 4315 2 3855 3854
M  V30 4316 1 3855 3871
M  V30 4317 1 3856 3857
M  V30 4318 1 3857 3861 CFG=6
M  V30 4319 1 3858 3857
M  V30 4320 1 3858 3859
M  V30 4321 2 3859 3860
M  V30 4322 1 3861 3866
M  V30 4323 2 3862 3861
M  V30 4324 1 3863 3862
M  V30 4325 2 3863 3864
M  V30 4326 1 3864 3865
M  V30 4327 2 3865 3866
M  V30 4328 1 3868 3867
M  V30 4329 1 3870 3869
M  V30 4330 1 3871 3872
M  V30 4331 2 3872 3877
M  V30 4332 1 3872 3873
M  V30 4333 2 3873 3874
M  V30 4334 1 3874 3875
M  V30 4335 2 3876 3875
M  V30 4336 1 3877 3876
M  V30 4337 1 3878 3877
M  V30 4338 1 3879 3878
M  V30 4339 2 3880 3885
M  V30 4340 1 3880 3881
M  V30 4341 1 3897 3880
M  V30 4342 2 3881 3882
M  V30 4343 1 3882 3883
M  V30 4344 1 3882 3899
M  V30 4345 1 3883 3889
M  V30 4346 2 3884 3883
M  V30 4347 1 3884 3886
M  V30 4348 1 3885 3884
M  V30 4349 1 3901 3885
M  V30 4350 1 3886 3887
M  V30 4351 1 3887 3891 CFG=6
M  V30 4352 1 3888 3887
M  V30 4353 1 3888 3889
M  V30 4354 2 3889 3890
M  V30 4355 1 3891 3896
M  V30 4356 2 3892 3891
M  V30 4357 1 3893 3892
M  V30 4358 2 3893 3894
M  V30 4359 1 3894 3895
M  V30 4360 2 3895 3896
M  V30 4361 1 3898 3897
M  V30 4362 1 3900 3899
M  V30 4363 1 3901 3902
M  V30 4364 2 3902 3903
M  V30 4365 1 3902 3907
M  V30 4366 1 3903 3904
M  V30 4367 2 3904 3905
M  V30 4368 1 3906 3905
M  V30 4369 2 3907 3906
M  V30 4370 1 3908 3907
M  V30 4371 1 3908 3909
M  V30 4372 1 3910 3927
M  V30 4373 2 3911 3910
M  V30 4374 1 3915 3910
M  V30 4375 1 3912 3911
M  V30 4376 2 3913 3912
M  V30 4377 1 3929 3912
M  V30 4378 1 3913 3914
M  V30 4379 1 3919 3913
M  V30 4380 2 3914 3915
M  V30 4381 1 3916 3914
M  V30 4382 1 3915 3931
M  V30 4383 1 3917 3916
M  V30 4384 1 3917 3921 CFG=1
M  V30 4385 1 3918 3917
M  V30 4386 1 3919 3918
M  V30 4387 2 3920 3919
M  V30 4388 1 3921 3922
M  V30 4389 2 3926 3921
M  V30 4390 2 3922 3923
M  V30 4391 1 3924 3923
M  V30 4392 2 3925 3924
M  V30 4393 1 3926 3925
M  V30 4394 1 3927 3928
M  V30 4395 1 3930 3929
M  V30 4396 1 3931 3932
M  V30 4397 1 3932 3937
M  V30 4398 2 3933 3932
M  V30 4399 1 3933 3934
M  V30 4400 2 3934 3935
M  V30 4401 1 3935 3936
M  V30 4402 2 3937 3936
M  V30 4403 1 3937 3938
M  V30 4404 1 3939 3938
M  V30 4405 1 3940 3957
M  V30 4406 1 3940 3945
M  V30 4407 2 3941 3940
M  V30 4408 1 3942 3941
M  V30 4409 2 3942 3943
M  V30 4410 1 3959 3942
M  V30 4411 1 3943 3944
M  V30 4412 1 3949 3943
M  V30 4413 2 3944 3945
M  V30 4414 1 3944 3946
M  V30 4415 1 3945 3961
M  V30 4416 1 3946 3947
M  V30 4417 1 3947 3951 CFG=6
M  V30 4418 1 3948 3947
M  V30 4419 1 3949 3948
M  V30 4420 2 3950 3949
M  V30 4421 1 3951 3956
M  V30 4422 2 3952 3951
M  V30 4423 1 3952 3953
M  V30 4424 2 3953 3954
M  V30 4425 1 3954 3955
M  V30 4426 2 3956 3955
M  V30 4427 1 3957 3958
M  V30 4428 1 3960 3959
M  V30 4429 1 3962 3961
M  V30 4430 1 3963 3962
M  V30 4431 2 3967 3962
M  V30 4432 2 3964 3963
M  V30 4433 1 3965 3964
M  V30 4434 2 3965 3966
M  V30 4435 1 3966 3967
M  V30 4436 1 3967 3968
M  V30 4437 1 3968 3969
M  V30 4438 2 3970 3975
M  V30 4439 1 3970 3971
M  V30 4440 1 3987 3970
M  V30 4441 2 3971 3972
M  V30 4442 1 3972 3973
M  V30 4443 1 3972 3989
M  V30 4444 1 3973 3979
M  V30 4445 2 3974 3973
M  V30 4446 1 3974 3976
M  V30 4447 1 3975 3974
M  V30 4448 1 3991 3975
M  V30 4449 1 3976 3977
M  V30 4450 1 3977 3981 CFG=6
M  V30 4451 1 3977 3978
M  V30 4452 1 3979 3978
M  V30 4453 2 3979 3980
M  V30 4454 1 3981 3986
M  V30 4455 2 3982 3981
M  V30 4456 1 3982 3983
M  V30 4457 2 3983 3984
M  V30 4458 1 3984 3985
M  V30 4459 2 3985 3986
M  V30 4460 1 3988 3987
M  V30 4461 1 3990 3989
M  V30 4462 1 3991 3992
M  V30 4463 1 3992 3993
M  V30 4464 2 3997 3992
M  V30 4465 2 3993 3994
M  V30 4466 1 3995 3994
M  V30 4467 2 3996 3995
M  V30 4468 1 3997 3996
M  V30 4469 1 3998 3997
M  V30 4470 1 3999 3998
M  V30 4471 1 4000 4005
M  V30 4472 1 4000 4017
M  V30 4473 2 4001 4000
M  V30 4474 1 4002 4001
M  V30 4475 2 4002 4003
M  V30 4476 1 4019 4002
M  V30 4477 1 4003 4004
M  V30 4478 1 4009 4003
M  V30 4479 1 4004 4006
M  V30 4480 2 4004 4005
M  V30 4481 1 4005 4021
M  V30 4482 1 4007 4006
M  V30 4483 1 4007 4011 CFG=6
M  V30 4484 1 4008 4007
M  V30 4485 1 4008 4009
M  V30 4486 2 4010 4009
M  V30 4487 1 4011 4016
M  V30 4488 2 4012 4011
M  V30 4489 1 4012 4013
M  V30 4490 2 4013 4014
M  V30 4491 1 4014 4015
M  V30 4492 2 4016 4015
M  V30 4493 1 4018 4017
M  V30 4494 1 4020 4019
M  V30 4495 1 4021 4022
M  V30 4496 2 4022 4027
M  V30 4497 1 4022 4023
M  V30 4498 2 4023 4024
M  V30 4499 1 4024 4025
M  V30 4500 2 4026 4025
M  V30 4501 1 4027 4026
M  V30 4502 1 4028 4027
M  V30 4503 1 4028 4029
M  V30 4504 1 4030 4031
M  V30 4505 2 4035 4030
M  V30 4506 1 4047 4030
M  V30 4507 2 4031 4032
M  V30 4508 1 4032 4049
M  V30 4509 1 4033 4032
M  V30 4510 1 4033 4039
M  V30 4511 2 4034 4033
M  V30 4512 1 4035 4034
M  V30 4513 1 4036 4034
M  V30 4514 1 4051 4035
M  V30 4515 1 4036 4037
M  V30 4516 1 4037 4041 CFG=6
M  V30 4517 1 4037 4038
M  V30 4518 1 4038 4039
M  V30 4519 2 4039 4040
M  V30 4520 2 4042 4041
M  V30 4521 1 4046 4041
M  V30 4522 1 4043 4042
M  V30 4523 2 4044 4043
M  V30 4524 1 4044 4045
M  V30 4525 2 4045 4046
M  V30 4526 1 4047 4048
M  V30 4527 1 4050 4049
M  V30 4528 1 4051 4052
M  V30 4529 1 4052 4053
M  V30 4530 2 4057 4052
M  V30 4531 2 4053 4054
M  V30 4532 1 4055 4054
M  V30 4533 2 4056 4055
M  V30 4534 1 4057 4056
M  V30 4535 1 4058 4057
M  V30 4536 1 4059 4058
M  V30 4537 1 4060 4079 CFG=1
M  V30 4538 1 4060 4061
M  V30 4539 1 4060 4077
M  V30 4540 1 4061 4062
M  V30 4541 1 4062 4063
M  V30 4542 1 4063 4078 CFG=6
M  V30 4543 1 4063 4068
M  V30 4544 1 4064 4063
M  V30 4545 2 4064 4065
M  V30 4546 1 4077 4064
M  V30 4547 1 4065 4066
M  V30 4548 2 4066 4067
M  V30 4549 1 4067 4072
M  V30 4550 1 4068 4067
M  V30 4551 1 4068 4069 CFG=6
M  V30 4552 1 4069 4070
M  V30 4553 1 4070 4071
M  V30 4554 1 4071 4076 CFG=6
M  V30 4555 1 4071 4075
M  V30 4556 1 4072 4071
M  V30 4557 1 4072 4073 CFG=1
M  V30 4558 1 4073 4074
M  V30 4559 1 4075 4074
M  V30 4560 1 4075 4081 CFG=6
M  V30 4561 1 4080 4079
M  V30 4562 1 4081 4082 CFG=6
M  V30 4563 1 4083 4081
M  V30 4564 2 4083 4084
M  V30 4565 1 4085 4084
M  V30 4566 1 4085 4086 CFG=6
M  V30 4567 1 4087 4085
M  V30 4568 1 4088 4087
M  V30 4569 1 4089 4087
M  V30 4570 1 4090 4109 CFG=6
M  V30 4571 1 4090 4091
M  V30 4572 1 4107 4090
M  V30 4573 1 4092 4091
M  V30 4574 1 4093 4092
M  V30 4575 1 4093 4108 CFG=6
M  V30 4576 1 4094 4093
M  V30 4577 1 4098 4093
M  V30 4578 1 4094 4107
M  V30 4579 2 4095 4094
M  V30 4580 1 4096 4095
M  V30 4581 2 4096 4097
M  V30 4582 1 4097 4098
M  V30 4583 1 4102 4097
M  V30 4584 1 4098 4099 CFG=6
M  V30 4585 1 4100 4099
M  V30 4586 1 4101 4100
M  V30 4587 1 4101 4106 CFG=6
M  V30 4588 1 4102 4101
M  V30 4589 1 4105 4101
M  V30 4590 1 4102 4103 CFG=6
M  V30 4591 1 4104 4103
M  V30 4592 1 4104 4105
M  V30 4593 1 4105 4111 CFG=6
M  V30 4594 1 4110 4109
M  V30 4595 1 4111 4112 CFG=6
M  V30 4596 1 4113 4111
M  V30 4597 2 4114 4113
M  V30 4598 1 4115 4114
M  V30 4599 1 4115 4116 CFG=1
M  V30 4600 1 4115 4117
M  V30 4601 1 4117 4118
M  V30 4602 1 4117 4119
M  V30 4603 1 4120 4139 CFG=6
M  V30 4604 1 4120 4137
M  V30 4605 1 4121 4120
M  V30 4606 1 4122 4121
M  V30 4607 1 4122 4123
M  V30 4608 1 4123 4138 CFG=6
M  V30 4609 1 4123 4128
M  V30 4610 1 4123 4124
M  V30 4611 1 4124 4137
M  V30 4612 2 4124 4125
M  V30 4613 1 4126 4125
M  V30 4614 2 4127 4126
M  V30 4615 1 4128 4127
M  V30 4616 1 4132 4127
M  V30 4617 1 4128 4129 CFG=6
M  V30 4618 1 4129 4130
M  V30 4619 1 4130 4131
M  V30 4620 1 4131 4136 CFG=6
M  V30 4621 1 4131 4135
M  V30 4622 1 4131 4132
M  V30 4623 1 4132 4133 CFG=1
M  V30 4624 1 4134 4133
M  V30 4625 1 4135 4134
M  V30 4626 1 4135 4141 CFG=6
M  V30 4627 1 4139 4140
M  V30 4628 1 4141 4142 CFG=1
M  V30 4629 1 4143 4141
M  V30 4630 2 4144 4143
M  V30 4631 1 4145 4144
M  V30 4632 1 4145 4146 CFG=1
M  V30 4633 1 4145 4147
M  V30 4634 1 4147 4148
M  V30 4635 1 4149 4147
M  V30 4636 1 4150 4169 CFG=6
M  V30 4637 1 4150 4167
M  V30 4638 1 4151 4150
M  V30 4639 1 4152 4151
M  V30 4640 1 4152 4153
M  V30 4641 1 4153 4168 CFG=6
M  V30 4642 1 4153 4158
M  V30 4643 1 4153 4154
M  V30 4644 1 4154 4167
M  V30 4645 2 4154 4155
M  V30 4646 1 4156 4155
M  V30 4647 2 4157 4156
M  V30 4648 1 4157 4162
M  V30 4649 1 4158 4157
M  V30 4650 1 4158 4159 CFG=6
M  V30 4651 1 4159 4160
M  V30 4652 1 4160 4161
M  V30 4653 1 4161 4166 CFG=6
M  V30 4654 1 4161 4165
M  V30 4655 1 4161 4162
M  V30 4656 1 4162 4163 CFG=1
M  V30 4657 1 4164 4163
M  V30 4658 1 4165 4164
M  V30 4659 1 4165 4171 CFG=6
M  V30 4660 1 4170 4169
M  V30 4661 1 4171 4172 CFG=6
M  V30 4662 1 4173 4171
M  V30 4663 2 4174 4173
M  V30 4664 1 4175 4174
M  V30 4665 1 4175 4176 CFG=6
M  V30 4666 1 4177 4175
M  V30 4667 1 4177 4179
M  V30 4668 1 4177 4178
M  V30 4669 1 4180 4199 CFG=1
M  V30 4670 1 4181 4180
M  V30 4671 1 4197 4180
M  V30 4672 1 4181 4182
M  V30 4673 1 4182 4183
M  V30 4674 1 4183 4198 CFG=1
M  V30 4675 1 4184 4183
M  V30 4676 1 4188 4183
M  V30 4677 2 4185 4184
M  V30 4678 1 4197 4184
M  V30 4679 1 4185 4186
M  V30 4680 2 4186 4187
M  V30 4681 1 4187 4188
M  V30 4682 1 4192 4187
M  V30 4683 1 4188 4189 CFG=1
M  V30 4684 1 4190 4189
M  V30 4685 1 4190 4191
M  V30 4686 1 4191 4196 CFG=1
M  V30 4687 1 4192 4191
M  V30 4688 1 4195 4191
M  V30 4689 1 4192 4193 CFG=1
M  V30 4690 1 4193 4194
M  V30 4691 1 4194 4195
M  V30 4692 1 4195 4201 CFG=1
M  V30 4693 1 4199 4200
M  V30 4694 1 4201 4202 CFG=6
M  V30 4695 1 4201 4203
M  V30 4696 2 4203 4204
M  V30 4697 1 4204 4205
M  V30 4698 1 4205 4206 CFG=6
M  V30 4699 1 4205 4207
M  V30 4700 1 4207 4209
M  V30 4701 1 4208 4207
M  V30 4702 1 4210 4229 CFG=6
M  V30 4703 1 4210 4227
M  V30 4704 1 4211 4210
M  V30 4705 1 4212 4211
M  V30 4706 1 4212 4213
M  V30 4707 1 4213 4228 CFG=6
M  V30 4708 1 4213 4218
M  V30 4709 1 4213 4214
M  V30 4710 2 4214 4215
M  V30 4711 1 4227 4214
M  V30 4712 1 4215 4216
M  V30 4713 2 4217 4216
M  V30 4714 1 4217 4222
M  V30 4715 1 4218 4217
M  V30 4716 1 4218 4219 CFG=6
M  V30 4717 1 4219 4220
M  V30 4718 1 4220 4221
M  V30 4719 1 4221 4226 CFG=6
M  V30 4720 1 4221 4225
M  V30 4721 1 4221 4222
M  V30 4722 1 4222 4223 CFG=1
M  V30 4723 1 4223 4224
M  V30 4724 1 4225 4224
M  V30 4725 1 4225 4231 CFG=6
M  V30 4726 1 4230 4229
M  V30 4727 1 4231 4232 CFG=1
M  V30 4728 1 4233 4231
M  V30 4729 2 4234 4233
M  V30 4730 1 4235 4234
M  V30 4731 1 4235 4236 CFG=1
M  V30 4732 1 4237 4235
M  V30 4733 1 4237 4238
M  V30 4734 1 4239 4237
M  V30 4735 1 4240 4259 CFG=6
M  V30 4736 1 4240 4241
M  V30 4737 1 4257 4240
M  V30 4738 1 4242 4241
M  V30 4739 1 4243 4242
M  V30 4740 1 4243 4258 CFG=6
M  V30 4741 1 4243 4248
M  V30 4742 1 4244 4243
M  V30 4743 1 4244 4257
M  V30 4744 2 4245 4244
M  V30 4745 1 4246 4245
M  V30 4746 2 4246 4247
M  V30 4747 1 4247 4252
M  V30 4748 1 4247 4248
M  V30 4749 1 4248 4249 CFG=6
M  V30 4750 1 4249 4250
M  V30 4751 1 4251 4250
M  V30 4752 1 4251 4256 CFG=6
M  V30 4753 1 4251 4252
M  V30 4754 1 4251 4255
M  V30 4755 1 4252 4253 CFG=6
M  V30 4756 1 4253 4254
M  V30 4757 1 4254 4255
M  V30 4758 1 4255 4261 CFG=6
M  V30 4759 1 4260 4259
M  V30 4760 1 4261 4262 CFG=6
M  V30 4761 1 4261 4263
M  V30 4762 2 4264 4263
M  V30 4763 1 4264 4265
M  V30 4764 1 4265 4266 CFG=6
M  V30 4765 1 4267 4265
M  V30 4766 1 4267 4268
M  V30 4767 1 4269 4267
M  V30 4768 1 4270 4271
M  V30 4769 1 4270 4289 CFG=1
M  V30 4770 1 4287 4270
M  V30 4771 1 4272 4271
M  V30 4772 1 4273 4272
M  V30 4773 1 4273 4288 CFG=1
M  V30 4774 1 4274 4273
M  V30 4775 1 4278 4273
M  V30 4776 1 4274 4287
M  V30 4777 2 4275 4274
M  V30 4778 1 4276 4275
M  V30 4779 2 4276 4277
M  V30 4780 1 4277 4278
M  V30 4781 1 4282 4277
M  V30 4782 1 4278 4279 CFG=1
M  V30 4783 1 4280 4279
M  V30 4784 1 4281 4280
M  V30 4785 1 4281 4286 CFG=1
M  V30 4786 1 4282 4281
M  V30 4787 1 4285 4281
M  V30 4788 1 4282 4283 CFG=6
M  V30 4789 1 4284 4283
M  V30 4790 1 4284 4285
M  V30 4791 1 4285 4291 CFG=6
M  V30 4792 1 4290 4289
M  V30 4793 1 4291 4292 CFG=6
M  V30 4794 1 4291 4293
M  V30 4795 2 4293 4294
M  V30 4796 1 4294 4295
M  V30 4797 1 4295 4296 CFG=6
M  V30 4798 1 4297 4295
M  V30 4799 1 4297 4299
M  V30 4800 1 4298 4297
M  V30 4801 1 4300 4319 CFG=1
M  V30 4802 1 4300 4301
M  V30 4803 1 4317 4300
M  V30 4804 1 4301 4302
M  V30 4805 1 4303 4302
M  V30 4806 1 4303 4318 CFG=6
M  V30 4807 1 4303 4308
M  V30 4808 1 4304 4303
M  V30 4809 2 4305 4304
M  V30 4810 1 4317 4304
M  V30 4811 1 4305 4306
M  V30 4812 2 4306 4307
M  V30 4813 1 4307 4308
M  V30 4814 1 4307 4312
M  V30 4815 1 4308 4309 CFG=1
M  V30 4816 1 4309 4310
M  V30 4817 1 4311 4310
M  V30 4818 1 4311 4316 CFG=6
M  V30 4819 1 4311 4315
M  V30 4820 1 4312 4311
M  V30 4821 1 4312 4313 CFG=6
M  V30 4822 1 4313 4314
M  V30 4823 1 4314 4315
M  V30 4824 1 4315 4321 CFG=6
M  V30 4825 1 4320 4319
M  V30 4826 1 4321 4322 CFG=1
M  V30 4827 1 4323 4321
M  V30 4828 2 4324 4323
M  V30 4829 1 4325 4324
M  V30 4830 1 4325 4326 CFG=6
M  V30 4831 1 4327 4325
M  V30 4832 1 4328 4327
M  V30 4833 1 4329 4327
M  V30 4834 1 4330 4331
M  V30 4835 2 4335 4330
M  V30 4836 1 4355 4330
M  V30 4837 2 4331 4332
M  V30 4838 1 4333 4332
M  V30 4839 2 4334 4333
M  V30 4840 1 4335 4334
M  V30 4841 1 4346 4334
M  V30 4842 1 4336 4335
M  V30 4843 1 4336 4337
M  V30 4844 2 4344 4336
M  V30 4845 1 4337 4338
M  V30 4846 2 4341 4337
M  V30 4847 1 4339 4338
M  V30 4848 1 4340 4339
M  V30 4849 1 4341 4340
M  V30 4850 1 4342 4341
M  V30 4851 2 4343 4342
M  V30 4852 1 4343 4344
M  V30 4853 1 4353 4343
M  V30 4854 1 4345 4344
M  V30 4855 2 4345 4346
M  V30 4856 1 4351 4345
M  V30 4857 1 4347 4346
M  V30 4858 2 4347 4348
M  V30 4859 1 4349 4347
M  V30 4860 2 4350 4349
M  V30 4861 1 4351 4349
M  V30 4862 1 4352 4351
M  V30 4863 2 4353 4352
M  V30 4864 1 4354 4355
M  V30 4865 2 4356 4357
M  V30 4866 1 4356 4361
M  V30 4867 1 4381 4356
M  V30 4868 1 4357 4358
M  V30 4869 2 4358 4359
M  V30 4870 1 4360 4359
M  V30 4871 1 4360 4372
M  V30 4872 2 4361 4360
M  V30 4873 1 4362 4361
M  V30 4874 1 4362 4370
M  V30 4875 2 4363 4362
M  V30 4876 1 4364 4363
M  V30 4877 1 4367 4363
M  V30 4878 1 4365 4364
M  V30 4879 1 4365 4366
M  V30 4880 1 4366 4367
M  V30 4881 2 4367 4368
M  V30 4882 1 4368 4369
M  V30 4883 2 4369 4370
M  V30 4884 1 4369 4379
M  V30 4885 1 4370 4371
M  V30 4886 2 4371 4372
M  V30 4887 1 4371 4377
M  V30 4888 1 4372 4373
M  V30 4889 1 4373 4375
M  V30 4890 2 4373 4374
M  V30 4891 2 4375 4376
M  V30 4892 1 4377 4375
M  V30 4893 1 4378 4377
M  V30 4894 2 4379 4378
M  V30 4895 1 4380 4381
M  V30 4896 1 4382 4407
M  V30 4897 2 4383 4382
M  V30 4898 1 4387 4382
M  V30 4899 1 4384 4383
M  V30 4900 2 4385 4384
M  V30 4901 1 4385 4386
M  V30 4902 1 4386 4387
M  V30 4903 2 4398 4386
M  V30 4904 2 4387 4388
M  V30 4905 1 4388 4389
M  V30 4906 1 4396 4388
M  V30 4907 2 4389 4393
M  V30 4908 1 4389 4390
M  V30 4909 1 4390 4391
M  V30 4910 1 4392 4391
M  V30 4911 1 4393 4392
M  V30 4912 1 4394 4393
M  V30 4913 2 4395 4394
M  V30 4914 1 4396 4395
M  V30 4915 1 4405 4395
M  V30 4916 2 4397 4396
M  V30 4917 1 4398 4397
M  V30 4918 1 4403 4397
M  V30 4919 1 4399 4398
M  V30 4920 1 4399 4401
M  V30 4921 2 4400 4399
M  V30 4922 1 4401 4403
M  V30 4923 2 4402 4401
M  V30 4924 1 4403 4404
M  V30 4925 2 4404 4405
M  V30 4926 1 4407 4406
M  V30 4927 1 4408 4409
M  V30 4928 2 4413 4408
M  V30 4929 1 4433 4408
M  V30 4930 2 4409 4410
M  V30 4931 1 4410 4411
M  V30 4932 2 4412 4411
M  V30 4933 1 4412 4424
M  V30 4934 1 4413 4412
M  V30 4935 1 4414 4413
M  V30 4936 1 4414 4422
M  V30 4937 2 4415 4414
M  V30 4938 1 4416 4415
M  V30 4939 1 4419 4415
M  V30 4940 1 4417 4416
M  V30 4941 1 4417 4418
M  V30 4942 1 4418 4419
M  V30 4943 2 4419 4420
M  V30 4944 1 4420 4421
M  V30 4945 1 4421 4431
M  V30 4946 2 4421 4422
M  V30 4947 1 4422 4423
M  V30 4948 1 4423 4429
M  V30 4949 2 4423 4424
M  V30 4950 1 4424 4425
M  V30 4951 2 4425 4426
M  V30 4952 1 4427 4425
M  V30 4953 2 4427 4428
M  V30 4954 1 4429 4427
M  V30 4955 1 4430 4429
M  V30 4956 2 4431 4430
M  V30 4957 1 4433 4432
M  V30 4958 2 4434 4435
M  V30 4959 1 4434 4439
M  V30 4960 1 4459 4434
M  V30 4961 1 4435 4436
M  V30 4962 2 4436 4437
M  V30 4963 1 4438 4437
M  V30 4964 1 4438 4450
M  V30 4965 2 4439 4438
M  V30 4966 1 4440 4439
M  V30 4967 1 4440 4448
M  V30 4968 2 4441 4440
M  V30 4969 1 4442 4441
M  V30 4970 1 4445 4441
M  V30 4971 1 4443 4442
M  V30 4972 1 4443 4444
M  V30 4973 1 4444 4445
M  V30 4974 2 4445 4446
M  V30 4975 1 4446 4447
M  V30 4976 2 4447 4448
M  V30 4977 1 4447 4457
M  V30 4978 1 4448 4449
M  V30 4979 2 4449 4450
M  V30 4980 1 4449 4455
M  V30 4981 1 4450 4451
M  V30 4982 1 4451 4453
M  V30 4983 2 4451 4452
M  V30 4984 2 4453 4454
M  V30 4985 1 4455 4453
M  V30 4986 1 4456 4455
M  V30 4987 2 4457 4456
M  V30 4988 1 4458 4459
M  V30 4989 1 4460 4485
M  V30 4990 1 4460 4465
M  V30 4991 2 4461 4460
M  V30 4992 1 4462 4461
M  V30 4993 2 4462 4463
M  V30 4994 1 4463 4464
M  V30 4995 2 4464 4465
M  V30 4996 1 4464 4476
M  V30 4997 1 4465 4466
M  V30 4998 2 4466 4467
M  V30 4999 1 4466 4474
M  V30 5000 1 4467 4471
M  V30 5001 1 4468 4467
M  V30 5002 1 4468 4469
M  V30 5003 1 4469 4470
M  V30 5004 1 4471 4470
M  V30 5005 2 4471 4472
M  V30 5006 1 4473 4472
M  V30 5007 1 4473 4483
M  V30 5008 2 4474 4473
M  V30 5009 1 4475 4474
M  V30 5010 1 4475 4481
M  V30 5011 2 4476 4475
M  V30 5012 1 4476 4477
M  V30 5013 1 4477 4479
M  V30 5014 2 4478 4477
M  V30 5015 2 4479 4480
M  V30 5016 1 4479 4481
M  V30 5017 1 4481 4482
M  V30 5018 2 4482 4483
M  V30 5019 1 4485 4484
M  V30 5020 1 4486 4491
M  V30 5021 2 4487 4486
M  V30 5022 1 4511 4486
M  V30 5023 1 4488 4487
M  V30 5024 2 4488 4489
M  V30 5025 1 4489 4490
M  V30 5026 2 4490 4502
M  V30 5027 1 4490 4491
M  V30 5028 2 4491 4492
M  V30 5029 1 4492 4493
M  V30 5030 1 4500 4492
M  V30 5031 1 4493 4494
M  V30 5032 2 4493 4497
M  V30 5033 1 4494 4495
M  V30 5034 1 4496 4495
M  V30 5035 1 4497 4496
M  V30 5036 1 4498 4497
M  V30 5037 2 4499 4498
M  V30 5038 1 4500 4499
M  V30 5039 1 4509 4499
M  V30 5040 2 4501 4500
M  V30 5041 1 4501 4507
M  V30 5042 1 4502 4501
M  V30 5043 1 4503 4502
M  V30 5044 1 4503 4505
M  V30 5045 2 4504 4503
M  V30 5046 1 4505 4507
M  V30 5047 2 4506 4505
M  V30 5048 1 4507 4508
M  V30 5049 2 4508 4509
M  V30 5050 1 4511 4510
M  V30 5051 1 4512 4537
M  V30 5052 1 4513 4512
M  V30 5053 2 4517 4512
M  V30 5054 2 4514 4513
M  V30 5055 1 4515 4514
M  V30 5056 2 4515 4516
M  V30 5057 1 4516 4517
M  V30 5058 1 4528 4516
M  V30 5059 1 4517 4518
M  V30 5060 1 4518 4519
M  V30 5061 2 4526 4518
M  V30 5062 1 4519 4520
M  V30 5063 2 4519 4523
M  V30 5064 1 4520 4521
M  V30 5065 1 4521 4522
M  V30 5066 1 4523 4522
M  V30 5067 1 4524 4523
M  V30 5068 2 4525 4524
M  V30 5069 1 4526 4525
M  V30 5070 1 4535 4525
M  V30 5071 1 4527 4526
M  V30 5072 2 4528 4527
M  V30 5073 1 4533 4527
M  V30 5074 1 4529 4528
M  V30 5075 1 4529 4531
M  V30 5076 2 4530 4529
M  V30 5077 1 4531 4533
M  V30 5078 2 4532 4531
M  V30 5079 1 4533 4534
M  V30 5080 2 4534 4535
M  V30 5081 1 4537 4536
M  V30 5082 1 4538 4563
M  V30 5083 1 4538 4539
M  V30 5084 2 4543 4538
M  V30 5085 2 4540 4539
M  V30 5086 1 4541 4540
M  V30 5087 2 4542 4541
M  V30 5088 1 4542 4543
M  V30 5089 1 4554 4542
M  V30 5090 1 4544 4543
M  V30 5091 1 4544 4545
M  V30 5092 2 4552 4544
M  V30 5093 1 4545 4546
M  V30 5094 2 4549 4545
M  V30 5095 1 4547 4546
M  V30 5096 1 4548 4547
M  V30 5097 1 4549 4548
M  V30 5098 1 4550 4549
M  V30 5099 2 4551 4550
M  V30 5100 1 4551 4552
M  V30 5101 1 4561 4551
M  V30 5102 1 4553 4552
M  V30 5103 2 4553 4554
M  V30 5104 1 4559 4553
M  V30 5105 1 4555 4554
M  V30 5106 2 4555 4556
M  V30 5107 1 4557 4555
M  V30 5108 1 4557 4559
M  V30 5109 2 4558 4557
M  V30 5110 1 4560 4559
M  V30 5111 2 4560 4561
M  V30 5112 1 4563 4562
M  V30 5113 1 4564 4565
M  V30 5114 1 4564 4583 CFG=1
M  V30 5115 1 4569 4564
M  V30 5116 1 4566 4565
M  V30 5117 1 4567 4566
M  V30 5118 1 4567 4582 CFG=6
M  V30 5119 1 4568 4567
M  V30 5120 1 4573 4567
M  V30 5121 1 4568 4570 CFG=1
M  V30 5122 1 4568 4569
M  V30 5123 1 4571 4570
M  V30 5124 1 4572 4571 CFG=1
M  V30 5125 1 4572 4573
M  V30 5126 1 4577 4572
M  V30 5127 1 4573 4574 CFG=6
M  V30 5128 1 4575 4574
M  V30 5129 1 4576 4575
M  V30 5130 1 4576 4581 CFG=6
M  V30 5131 1 4577 4576
M  V30 5132 1 4580 4576
M  V30 5133 1 4577 4578 CFG=6
M  V30 5134 1 4579 4578
M  V30 5135 1 4579 4580
M  V30 5136 1 4580 4585 CFG=6
M  V30 5137 1 4583 4584
M  V30 5138 1 4585 4586 CFG=6
M  V30 5139 1 4587 4585
M  V30 5140 1 4587 4588
M  V30 5141 1 4588 4589
M  V30 5142 1 4589 4590 CFG=6
M  V30 5143 1 4589 4591
M  V30 5144 1 4591 4592
M  V30 5145 1 4593 4591
M  V30 5146 1 4594 4613 CFG=6
M  V30 5147 1 4594 4599
M  V30 5148 1 4594 4595
M  V30 5149 1 4595 4596
M  V30 5150 1 4596 4597
M  V30 5151 1 4597 4612 CFG=6
M  V30 5152 1 4597 4603
M  V30 5153 1 4598 4597
M  V30 5154 1 4598 4599 CFG=6
M  V30 5155 1 4598 4600
M  V30 5156 1 4600 4601
M  V30 5157 1 4602 4601 CFG=1
M  V30 5158 1 4602 4607
M  V30 5159 1 4603 4602
M  V30 5160 1 4603 4604 CFG=1
M  V30 5161 1 4604 4605
M  V30 5162 1 4605 4606
M  V30 5163 1 4606 4611 CFG=6
M  V30 5164 1 4606 4610
M  V30 5165 1 4607 4606
M  V30 5166 1 4607 4608 CFG=1
M  V30 5167 1 4608 4609
M  V30 5168 1 4610 4609
M  V30 5169 1 4610 4615 CFG=1
M  V30 5170 1 4614 4613
M  V30 5171 1 4615 4616 CFG=6
M  V30 5172 1 4617 4615
M  V30 5173 2 4618 4617
M  V30 5174 1 4619 4618
M  V30 5175 1 4619 4620 CFG=6
M  V30 5176 1 4621 4619
M  V30 5177 1 4622 4621
M  V30 5178 1 4623 4621
M  V30 5179 1 4624 4643 CFG=6
M  V30 5180 1 4625 4624
M  V30 5181 1 4629 4624
M  V30 5182 1 4626 4625
M  V30 5183 1 4627 4626
M  V30 5184 1 4627 4642 CFG=6
M  V30 5185 1 4627 4633
M  V30 5186 1 4627 4628
M  V30 5187 1 4628 4629 CFG=1
M  V30 5188 1 4628 4630
M  V30 5189 1 4631 4630
M  V30 5190 1 4632 4631 CFG=1
M  V30 5191 1 4632 4637
M  V30 5192 1 4633 4632
M  V30 5193 1 4633 4634 CFG=6
M  V30 5194 1 4634 4635
M  V30 5195 1 4635 4636
M  V30 5196 1 4636 4641 CFG=6
M  V30 5197 1 4636 4640
M  V30 5198 1 4636 4637
M  V30 5199 1 4637 4638 CFG=6
M  V30 5200 1 4639 4638
M  V30 5201 1 4640 4639
M  V30 5202 1 4640 4645 CFG=6
M  V30 5203 1 4643 4644
M  V30 5204 1 4645 4646 CFG=1
M  V30 5205 1 4647 4645
M  V30 5206 1 4648 4647
M  V30 5207 1 4648 4649
M  V30 5208 1 4649 4650 CFG=1
M  V30 5209 1 4649 4651
M  V30 5210 1 4651 4652
M  V30 5211 1 4653 4651
M  V30 5212 1 4654 4673 CFG=1
M  V30 5213 1 4654 4655
M  V30 5214 1 4654 4659
M  V30 5215 1 4655 4656
M  V30 5216 1 4656 4657
M  V30 5217 1 4657 4672 CFG=1
M  V30 5218 1 4658 4657
M  V30 5219 1 4663 4657
M  V30 5220 1 4658 4660 CFG=6
M  V30 5221 1 4659 4658
M  V30 5222 1 4660 4661
M  V30 5223 1 4662 4661 CFG=6
M  V30 5224 1 4662 4667
M  V30 5225 1 4662 4663
M  V30 5226 1 4663 4664 CFG=1
M  V30 5227 1 4664 4665
M  V30 5228 1 4666 4665
M  V30 5229 1 4666 4671 CFG=1
M  V30 5230 1 4667 4666
M  V30 5231 1 4670 4666
M  V30 5232 1 4667 4668 CFG=1
M  V30 5233 1 4668 4669
M  V30 5234 1 4669 4670
M  V30 5235 1 4670 4675 CFG=1
M  V30 5236 1 4673 4674
M  V30 5237 1 4675 4676 CFG=6
M  V30 5238 1 4675 4677
M  V30 5239 1 4677 4678
M  V30 5240 1 4679 4678
M  V30 5241 1 4679 4680 CFG=1
M  V30 5242 1 4679 4681
M  V30 5243 1 4681 4682
M  V30 5244 1 4683 4681
M  V30 5245 1 4684 4703 CFG=6
M  V30 5246 1 4685 4684
M  V30 5247 1 4689 4684
M  V30 5248 1 4686 4685
M  V30 5249 1 4687 4686
M  V30 5250 1 4687 4702 CFG=6
M  V30 5251 1 4687 4693
M  V30 5252 1 4687 4688
M  V30 5253 1 4688 4689 CFG=1
M  V30 5254 1 4688 4690
M  V30 5255 1 4691 4690
M  V30 5256 1 4692 4691 CFG=1
M  V30 5257 1 4692 4697
M  V30 5258 1 4693 4692
M  V30 5259 1 4693 4694 CFG=6
M  V30 5260 1 4694 4695
M  V30 5261 1 4695 4696
M  V30 5262 1 4696 4701 CFG=6
M  V30 5263 1 4696 4700
M  V30 5264 1 4696 4697
M  V30 5265 1 4697 4698 CFG=6
M  V30 5266 1 4699 4698
M  V30 5267 1 4700 4699
M  V30 5268 1 4700 4705 CFG=6
M  V30 5269 1 4704 4703
M  V30 5270 1 4705 4707
M  V30 5271 1 4705 4706 CFG=1
M  V30 5272 1 4708 4707
M  V30 5273 1 4708 4709
M  V30 5274 1 4709 4710 CFG=6
M  V30 5275 1 4711 4709
M  V30 5276 1 4711 4712
M  V30 5277 1 4713 4711
M  V30 5278 1 4714 4733 CFG=6
M  V30 5279 1 4715 4714
M  V30 5280 1 4719 4714
M  V30 5281 1 4716 4715
M  V30 5282 1 4716 4717
M  V30 5283 1 4717 4732 CFG=6
M  V30 5284 1 4717 4723
M  V30 5285 1 4717 4718
M  V30 5286 1 4718 4719 CFG=1
M  V30 5287 1 4718 4720
M  V30 5288 1 4721 4720
M  V30 5289 1 4722 4721 CFG=1
M  V30 5290 1 4722 4727
M  V30 5291 1 4723 4722
M  V30 5292 1 4723 4724 CFG=6
M  V30 5293 1 4724 4725
M  V30 5294 1 4725 4726
M  V30 5295 1 4726 4731 CFG=6
M  V30 5296 1 4726 4730
M  V30 5297 1 4726 4727
M  V30 5298 1 4727 4728 CFG=1
M  V30 5299 1 4729 4728
M  V30 5300 1 4730 4729
M  V30 5301 1 4730 4735 CFG=6
M  V30 5302 1 4734 4733
M  V30 5303 1 4735 4736 CFG=6
M  V30 5304 1 4737 4735
M  V30 5305 1 4738 4737
M  V30 5306 1 4738 4739
M  V30 5307 1 4739 4740 CFG=6
M  V30 5308 1 4741 4739
M  V30 5309 1 4742 4741
M  V30 5310 1 4743 4741
M  V30 5311 1 4744 4763 CFG=6
M  V30 5312 1 4744 4745
M  V30 5313 1 4749 4744
M  V30 5314 1 4746 4745
M  V30 5315 1 4747 4746
M  V30 5316 1 4747 4762 CFG=6
M  V30 5317 1 4747 4748
M  V30 5318 1 4747 4753
M  V30 5319 1 4748 4749 CFG=1
M  V30 5320 1 4748 4750
M  V30 5321 1 4751 4750
M  V30 5322 1 4752 4751 CFG=1
M  V30 5323 1 4752 4757
M  V30 5324 1 4753 4752
M  V30 5325 1 4753 4754 CFG=6
M  V30 5326 1 4754 4755
M  V30 5327 1 4756 4755
M  V30 5328 1 4756 4761 CFG=6
M  V30 5329 1 4756 4760
M  V30 5330 1 4756 4757
M  V30 5331 1 4757 4758 CFG=6
M  V30 5332 1 4759 4758
M  V30 5333 1 4760 4759
M  V30 5334 1 4760 4765 CFG=6
M  V30 5335 1 4763 4764
M  V30 5336 1 4765 4766 CFG=1
M  V30 5337 1 4767 4765
M  V30 5338 1 4768 4767
M  V30 5339 1 4769 4768
M  V30 5340 1 4769 4770 CFG=1
M  V30 5341 1 4771 4769
M  V30 5342 1 4772 4771
M  V30 5343 1 4773 4771
M  V30 5344 1 4774 4775
M  V30 5345 1 4774 4779
M  V30 5346 1 4774 4793 CFG=1
M  V30 5347 1 4775 4776
M  V30 5348 1 4777 4776
M  V30 5349 1 4777 4792 CFG=1
M  V30 5350 1 4778 4777
M  V30 5351 1 4783 4777
M  V30 5352 1 4778 4780 CFG=6
M  V30 5353 1 4778 4779
M  V30 5354 1 4781 4780
M  V30 5355 1 4782 4781 CFG=6
M  V30 5356 1 4782 4783
M  V30 5357 1 4787 4782
M  V30 5358 1 4783 4784 CFG=1
M  V30 5359 1 4785 4784
M  V30 5360 1 4786 4785
M  V30 5361 1 4786 4791 CFG=1
M  V30 5362 1 4787 4786
M  V30 5363 1 4790 4786
M  V30 5364 1 4787 4788 CFG=1
M  V30 5365 1 4788 4789
M  V30 5366 1 4789 4790
M  V30 5367 1 4790 4795 CFG=1
M  V30 5368 1 4793 4794
M  V30 5369 1 4795 4796 CFG=6
M  V30 5370 1 4795 4797
M  V30 5371 1 4797 4798
M  V30 5372 1 4798 4799
M  V30 5373 1 4799 4800 CFG=1
M  V30 5374 1 4799 4801
M  V30 5375 1 4801 4802
M  V30 5376 1 4801 4803
M  V30 5377 1 4804 4823 CFG=1
M  V30 5378 1 4804 4805
M  V30 5379 1 4809 4804
M  V30 5380 1 4806 4805
M  V30 5381 1 4807 4806
M  V30 5382 1 4807 4822 CFG=6
M  V30 5383 1 4807 4813
M  V30 5384 1 4808 4807
M  V30 5385 1 4808 4810 CFG=1
M  V30 5386 1 4808 4809
M  V30 5387 1 4811 4810
M  V30 5388 1 4812 4811 CFG=1
M  V30 5389 1 4812 4817
M  V30 5390 1 4812 4813
M  V30 5391 1 4813 4814 CFG=6
M  V30 5392 1 4814 4815
M  V30 5393 1 4816 4815
M  V30 5394 1 4816 4821 CFG=6
M  V30 5395 1 4816 4820
M  V30 5396 1 4817 4816
M  V30 5397 1 4817 4818 CFG=6
M  V30 5398 1 4818 4819
M  V30 5399 1 4819 4820
M  V30 5400 1 4820 4825 CFG=6
M  V30 5401 1 4824 4823
M  V30 5402 1 4825 4826 CFG=6
M  V30 5403 1 4825 4827
M  V30 5404 2 4828 4827
M  V30 5405 1 4829 4828
M  V30 5406 1 4829 4830 CFG=1
M  V30 5407 1 4829 4831
M  V30 5408 1 4831 4833
M  V30 5409 1 4832 4831
M  V30 5410 1 4834 4835
M  V30 5411 1 4834 4853 CFG=1
M  V30 5412 1 4839 4834
M  V30 5413 1 4836 4835
M  V30 5414 1 4837 4836
M  V30 5415 1 4837 4852 CFG=6
M  V30 5416 1 4838 4837
M  V30 5417 1 4843 4837
M  V30 5418 1 4838 4840 CFG=1
M  V30 5419 1 4838 4839
M  V30 5420 1 4841 4840
M  V30 5421 1 4842 4841 CFG=1
M  V30 5422 1 4842 4843
M  V30 5423 1 4847 4842
M  V30 5424 1 4843 4844 CFG=6
M  V30 5425 1 4845 4844
M  V30 5426 1 4846 4845
M  V30 5427 1 4846 4851 CFG=6
M  V30 5428 1 4847 4846
M  V30 5429 1 4850 4846
M  V30 5430 1 4847 4848 CFG=6
M  V30 5431 1 4849 4848
M  V30 5432 1 4849 4850
M  V30 5433 1 4850 4855 CFG=6
M  V30 5434 1 4853 4854
M  V30 5435 1 4855 4856 CFG=6
M  V30 5436 1 4857 4855
M  V30 5437 1 4857 4858
M  V30 5438 1 4858 4859
M  V30 5439 1 4859 4860 CFG=6
M  V30 5440 1 4859 4861
M  V30 5441 1 4861 4862
M  V30 5442 1 4863 4861
M  V30 5443 1 4864 4883 CFG=6
M  V30 5444 1 4864 4869
M  V30 5445 1 4864 4865
M  V30 5446 1 4865 4866
M  V30 5447 1 4866 4867
M  V30 5448 1 4867 4882 CFG=6
M  V30 5449 1 4867 4873
M  V30 5450 1 4868 4867
M  V30 5451 1 4868 4869 CFG=6
M  V30 5452 1 4868 4870
M  V30 5453 1 4870 4871
M  V30 5454 1 4872 4871 CFG=1
M  V30 5455 1 4872 4877
M  V30 5456 1 4873 4872
M  V30 5457 1 4873 4874 CFG=1
M  V30 5458 1 4874 4875
M  V30 5459 1 4875 4876
M  V30 5460 1 4876 4881 CFG=6
M  V30 5461 1 4876 4880
M  V30 5462 1 4877 4876
M  V30 5463 1 4877 4878 CFG=1
M  V30 5464 1 4878 4879
M  V30 5465 1 4880 4879
M  V30 5466 1 4880 4885 CFG=1
M  V30 5467 1 4884 4883
M  V30 5468 1 4885 4886 CFG=6
M  V30 5469 1 4887 4885
M  V30 5470 2 4888 4887
M  V30 5471 1 4889 4888
M  V30 5472 1 4889 4890 CFG=6
M  V30 5473 1 4891 4889
M  V30 5474 1 4892 4891
M  V30 5475 1 4893 4891
M  V30 5476 1 4894 4913 CFG=6
M  V30 5477 1 4895 4894
M  V30 5478 1 4899 4894
M  V30 5479 1 4896 4895
M  V30 5480 1 4897 4896
M  V30 5481 1 4897 4912 CFG=6
M  V30 5482 1 4897 4903
M  V30 5483 1 4897 4898
M  V30 5484 1 4898 4899 CFG=1
M  V30 5485 1 4898 4900
M  V30 5486 1 4901 4900
M  V30 5487 1 4902 4901 CFG=1
M  V30 5488 1 4902 4907
M  V30 5489 1 4903 4902
M  V30 5490 1 4903 4904 CFG=6
M  V30 5491 1 4904 4905
M  V30 5492 1 4905 4906
M  V30 5493 1 4906 4911 CFG=6
M  V30 5494 1 4906 4910
M  V30 5495 1 4906 4907
M  V30 5496 1 4907 4908 CFG=6
M  V30 5497 1 4909 4908
M  V30 5498 1 4910 4909
M  V30 5499 1 4910 4915 CFG=6
M  V30 5500 1 4913 4914
M  V30 5501 1 4915 4916 CFG=1
M  V30 5502 1 4917 4915
M  V30 5503 1 4918 4917
M  V30 5504 1 4918 4919
M  V30 5505 1 4919 4920 CFG=1
M  V30 5506 1 4919 4921
M  V30 5507 1 4921 4922
M  V30 5508 1 4923 4921
M  V30 5509 1 4924 4943 CFG=1
M  V30 5510 1 4924 4925
M  V30 5511 1 4924 4929
M  V30 5512 1 4925 4926
M  V30 5513 1 4926 4927
M  V30 5514 1 4927 4942 CFG=1
M  V30 5515 1 4928 4927
M  V30 5516 1 4933 4927
M  V30 5517 1 4928 4930 CFG=6
M  V30 5518 1 4929 4928
M  V30 5519 1 4930 4931
M  V30 5520 1 4932 4931 CFG=6
M  V30 5521 1 4932 4937
M  V30 5522 1 4932 4933
M  V30 5523 1 4933 4934 CFG=1
M  V30 5524 1 4934 4935
M  V30 5525 1 4936 4935
M  V30 5526 1 4936 4941 CFG=1
M  V30 5527 1 4937 4936
M  V30 5528 1 4940 4936
M  V30 5529 1 4937 4938 CFG=1
M  V30 5530 1 4938 4939
M  V30 5531 1 4939 4940
M  V30 5532 1 4940 4945 CFG=1
M  V30 5533 1 4943 4944
M  V30 5534 1 4945 4946 CFG=6
M  V30 5535 1 4945 4947
M  V30 5536 1 4947 4948
M  V30 5537 1 4949 4948
M  V30 5538 1 4949 4950 CFG=1
M  V30 5539 1 4949 4951
M  V30 5540 1 4951 4952
M  V30 5541 1 4953 4951
M  V30 5542 1 4954 4973 CFG=6
M  V30 5543 1 4955 4954
M  V30 5544 1 4959 4954
M  V30 5545 1 4956 4955
M  V30 5546 1 4957 4956
M  V30 5547 1 4957 4972 CFG=6
M  V30 5548 1 4957 4963
M  V30 5549 1 4957 4958
M  V30 5550 1 4958 4959 CFG=1
M  V30 5551 1 4958 4960
M  V30 5552 1 4961 4960
M  V30 5553 1 4962 4961 CFG=1
M  V30 5554 1 4962 4967
M  V30 5555 1 4963 4962
M  V30 5556 1 4963 4964 CFG=6
M  V30 5557 1 4964 4965
M  V30 5558 1 4965 4966
M  V30 5559 1 4966 4971 CFG=6
M  V30 5560 1 4966 4970
M  V30 5561 1 4966 4967
M  V30 5562 1 4967 4968 CFG=6
M  V30 5563 1 4969 4968
M  V30 5564 1 4970 4969
M  V30 5565 1 4970 4975 CFG=6
M  V30 5566 1 4974 4973
M  V30 5567 1 4975 4977
M  V30 5568 1 4975 4976 CFG=1
M  V30 5569 1 4978 4977
M  V30 5570 1 4978 4979
M  V30 5571 1 4979 4980 CFG=6
M  V30 5572 1 4981 4979
M  V30 5573 1 4981 4982
M  V30 5574 1 4983 4981
M  V30 5575 1 4984 5003 CFG=6
M  V30 5576 1 4985 4984
M  V30 5577 1 4989 4984
M  V30 5578 1 4986 4985
M  V30 5579 1 4986 4987
M  V30 5580 1 4987 5002 CFG=6
M  V30 5581 1 4987 4993
M  V30 5582 1 4987 4988
M  V30 5583 1 4988 4989 CFG=1
M  V30 5584 1 4988 4990
M  V30 5585 1 4991 4990
M  V30 5586 1 4992 4991 CFG=1
M  V30 5587 1 4992 4997
M  V30 5588 1 4993 4992
M  V30 5589 1 4993 4994 CFG=6
M  V30 5590 1 4994 4995
M  V30 5591 1 4995 4996
M  V30 5592 1 4996 5001 CFG=6
M  V30 5593 1 4996 5000
M  V30 5594 1 4996 4997
M  V30 5595 1 4997 4998 CFG=1
M  V30 5596 1 4999 4998
M  V30 5597 1 5000 4999
M  V30 5598 1 5000 5005 CFG=6
M  V30 5599 1 5004 5003
M  V30 5600 1 5005 5006 CFG=6
M  V30 5601 1 5007 5005
M  V30 5602 1 5008 5007
M  V30 5603 1 5008 5009
M  V30 5604 1 5009 5010 CFG=6
M  V30 5605 1 5011 5009
M  V30 5606 1 5012 5011
M  V30 5607 1 5013 5011
M  V30 5608 1 5014 5033 CFG=6
M  V30 5609 1 5014 5015
M  V30 5610 1 5019 5014
M  V30 5611 1 5016 5015
M  V30 5612 1 5017 5016
M  V30 5613 1 5017 5032 CFG=6
M  V30 5614 1 5017 5018
M  V30 5615 1 5017 5023
M  V30 5616 1 5018 5019 CFG=1
M  V30 5617 1 5018 5020
M  V30 5618 1 5021 5020
M  V30 5619 1 5022 5021 CFG=1
M  V30 5620 1 5022 5027
M  V30 5621 1 5023 5022
M  V30 5622 1 5023 5024 CFG=6
M  V30 5623 1 5024 5025
M  V30 5624 1 5026 5025
M  V30 5625 1 5026 5031 CFG=6
M  V30 5626 1 5026 5030
M  V30 5627 1 5026 5027
M  V30 5628 1 5027 5028 CFG=6
M  V30 5629 1 5029 5028
M  V30 5630 1 5030 5029
M  V30 5631 1 5030 5035 CFG=6
M  V30 5632 1 5033 5034
M  V30 5633 1 5035 5036 CFG=1
M  V30 5634 1 5037 5035
M  V30 5635 1 5038 5037
M  V30 5636 1 5039 5038
M  V30 5637 1 5039 5040 CFG=1
M  V30 5638 1 5041 5039
M  V30 5639 1 5042 5041
M  V30 5640 1 5043 5041
M  V30 5641 1 5044 5045
M  V30 5642 1 5044 5049
M  V30 5643 1 5044 5063 CFG=1
M  V30 5644 1 5045 5046
M  V30 5645 1 5047 5046
M  V30 5646 1 5047 5062 CFG=1
M  V30 5647 1 5048 5047
M  V30 5648 1 5053 5047
M  V30 5649 1 5048 5050 CFG=6
M  V30 5650 1 5048 5049
M  V30 5651 1 5051 5050
M  V30 5652 1 5052 5051 CFG=6
M  V30 5653 1 5052 5053
M  V30 5654 1 5057 5052
M  V30 5655 1 5053 5054 CFG=1
M  V30 5656 1 5055 5054
M  V30 5657 1 5056 5055
M  V30 5658 1 5056 5061 CFG=1
M  V30 5659 1 5057 5056
M  V30 5660 1 5060 5056
M  V30 5661 1 5057 5058 CFG=1
M  V30 5662 1 5058 5059
M  V30 5663 1 5059 5060
M  V30 5664 1 5060 5065 CFG=1
M  V30 5665 1 5063 5064
M  V30 5666 1 5065 5066 CFG=6
M  V30 5667 1 5065 5067
M  V30 5668 1 5067 5068
M  V30 5669 1 5068 5069
M  V30 5670 1 5069 5070 CFG=1
M  V30 5671 1 5069 5071
M  V30 5672 1 5071 5072
M  V30 5673 1 5071 5073
M  V30 5674 1 5074 5093 CFG=1
M  V30 5675 1 5074 5075
M  V30 5676 1 5079 5074
M  V30 5677 1 5076 5075
M  V30 5678 1 5077 5076
M  V30 5679 1 5077 5092 CFG=6
M  V30 5680 1 5077 5083
M  V30 5681 1 5078 5077
M  V30 5682 1 5078 5080 CFG=1
M  V30 5683 1 5078 5079
M  V30 5684 1 5081 5080
M  V30 5685 1 5082 5081 CFG=1
M  V30 5686 1 5082 5087
M  V30 5687 1 5082 5083
M  V30 5688 1 5083 5084 CFG=6
M  V30 5689 1 5084 5085
M  V30 5690 1 5086 5085
M  V30 5691 1 5086 5091 CFG=6
M  V30 5692 1 5086 5090
M  V30 5693 1 5087 5086
M  V30 5694 1 5087 5088 CFG=6
M  V30 5695 1 5088 5089
M  V30 5696 1 5089 5090
M  V30 5697 1 5090 5095 CFG=6
M  V30 5698 1 5094 5093
M  V30 5699 1 5095 5096 CFG=6
M  V30 5700 1 5095 5097
M  V30 5701 2 5098 5097
M  V30 5702 1 5099 5098
M  V30 5703 1 5099 5100 CFG=1
M  V30 5704 1 5099 5101
M  V30 5705 1 5101 5103
M  V30 5706 1 5102 5101
M  V30 5707 1 5104 5105
M  V30 5708 1 5104 5123 CFG=1
M  V30 5709 1 5109 5104
M  V30 5710 1 5106 5105
M  V30 5711 1 5107 5106
M  V30 5712 1 5107 5122 CFG=6
M  V30 5713 1 5108 5107
M  V30 5714 1 5113 5107
M  V30 5715 1 5108 5110 CFG=1
M  V30 5716 1 5108 5109
M  V30 5717 1 5111 5110
M  V30 5718 1 5112 5111 CFG=1
M  V30 5719 1 5112 5113
M  V30 5720 1 5117 5112
M  V30 5721 1 5113 5114 CFG=6
M  V30 5722 1 5115 5114
M  V30 5723 1 5116 5115
M  V30 5724 1 5116 5121 CFG=6
M  V30 5725 1 5117 5116
M  V30 5726 1 5120 5116
M  V30 5727 1 5117 5118 CFG=6
M  V30 5728 1 5119 5118
M  V30 5729 1 5119 5120
M  V30 5730 1 5120 5125 CFG=6
M  V30 5731 1 5123 5124
M  V30 5732 1 5125 5126 CFG=6
M  V30 5733 1 5127 5125
M  V30 5734 1 5127 5128
M  V30 5735 1 5128 5129
M  V30 5736 1 5129 5130 CFG=6
M  V30 5737 1 5129 5131
M  V30 5738 1 5131 5132
M  V30 5739 1 5133 5131
M  V30 5740 1 5134 5153 CFG=6
M  V30 5741 1 5134 5139
M  V30 5742 1 5134 5135
M  V30 5743 1 5135 5136
M  V30 5744 1 5136 5137
M  V30 5745 1 5137 5152 CFG=6
M  V30 5746 1 5137 5143
M  V30 5747 1 5138 5137
M  V30 5748 1 5138 5139 CFG=6
M  V30 5749 1 5138 5140
M  V30 5750 1 5140 5141
M  V30 5751 1 5142 5141 CFG=1
M  V30 5752 1 5142 5147
M  V30 5753 1 5143 5142
M  V30 5754 1 5143 5144 CFG=1
M  V30 5755 1 5144 5145
M  V30 5756 1 5145 5146
M  V30 5757 1 5146 5151 CFG=6
M  V30 5758 1 5146 5150
M  V30 5759 1 5147 5146
M  V30 5760 1 5147 5148 CFG=1
M  V30 5761 1 5148 5149
M  V30 5762 1 5150 5149
M  V30 5763 1 5150 5155 CFG=1
M  V30 5764 1 5154 5153
M  V30 5765 1 5155 5156 CFG=6
M  V30 5766 1 5157 5155
M  V30 5767 2 5158 5157
M  V30 5768 1 5159 5158
M  V30 5769 1 5159 5160 CFG=6
M  V30 5770 1 5161 5159
M  V30 5771 1 5162 5161
M  V30 5772 1 5163 5161
M  V30 5773 1 5164 5183 CFG=6
M  V30 5774 1 5165 5164
M  V30 5775 1 5169 5164
M  V30 5776 1 5166 5165
M  V30 5777 1 5167 5166
M  V30 5778 1 5167 5182 CFG=6
M  V30 5779 1 5167 5173
M  V30 5780 1 5167 5168
M  V30 5781 1 5168 5169 CFG=1
M  V30 5782 1 5168 5170
M  V30 5783 1 5171 5170
M  V30 5784 1 5172 5171 CFG=1
M  V30 5785 1 5172 5177
M  V30 5786 1 5173 5172
M  V30 5787 1 5173 5174 CFG=6
M  V30 5788 1 5174 5175
M  V30 5789 1 5175 5176
M  V30 5790 1 5176 5181 CFG=6
M  V30 5791 1 5176 5180
M  V30 5792 1 5176 5177
M  V30 5793 1 5177 5178 CFG=6
M  V30 5794 1 5179 5178
M  V30 5795 1 5180 5179
M  V30 5796 1 5180 5185 CFG=6
M  V30 5797 1 5183 5184
M  V30 5798 1 5185 5186 CFG=1
M  V30 5799 1 5187 5185
M  V30 5800 1 5188 5187
M  V30 5801 1 5188 5189
M  V30 5802 1 5189 5190 CFG=1
M  V30 5803 1 5189 5191
M  V30 5804 1 5191 5192
M  V30 5805 1 5193 5191
M  V30 5806 1 5194 5213 CFG=1
M  V30 5807 1 5194 5195
M  V30 5808 1 5194 5199
M  V30 5809 1 5195 5196
M  V30 5810 1 5196 5197
M  V30 5811 1 5197 5212 CFG=1
M  V30 5812 1 5198 5197
M  V30 5813 1 5203 5197
M  V30 5814 1 5198 5200 CFG=6
M  V30 5815 1 5199 5198
M  V30 5816 1 5200 5201
M  V30 5817 1 5202 5201 CFG=6
M  V30 5818 1 5202 5207
M  V30 5819 1 5202 5203
M  V30 5820 1 5203 5204 CFG=1
M  V30 5821 1 5204 5205
M  V30 5822 1 5206 5205
M  V30 5823 1 5206 5211 CFG=1
M  V30 5824 1 5207 5206
M  V30 5825 1 5210 5206
M  V30 5826 1 5207 5208 CFG=1
M  V30 5827 1 5208 5209
M  V30 5828 1 5209 5210
M  V30 5829 1 5210 5215 CFG=1
M  V30 5830 1 5213 5214
M  V30 5831 1 5215 5216 CFG=6
M  V30 5832 1 5215 5217
M  V30 5833 1 5217 5218
M  V30 5834 1 5219 5218
M  V30 5835 1 5219 5220 CFG=1
M  V30 5836 1 5219 5221
M  V30 5837 1 5221 5222
M  V30 5838 1 5223 5221
M  V30 5839 1 5224 5243 CFG=6
M  V30 5840 1 5225 5224
M  V30 5841 1 5229 5224
M  V30 5842 1 5226 5225
M  V30 5843 1 5227 5226
M  V30 5844 1 5227 5242 CFG=6
M  V30 5845 1 5227 5233
M  V30 5846 1 5227 5228
M  V30 5847 1 5228 5229 CFG=1
M  V30 5848 1 5228 5230
M  V30 5849 1 5231 5230
M  V30 5850 1 5232 5231 CFG=1
M  V30 5851 1 5232 5237
M  V30 5852 1 5233 5232
M  V30 5853 1 5233 5234 CFG=6
M  V30 5854 1 5234 5235
M  V30 5855 1 5235 5236
M  V30 5856 1 5236 5241 CFG=6
M  V30 5857 1 5236 5240
M  V30 5858 1 5236 5237
M  V30 5859 1 5237 5238 CFG=6
M  V30 5860 1 5239 5238
M  V30 5861 1 5240 5239
M  V30 5862 1 5240 5245 CFG=6
M  V30 5863 1 5244 5243
M  V30 5864 1 5245 5247
M  V30 5865 1 5245 5246 CFG=1
M  V30 5866 1 5248 5247
M  V30 5867 1 5248 5249
M  V30 5868 1 5249 5250 CFG=6
M  V30 5869 1 5251 5249
M  V30 5870 1 5251 5252
M  V30 5871 1 5253 5251
M  V30 5872 1 5254 5273 CFG=6
M  V30 5873 1 5255 5254
M  V30 5874 1 5259 5254
M  V30 5875 1 5256 5255
M  V30 5876 1 5256 5257
M  V30 5877 1 5257 5272 CFG=6
M  V30 5878 1 5257 5263
M  V30 5879 1 5257 5258
M  V30 5880 1 5258 5259 CFG=1
M  V30 5881 1 5258 5260
M  V30 5882 1 5261 5260
M  V30 5883 1 5262 5261 CFG=1
M  V30 5884 1 5262 5267
M  V30 5885 1 5263 5262
M  V30 5886 1 5263 5264 CFG=6
M  V30 5887 1 5264 5265
M  V30 5888 1 5265 5266
M  V30 5889 1 5266 5271 CFG=6
M  V30 5890 1 5266 5270
M  V30 5891 1 5266 5267
M  V30 5892 1 5267 5268 CFG=1
M  V30 5893 1 5269 5268
M  V30 5894 1 5270 5269
M  V30 5895 1 5270 5275 CFG=6
M  V30 5896 1 5274 5273
M  V30 5897 1 5275 5276 CFG=6
M  V30 5898 1 5277 5275
M  V30 5899 1 5278 5277
M  V30 5900 1 5278 5279
M  V30 5901 1 5279 5280 CFG=6
M  V30 5902 1 5281 5279
M  V30 5903 1 5282 5281
M  V30 5904 1 5283 5281
M  V30 5905 1 5284 5303 CFG=6
M  V30 5906 1 5284 5285
M  V30 5907 1 5289 5284
M  V30 5908 1 5286 5285
M  V30 5909 1 5287 5286
M  V30 5910 1 5287 5302 CFG=6
M  V30 5911 1 5287 5288
M  V30 5912 1 5287 5293
M  V30 5913 1 5288 5289 CFG=1
M  V30 5914 1 5288 5290
M  V30 5915 1 5291 5290
M  V30 5916 1 5292 5291 CFG=1
M  V30 5917 1 5292 5297
M  V30 5918 1 5293 5292
M  V30 5919 1 5293 5294 CFG=6
M  V30 5920 1 5294 5295
M  V30 5921 1 5296 5295
M  V30 5922 1 5296 5301 CFG=6
M  V30 5923 1 5296 5300
M  V30 5924 1 5296 5297
M  V30 5925 1 5297 5298 CFG=6
M  V30 5926 1 5299 5298
M  V30 5927 1 5300 5299
M  V30 5928 1 5300 5305 CFG=6
M  V30 5929 1 5303 5304
M  V30 5930 1 5305 5306 CFG=1
M  V30 5931 1 5307 5305
M  V30 5932 1 5308 5307
M  V30 5933 1 5309 5308
M  V30 5934 1 5309 5310 CFG=1
M  V30 5935 1 5311 5309
M  V30 5936 1 5312 5311
M  V30 5937 1 5313 5311
M  V30 5938 1 5314 5315
M  V30 5939 1 5314 5319
M  V30 5940 1 5314 5333 CFG=1
M  V30 5941 1 5315 5316
M  V30 5942 1 5317 5316
M  V30 5943 1 5317 5332 CFG=1
M  V30 5944 1 5318 5317
M  V30 5945 1 5323 5317
M  V30 5946 1 5318 5320 CFG=6
M  V30 5947 1 5318 5319
M  V30 5948 1 5321 5320
M  V30 5949 1 5322 5321 CFG=6
M  V30 5950 1 5322 5323
M  V30 5951 1 5327 5322
M  V30 5952 1 5323 5324 CFG=1
M  V30 5953 1 5325 5324
M  V30 5954 1 5326 5325
M  V30 5955 1 5326 5331 CFG=1
M  V30 5956 1 5327 5326
M  V30 5957 1 5330 5326
M  V30 5958 1 5327 5328 CFG=1
M  V30 5959 1 5328 5329
M  V30 5960 1 5329 5330
M  V30 5961 1 5330 5335 CFG=1
M  V30 5962 1 5333 5334
M  V30 5963 1 5335 5336 CFG=6
M  V30 5964 1 5335 5337
M  V30 5965 1 5337 5338
M  V30 5966 1 5338 5339
M  V30 5967 1 5339 5340 CFG=1
M  V30 5968 1 5339 5341
M  V30 5969 1 5341 5342
M  V30 5970 1 5341 5343
M  V30 5971 1 5344 5363 CFG=1
M  V30 5972 1 5344 5345
M  V30 5973 1 5349 5344
M  V30 5974 1 5346 5345
M  V30 5975 1 5347 5346
M  V30 5976 1 5347 5362 CFG=6
M  V30 5977 1 5347 5353
M  V30 5978 1 5348 5347
M  V30 5979 1 5348 5350 CFG=1
M  V30 5980 1 5348 5349
M  V30 5981 1 5351 5350
M  V30 5982 1 5352 5351 CFG=1
M  V30 5983 1 5352 5357
M  V30 5984 1 5352 5353
M  V30 5985 1 5353 5354 CFG=6
M  V30 5986 1 5354 5355
M  V30 5987 1 5356 5355
M  V30 5988 1 5356 5361 CFG=6
M  V30 5989 1 5356 5360
M  V30 5990 1 5357 5356
M  V30 5991 1 5357 5358 CFG=6
M  V30 5992 1 5358 5359
M  V30 5993 1 5359 5360
M  V30 5994 1 5360 5365 CFG=6
M  V30 5995 1 5364 5363
M  V30 5996 1 5365 5366 CFG=6
M  V30 5997 1 5365 5367
M  V30 5998 2 5368 5367
M  V30 5999 1 5369 5368
M  V30 6000 1 5369 5370 CFG=1
M  V30 6001 1 5369 5371
M  V30 6002 1 5371 5373
M  V30 6003 1 5372 5371
M  V30 6004 1 5374 5375
M  V30 6005 1 5374 5393 CFG=1
M  V30 6006 1 5379 5374
M  V30 6007 1 5376 5375
M  V30 6008 1 5377 5376
M  V30 6009 1 5377 5392 CFG=6
M  V30 6010 1 5378 5377
M  V30 6011 1 5383 5377
M  V30 6012 1 5378 5380 CFG=1
M  V30 6013 1 5378 5379
M  V30 6014 1 5381 5380
M  V30 6015 1 5382 5381 CFG=1
M  V30 6016 1 5382 5383
M  V30 6017 1 5387 5382
M  V30 6018 1 5383 5384 CFG=6
M  V30 6019 1 5385 5384
M  V30 6020 1 5386 5385
M  V30 6021 1 5386 5391 CFG=6
M  V30 6022 1 5387 5386
M  V30 6023 1 5390 5386
M  V30 6024 1 5387 5388 CFG=6
M  V30 6025 1 5389 5388
M  V30 6026 1 5389 5390
M  V30 6027 1 5390 5395 CFG=6
M  V30 6028 1 5393 5394
M  V30 6029 1 5395 5396 CFG=6
M  V30 6030 1 5397 5395
M  V30 6031 1 5397 5398
M  V30 6032 1 5398 5399
M  V30 6033 1 5399 5400 CFG=6
M  V30 6034 1 5399 5401
M  V30 6035 1 5401 5402
M  V30 6036 1 5403 5401
M  V30 6037 1 5404 5423 CFG=6
M  V30 6038 1 5404 5409
M  V30 6039 1 5404 5405
M  V30 6040 1 5405 5406
M  V30 6041 1 5406 5407
M  V30 6042 1 5407 5422 CFG=6
M  V30 6043 1 5407 5413
M  V30 6044 1 5408 5407
M  V30 6045 1 5408 5409 CFG=6
M  V30 6046 1 5408 5410
M  V30 6047 1 5410 5411
M  V30 6048 1 5412 5411 CFG=1
M  V30 6049 1 5412 5417
M  V30 6050 1 5413 5412
M  V30 6051 1 5413 5414 CFG=1
M  V30 6052 1 5414 5415
M  V30 6053 1 5415 5416
M  V30 6054 1 5416 5421 CFG=6
M  V30 6055 1 5416 5420
M  V30 6056 1 5417 5416
M  V30 6057 1 5417 5418 CFG=1
M  V30 6058 1 5418 5419
M  V30 6059 1 5420 5419
M  V30 6060 1 5420 5425 CFG=1
M  V30 6061 1 5424 5423
M  V30 6062 1 5425 5426 CFG=6
M  V30 6063 1 5427 5425
M  V30 6064 2 5428 5427
M  V30 6065 1 5429 5428
M  V30 6066 1 5429 5430 CFG=6
M  V30 6067 1 5431 5429
M  V30 6068 1 5432 5431
M  V30 6069 1 5433 5431
M  V30 6070 1 5434 5453 CFG=6
M  V30 6071 1 5435 5434
M  V30 6072 1 5439 5434
M  V30 6073 1 5436 5435
M  V30 6074 1 5437 5436
M  V30 6075 1 5437 5452 CFG=6
M  V30 6076 1 5437 5443
M  V30 6077 1 5437 5438
M  V30 6078 1 5438 5439 CFG=1
M  V30 6079 1 5438 5440
M  V30 6080 1 5441 5440
M  V30 6081 1 5442 5441 CFG=1
M  V30 6082 1 5442 5447
M  V30 6083 1 5443 5442
M  V30 6084 1 5443 5444 CFG=6
M  V30 6085 1 5444 5445
M  V30 6086 1 5445 5446
M  V30 6087 1 5446 5451 CFG=6
M  V30 6088 1 5446 5450
M  V30 6089 1 5446 5447
M  V30 6090 1 5447 5448 CFG=6
M  V30 6091 1 5449 5448
M  V30 6092 1 5450 5449
M  V30 6093 1 5450 5455 CFG=6
M  V30 6094 1 5453 5454
M  V30 6095 1 5455 5456 CFG=1
M  V30 6096 1 5457 5455
M  V30 6097 1 5458 5457
M  V30 6098 1 5458 5459
M  V30 6099 1 5459 5460 CFG=1
M  V30 6100 1 5459 5461
M  V30 6101 1 5461 5462
M  V30 6102 1 5463 5461
M  V30 6103 1 5464 5483 CFG=1
M  V30 6104 1 5464 5465
M  V30 6105 1 5464 5469
M  V30 6106 1 5465 5466
M  V30 6107 1 5466 5467
M  V30 6108 1 5467 5482 CFG=1
M  V30 6109 1 5468 5467
M  V30 6110 1 5473 5467
M  V30 6111 1 5468 5470 CFG=6
M  V30 6112 1 5469 5468
M  V30 6113 1 5470 5471
M  V30 6114 1 5472 5471 CFG=6
M  V30 6115 1 5472 5477
M  V30 6116 1 5472 5473
M  V30 6117 1 5473 5474 CFG=1
M  V30 6118 1 5474 5475
M  V30 6119 1 5476 5475
M  V30 6120 1 5476 5481 CFG=1
M  V30 6121 1 5477 5476
M  V30 6122 1 5480 5476
M  V30 6123 1 5477 5478 CFG=1
M  V30 6124 1 5478 5479
M  V30 6125 1 5479 5480
M  V30 6126 1 5480 5485 CFG=1
M  V30 6127 1 5483 5484
M  V30 6128 1 5485 5486 CFG=6
M  V30 6129 1 5485 5487
M  V30 6130 1 5487 5488
M  V30 6131 1 5489 5488
M  V30 6132 1 5489 5490 CFG=1
M  V30 6133 1 5489 5491
M  V30 6134 1 5491 5492
M  V30 6135 1 5493 5491
M  V30 6136 1 5494 5513 CFG=6
M  V30 6137 1 5495 5494
M  V30 6138 1 5499 5494
M  V30 6139 1 5496 5495
M  V30 6140 1 5497 5496
M  V30 6141 1 5497 5512 CFG=6
M  V30 6142 1 5497 5503
M  V30 6143 1 5497 5498
M  V30 6144 1 5498 5499 CFG=1
M  V30 6145 1 5498 5500
M  V30 6146 1 5501 5500
M  V30 6147 1 5502 5501 CFG=1
M  V30 6148 1 5502 5507
M  V30 6149 1 5503 5502
M  V30 6150 1 5503 5504 CFG=6
M  V30 6151 1 5504 5505
M  V30 6152 1 5505 5506
M  V30 6153 1 5506 5511 CFG=6
M  V30 6154 1 5506 5510
M  V30 6155 1 5506 5507
M  V30 6156 1 5507 5508 CFG=6
M  V30 6157 1 5509 5508
M  V30 6158 1 5510 5509
M  V30 6159 1 5510 5515 CFG=6
M  V30 6160 1 5514 5513
M  V30 6161 1 5515 5517
M  V30 6162 1 5515 5516 CFG=1
M  V30 6163 1 5518 5517
M  V30 6164 1 5518 5519
M  V30 6165 1 5519 5520 CFG=6
M  V30 6166 1 5521 5519
M  V30 6167 1 5521 5522
M  V30 6168 1 5523 5521
M  V30 6169 1 5524 5543 CFG=6
M  V30 6170 1 5525 5524
M  V30 6171 1 5529 5524
M  V30 6172 1 5526 5525
M  V30 6173 1 5526 5527
M  V30 6174 1 5527 5542 CFG=6
M  V30 6175 1 5527 5533
M  V30 6176 1 5527 5528
M  V30 6177 1 5528 5529 CFG=1
M  V30 6178 1 5528 5530
M  V30 6179 1 5531 5530
M  V30 6180 1 5532 5531 CFG=1
M  V30 6181 1 5532 5537
M  V30 6182 1 5533 5532
M  V30 6183 1 5533 5534 CFG=6
M  V30 6184 1 5534 5535
M  V30 6185 1 5535 5536
M  V30 6186 1 5536 5541 CFG=6
M  V30 6187 1 5536 5540
M  V30 6188 1 5536 5537
M  V30 6189 1 5537 5538 CFG=1
M  V30 6190 1 5539 5538
M  V30 6191 1 5540 5539
M  V30 6192 1 5540 5545 CFG=6
M  V30 6193 1 5544 5543
M  V30 6194 1 5545 5546 CFG=6
M  V30 6195 1 5547 5545
M  V30 6196 1 5548 5547
M  V30 6197 1 5548 5549
M  V30 6198 1 5549 5550 CFG=6
M  V30 6199 1 5551 5549
M  V30 6200 1 5552 5551
M  V30 6201 1 5553 5551
M  V30 6202 1 5554 5573 CFG=6
M  V30 6203 1 5554 5555
M  V30 6204 1 5559 5554
M  V30 6205 1 5556 5555
M  V30 6206 1 5557 5556
M  V30 6207 1 5557 5572 CFG=6
M  V30 6208 1 5557 5558
M  V30 6209 1 5557 5563
M  V30 6210 1 5558 5559 CFG=1
M  V30 6211 1 5558 5560
M  V30 6212 1 5561 5560
M  V30 6213 1 5562 5561 CFG=1
M  V30 6214 1 5562 5567
M  V30 6215 1 5563 5562
M  V30 6216 1 5563 5564 CFG=6
M  V30 6217 1 5564 5565
M  V30 6218 1 5566 5565
M  V30 6219 1 5566 5571 CFG=6
M  V30 6220 1 5566 5570
M  V30 6221 1 5566 5567
M  V30 6222 1 5567 5568 CFG=6
M  V30 6223 1 5569 5568
M  V30 6224 1 5570 5569
M  V30 6225 1 5570 5575 CFG=6
M  V30 6226 1 5573 5574
M  V30 6227 1 5575 5576 CFG=1
M  V30 6228 1 5577 5575
M  V30 6229 1 5578 5577
M  V30 6230 1 5579 5578
M  V30 6231 1 5579 5580 CFG=1
M  V30 6232 1 5581 5579
M  V30 6233 1 5582 5581
M  V30 6234 1 5583 5581
M  V30 6235 1 5584 5585
M  V30 6236 1 5584 5589
M  V30 6237 1 5584 5603 CFG=1
M  V30 6238 1 5585 5586
M  V30 6239 1 5587 5586
M  V30 6240 1 5587 5602 CFG=1
M  V30 6241 1 5588 5587
M  V30 6242 1 5593 5587
M  V30 6243 1 5588 5590 CFG=6
M  V30 6244 1 5588 5589
M  V30 6245 1 5591 5590
M  V30 6246 1 5592 5591 CFG=6
M  V30 6247 1 5592 5593
M  V30 6248 1 5597 5592
M  V30 6249 1 5593 5594 CFG=1
M  V30 6250 1 5595 5594
M  V30 6251 1 5596 5595
M  V30 6252 1 5596 5601 CFG=1
M  V30 6253 1 5597 5596
M  V30 6254 1 5600 5596
M  V30 6255 1 5597 5598 CFG=1
M  V30 6256 1 5598 5599
M  V30 6257 1 5599 5600
M  V30 6258 1 5600 5605 CFG=1
M  V30 6259 1 5603 5604
M  V30 6260 1 5605 5606 CFG=6
M  V30 6261 1 5605 5607
M  V30 6262 1 5607 5608
M  V30 6263 1 5608 5609
M  V30 6264 1 5609 5610 CFG=1
M  V30 6265 1 5609 5611
M  V30 6266 1 5611 5612
M  V30 6267 1 5611 5613
M  V30 6268 1 5614 5633 CFG=1
M  V30 6269 1 5614 5615
M  V30 6270 1 5619 5614
M  V30 6271 1 5616 5615
M  V30 6272 1 5617 5616
M  V30 6273 1 5617 5632 CFG=6
M  V30 6274 1 5617 5623
M  V30 6275 1 5618 5617
M  V30 6276 1 5618 5620 CFG=1
M  V30 6277 1 5618 5619
M  V30 6278 1 5621 5620
M  V30 6279 1 5622 5621 CFG=1
M  V30 6280 1 5622 5627
M  V30 6281 1 5622 5623
M  V30 6282 1 5623 5624 CFG=6
M  V30 6283 1 5624 5625
M  V30 6284 1 5626 5625
M  V30 6285 1 5626 5631 CFG=6
M  V30 6286 1 5626 5630
M  V30 6287 1 5627 5626
M  V30 6288 1 5627 5628 CFG=6
M  V30 6289 1 5628 5629
M  V30 6290 1 5629 5630
M  V30 6291 1 5630 5635 CFG=6
M  V30 6292 1 5634 5633
M  V30 6293 1 5635 5636 CFG=6
M  V30 6294 1 5635 5637
M  V30 6295 2 5638 5637
M  V30 6296 1 5639 5638
M  V30 6297 1 5639 5640 CFG=1
M  V30 6298 1 5639 5641
M  V30 6299 1 5641 5643
M  V30 6300 1 5642 5641
M  V30 6301 1 5644 5663 CFG=6
M  V30 6302 1 5644 5648
M  V30 6303 1 5645 5644
M  V30 6304 1 5645 5646
M  V30 6305 1 5647 5646 CFG=6
M  V30 6306 1 5647 5648
M  V30 6307 1 5647 5653
M  V30 6308 1 5648 5649 CFG=6
M  V30 6309 1 5648 5650
M  V30 6310 1 5650 5651
M  V30 6311 1 5652 5651 CFG=6
M  V30 6312 1 5652 5657
M  V30 6313 1 5653 5652
M  V30 6314 1 5653 5654 CFG=1
M  V30 6315 1 5654 5655
M  V30 6316 2 5655 5656
M  V30 6317 1 5656 5657
M  V30 6318 1 5656 5662
M  V30 6319 1 5657 5658 CFG=6
M  V30 6320 1 5657 5659
M  V30 6321 1 5659 5660
M  V30 6322 1 5661 5660
M  V30 6323 1 5661 5673 CFG=1
M  V30 6324 1 5662 5661
M  V30 6325 1 5663 5664 CFG=6
M  V30 6326 1 5663 5666
M  V30 6327 2 5665 5666
M  V30 6328 1 5667 5665 CFG=1
M  V30 6329 1 5667 5668
M  V30 6330 1 5667 5672
M  V30 6331 1 5668 5670
M  V30 6332 1 5668 5669
M  V30 6333 1 5671 5672
M  V30 6334 1 5674 5673
M  V30 6335 1 5675 5694 CFG=6
M  V30 6336 1 5675 5676
M  V30 6337 1 5679 5675
M  V30 6338 1 5676 5677
M  V30 6339 1 5678 5677 CFG=1
M  V30 6340 1 5678 5684
M  V30 6341 1 5679 5678
M  V30 6342 1 5679 5680 CFG=6
M  V30 6343 1 5681 5679
M  V30 6344 1 5681 5682
M  V30 6345 1 5683 5682 CFG=6
M  V30 6346 1 5683 5688
M  V30 6347 1 5683 5684
M  V30 6348 1 5684 5685 CFG=1
M  V30 6349 1 5685 5686
M  V30 6350 2 5687 5686
M  V30 6351 1 5687 5693
M  V30 6352 1 5688 5687
M  V30 6353 1 5688 5689 CFG=6
M  V30 6354 1 5690 5688
M  V30 6355 1 5690 5691
M  V30 6356 1 5691 5692
M  V30 6357 1 5692 5704 CFG=6
M  V30 6358 1 5692 5693
M  V30 6359 1 5694 5695 CFG=1
M  V30 6360 1 5697 5694
M  V30 6361 2 5696 5697
M  V30 6362 1 5698 5696 CFG=1
M  V30 6363 1 5698 5699
M  V30 6364 1 5698 5703
M  V30 6365 1 5699 5700
M  V30 6366 1 5701 5699
M  V30 6367 1 5702 5703
M  V30 6368 1 5705 5704
M  V30 6369 1 5706 5725 CFG=6
M  V30 6370 1 5706 5707
M  V30 6371 1 5710 5706
M  V30 6372 1 5707 5708
M  V30 6373 1 5709 5708 CFG=1
M  V30 6374 1 5710 5709
M  V30 6375 1 5715 5709
M  V30 6376 1 5710 5711 CFG=6
M  V30 6377 1 5712 5710
M  V30 6378 1 5713 5712
M  V30 6379 1 5714 5713 CFG=6
M  V30 6380 1 5714 5715
M  V30 6381 1 5719 5714
M  V30 6382 1 5715 5716 CFG=1
M  V30 6383 1 5717 5716
M  V30 6384 2 5718 5717
M  V30 6385 1 5718 5724
M  V30 6386 1 5719 5718
M  V30 6387 1 5719 5720 CFG=6
M  V30 6388 1 5721 5719
M  V30 6389 1 5721 5722
M  V30 6390 1 5722 5723
M  V30 6391 1 5723 5735 CFG=6
M  V30 6392 1 5723 5724
M  V30 6393 1 5725 5726 CFG=6
M  V30 6394 1 5728 5725
M  V30 6395 2 5727 5728
M  V30 6396 1 5729 5727
M  V30 6397 1 5729 5734 CFG=6
M  V30 6398 1 5730 5729
M  V30 6399 1 5730 5731
M  V30 6400 1 5730 5732
M  V30 6401 1 5734 5733
M  V30 6402 1 5735 5736
M  V30 6403 1 5737 5756 CFG=1
M  V30 6404 1 5737 5741
M  V30 6405 1 5738 5737
M  V30 6406 1 5738 5739
M  V30 6407 1 5740 5739 CFG=1
M  V30 6408 1 5740 5746
M  V30 6409 1 5740 5741
M  V30 6410 1 5741 5742 CFG=1
M  V30 6411 1 5743 5741
M  V30 6412 1 5743 5744
M  V30 6413 1 5745 5744 CFG=1
M  V30 6414 1 5745 5746
M  V30 6415 1 5745 5750
M  V30 6416 1 5746 5747 CFG=6
M  V30 6417 1 5747 5748
M  V30 6418 2 5748 5749
M  V30 6419 1 5749 5755
M  V30 6420 1 5749 5750
M  V30 6421 1 5750 5751 CFG=1
M  V30 6422 1 5752 5750
M  V30 6423 1 5752 5753
M  V30 6424 1 5754 5753
M  V30 6425 1 5754 5766 CFG=1
M  V30 6426 1 5754 5755
M  V30 6427 1 5756 5757 CFG=6
M  V30 6428 1 5756 5759
M  V30 6429 2 5759 5758
M  V30 6430 1 5760 5758 CFG=1
M  V30 6431 1 5760 5761
M  V30 6432 1 5760 5765
M  V30 6433 1 5761 5762
M  V30 6434 1 5763 5761
M  V30 6435 1 5765 5764
M  V30 6436 1 5766 5767
M  V30 6437 1 5768 5787 CFG=6
M  V30 6438 1 5769 5768
M  V30 6439 1 5772 5768
M  V30 6440 1 5770 5769
M  V30 6441 1 5771 5770 CFG=6
M  V30 6442 1 5771 5772
M  V30 6443 1 5777 5771
M  V30 6444 1 5772 5773 CFG=6
M  V30 6445 1 5772 5774
M  V30 6446 1 5775 5774
M  V30 6447 1 5776 5775 CFG=6
M  V30 6448 1 5777 5776
M  V30 6449 1 5781 5776
M  V30 6450 1 5777 5778 CFG=1
M  V30 6451 1 5779 5778
M  V30 6452 2 5780 5779
M  V30 6453 1 5780 5781
M  V30 6454 1 5786 5780
M  V30 6455 1 5781 5782 CFG=6
M  V30 6456 1 5781 5783
M  V30 6457 1 5784 5783
M  V30 6458 1 5785 5784
M  V30 6459 1 5785 5797 CFG=6
M  V30 6460 1 5786 5785
M  V30 6461 1 5787 5788 CFG=1
M  V30 6462 1 5790 5787
M  V30 6463 2 5789 5790
M  V30 6464 1 5791 5789
M  V30 6465 1 5791 5796 CFG=6
M  V30 6466 1 5791 5792
M  V30 6467 1 5792 5794
M  V30 6468 1 5793 5792
M  V30 6469 1 5795 5796
M  V30 6470 1 5797 5798
M  V30 6471 1 5799 5803
M  V30 6472 1 5799 5818 CFG=1
M  V30 6473 1 5800 5799
M  V30 6474 1 5801 5800
M  V30 6475 1 5802 5801 CFG=1
M  V30 6476 1 5802 5808
M  V30 6477 1 5802 5803
M  V30 6478 1 5803 5805
M  V30 6479 1 5803 5804 CFG=1
M  V30 6480 1 5805 5806
M  V30 6481 1 5807 5806 CFG=1
M  V30 6482 1 5807 5812
M  V30 6483 1 5808 5807
M  V30 6484 1 5808 5809 CFG=6
M  V30 6485 1 5809 5810
M  V30 6486 2 5810 5811
M  V30 6487 1 5811 5817
M  V30 6488 1 5811 5812
M  V30 6489 1 5812 5813 CFG=1
M  V30 6490 1 5814 5812
M  V30 6491 1 5814 5815
M  V30 6492 1 5816 5815
M  V30 6493 1 5816 5828 CFG=1
M  V30 6494 1 5816 5817
M  V30 6495 1 5818 5819 CFG=1
M  V30 6496 1 5818 5821
M  V30 6497 2 5821 5820
M  V30 6498 1 5822 5820 CFG=6
M  V30 6499 1 5822 5827
M  V30 6500 1 5822 5823
M  V30 6501 1 5823 5824
M  V30 6502 1 5823 5825
M  V30 6503 1 5826 5827
M  V30 6504 1 5828 5829
M  V30 6505 1 5830 5849 CFG=6
M  V30 6506 1 5830 5831
M  V30 6507 1 5834 5830
M  V30 6508 1 5831 5832
M  V30 6509 1 5833 5832 CFG=1
M  V30 6510 1 5833 5839
M  V30 6511 1 5834 5833
M  V30 6512 1 5834 5835 CFG=6
M  V30 6513 1 5836 5834
M  V30 6514 1 5837 5836
M  V30 6515 1 5838 5837 CFG=6
M  V30 6516 1 5838 5839
M  V30 6517 1 5843 5838
M  V30 6518 1 5839 5840 CFG=1
M  V30 6519 1 5840 5841
M  V30 6520 2 5842 5841
M  V30 6521 1 5842 5848
M  V30 6522 1 5843 5842
M  V30 6523 1 5843 5844 CFG=6
M  V30 6524 1 5845 5843
M  V30 6525 1 5845 5846
M  V30 6526 1 5846 5847
M  V30 6527 1 5847 5859 CFG=6
M  V30 6528 1 5847 5848
M  V30 6529 1 5849 5850 CFG=6
M  V30 6530 1 5852 5849
M  V30 6531 2 5851 5852
M  V30 6532 1 5853 5851 CFG=1
M  V30 6533 1 5853 5854
M  V30 6534 1 5853 5858
M  V30 6535 1 5854 5855
M  V30 6536 1 5856 5854
M  V30 6537 1 5857 5858
M  V30 6538 1 5859 5860
M  V30 6539 1 5861 5880 CFG=6
M  V30 6540 1 5862 5861
M  V30 6541 1 5865 5861
M  V30 6542 1 5863 5862
M  V30 6543 1 5864 5863 CFG=6
M  V30 6544 1 5864 5865
M  V30 6545 1 5870 5864
M  V30 6546 1 5865 5866 CFG=6
M  V30 6547 1 5865 5867
M  V30 6548 1 5868 5867
M  V30 6549 1 5869 5868 CFG=6
M  V30 6550 1 5870 5869
M  V30 6551 1 5874 5869
M  V30 6552 1 5870 5871 CFG=1
M  V30 6553 1 5871 5872
M  V30 6554 2 5872 5873
M  V30 6555 1 5873 5879
M  V30 6556 1 5873 5874
M  V30 6557 1 5874 5875 CFG=6
M  V30 6558 1 5874 5876
M  V30 6559 1 5877 5876
M  V30 6560 1 5878 5877
M  V30 6561 1 5878 5890 CFG=6
M  V30 6562 1 5879 5878
M  V30 6563 1 5880 5881 CFG=6
M  V30 6564 1 5883 5880
M  V30 6565 2 5883 5882
M  V30 6566 1 5884 5882
M  V30 6567 1 5884 5889 CFG=6
M  V30 6568 1 5884 5885
M  V30 6569 1 5885 5887
M  V30 6570 1 5885 5886
M  V30 6571 1 5888 5889
M  V30 6572 1 5891 5890
M  V30 6573 1 5892 5911 CFG=6
M  V30 6574 1 5893 5892
M  V30 6575 1 5896 5892
M  V30 6576 1 5894 5893
M  V30 6577 1 5895 5894 CFG=6
M  V30 6578 1 5896 5895
M  V30 6579 1 5901 5895
M  V30 6580 1 5896 5897 CFG=6
M  V30 6581 1 5896 5898
M  V30 6582 1 5899 5898
M  V30 6583 1 5900 5899 CFG=6
M  V30 6584 1 5901 5900
M  V30 6585 1 5905 5900
M  V30 6586 1 5901 5902 CFG=1
M  V30 6587 1 5903 5902
M  V30 6588 2 5903 5904
M  V30 6589 1 5905 5904
M  V30 6590 1 5910 5904
M  V30 6591 1 5905 5906 CFG=6
M  V30 6592 1 5905 5907
M  V30 6593 1 5908 5907
M  V30 6594 1 5908 5909
M  V30 6595 1 5909 5921 CFG=6
M  V30 6596 1 5910 5909
M  V30 6597 1 5911 5912 CFG=6
M  V30 6598 1 5911 5914
M  V30 6599 2 5914 5913
M  V30 6600 1 5915 5913 CFG=1
M  V30 6601 1 5915 5916
M  V30 6602 1 5915 5920
M  V30 6603 1 5916 5917
M  V30 6604 1 5918 5916
M  V30 6605 1 5920 5919
M  V30 6606 1 5921 5922
M  V30 END BOND
M  V30 END CTAB
M  END
$$$$
