MODEL 1
REMARK VINA RESULT:    -8.339      0.000      0.000
REMARK INTER + INTRA:         -12.397
REMARK INTER:                 -11.287
REMARK INTRA:                  -1.110
REMARK UNBOUND:                -0.889
REMARK  Name = 
REMARK  8 active torsions:
REMARK  status: ('A' for Active; 'I' for Inactive)
REMARK    1  A    between atoms: C_1  and  O_2
REMARK    2  A    between atoms: O_2  and  C_3
REMARK    3  A    between atoms: C_3  and  C_5
REMARK    4  A    between atoms: C_5  and  C_6
REMARK    5  A    between atoms: C_6  and  O_7
REMARK    6  A    between atoms: C_13  and  N_14
REMARK    7  A    between atoms: C_15  and  C_17
REMARK    8  A    between atoms: C_18  and  C_19
REMARK                            x       y       z     vdW  Elec       q    Type
REMARK                         _______ _______ _______ _____ _____    ______ ____
ROOT
ATOM      1  C   UNL     1      89.056  50.204  41.786  0.00  0.00    +0.113 C 
ATOM      2  C   UNL     1      89.931  49.068  41.279  0.00  0.00    -0.047 C 
ATOM      3  C   UNL     1      89.691  47.788  41.583  0.00  0.00    -0.020 C 
ATOM      4  C   UNL     1      88.618  47.414  42.517  0.00  0.00    +0.158 C 
ATOM      5  O   UNL     1      88.406  46.199  42.769  0.00  0.00    -0.293 OA
ATOM      6  C   UNL     1      87.746  48.468  43.133  0.00  0.00    +0.031 C 
ATOM      7  C   UNL     1      88.482  49.818  43.190  0.00  0.00    +0.063 C 
ENDROOT
BRANCH   7   8
ATOM      8  N   UNL     1      87.569  50.848  43.702  0.00  0.00    -0.305 N 
ATOM      9  C   UNL     1      87.345  51.074  45.103  0.00  0.00    +0.237 C 
ATOM     10  O   UNL     1      87.925  50.355  45.962  0.00  0.00    -0.271 OA
ATOM     11  H   UNL     1      87.085  51.409  43.054  0.00  0.00    +0.000 HD
BRANCH   9  12
ATOM     12  C   UNL     1      86.440  52.158  45.528  0.00  0.00    +0.001 C 
ATOM     13  C   UNL     1      86.467  52.668  46.769  0.00  0.00    -0.050 C 
BRANCH  13  14
ATOM     14  C   UNL     1      85.568  53.752  47.234  0.00  0.00    -0.025 A 
ATOM     15  C   UNL     1      84.394  53.500  47.974  0.00  0.00    -0.055 A 
ATOM     16  C   UNL     1      83.573  54.557  48.380  0.00  0.00    -0.061 A 
ATOM     17  C   UNL     1      83.906  55.871  48.049  0.00  0.00    -0.062 A 
ATOM     18  C   UNL     1      85.057  56.132  47.303  0.00  0.00    -0.061 A 
ATOM     19  C   UNL     1      85.881  55.080  46.894  0.00  0.00    -0.055 A 
ENDBRANCH  13  14
ENDBRANCH   9  12
ENDBRANCH   7   8
BRANCH   1  20
ATOM     20  O   UNL     1      88.003  50.370  40.863  0.00  0.00    -0.382 OA
ATOM     21  H   UNL     1      87.495  49.546  40.800  0.00  0.00    +0.000 HD
ENDBRANCH   1  20
BRANCH   1  22
ATOM     22  C   UNL     1      89.902  51.505  41.894  0.00  0.00    +0.079 C 
BRANCH  22  23
ATOM     23  C   UNL     1      89.220  52.697  41.288  0.00  0.00    +0.310 C 
ATOM     24  O   UNL     1      88.397  53.365  41.972  0.00  0.00    -0.251 OA
BRANCH  23  26
ATOM     25  C   UNL     1      90.684  53.791  39.622  0.00  0.00    +0.082 C 
ATOM     26  O   UNL     1      89.513  53.063  39.971  0.00  0.00    -0.468 OA
ENDBRANCH  23  26
ENDBRANCH  22  23
ENDBRANCH   1  22
TORSDOF 7
ENDMDL
MODEL 2
REMARK VINA RESULT:    -8.047      1.331      2.027
REMARK INTER + INTRA:         -11.995
REMARK INTER:                 -10.783
REMARK INTRA:                  -1.212
REMARK UNBOUND:                -0.889
REMARK  Name = 
REMARK  8 active torsions:
REMARK  status: ('A' for Active; 'I' for Inactive)
REMARK    1  A    between atoms: C_1  and  O_2
REMARK    2  A    between atoms: O_2  and  C_3
REMARK    3  A    between atoms: C_3  and  C_5
REMARK    4  A    between atoms: C_5  and  C_6
REMARK    5  A    between atoms: C_6  and  O_7
REMARK    6  A    between atoms: C_13  and  N_14
REMARK    7  A    between atoms: C_15  and  C_17
REMARK    8  A    between atoms: C_18  and  C_19
REMARK                            x       y       z     vdW  Elec       q    Type
REMARK                         _______ _______ _______ _____ _____    ______ ____
ROOT
ATOM      1  C   UNL     1      88.423  48.544  41.950  0.00  0.00    +0.113 C 
ATOM      2  C   UNL     1      88.831  47.117  41.616  0.00  0.00    -0.047 C 
ATOM      3  C   UNL     1      88.171  46.055  42.088  0.00  0.00    -0.020 C 
ATOM      4  C   UNL     1      87.067  46.207  43.049  0.00  0.00    +0.158 C 
ATOM      5  O   UNL     1      86.454  45.188  43.462  0.00  0.00    -0.293 OA
ATOM      6  C   UNL     1      86.638  47.572  43.502  0.00  0.00    +0.031 C 
ATOM      7  C   UNL     1      87.800  48.575  43.386  0.00  0.00    +0.063 C 
ENDROOT
BRANCH   7   8
ATOM      8  N   UNL     1      87.320  49.916  43.739  0.00  0.00    -0.305 N 
ATOM      9  C   UNL     1      87.564  50.528  45.015  0.00  0.00    +0.237 C 
ATOM     10  O   UNL     1      88.197  49.901  45.908  0.00  0.00    -0.271 OA
ATOM     11  H   UNL     1      86.804  50.421  43.068  0.00  0.00    +0.000 HD
BRANCH   9  12
ATOM     12  C   UNL     1      87.080  51.898  45.269  0.00  0.00    +0.001 C 
ATOM     13  C   UNL     1      86.533  52.258  46.439  0.00  0.00    -0.050 C 
BRANCH  13  14
ATOM     14  C   UNL     1      86.028  53.622  46.728  0.00  0.00    -0.025 A 
ATOM     15  C   UNL     1      86.634  54.784  46.205  0.00  0.00    -0.055 A 
ATOM     16  C   UNL     1      86.126  56.049  46.517  0.00  0.00    -0.061 A 
ATOM     17  C   UNL     1      85.018  56.172  47.357  0.00  0.00    -0.062 A 
ATOM     18  C   UNL     1      84.419  55.031  47.894  0.00  0.00    -0.061 A 
ATOM     19  C   UNL     1      84.922  53.764  47.586  0.00  0.00    -0.055 A 
ENDBRANCH  13  14
ENDBRANCH   9  12
ENDBRANCH   7   8
BRANCH   1  20
ATOM     20  O   UNL     1      87.464  48.943  40.998  0.00  0.00    -0.382 OA
ATOM     21  H   UNL     1      86.902  49.637  41.377  0.00  0.00    +0.000 HD
ENDBRANCH   1  20
BRANCH   1  22
ATOM     22  C   UNL     1      89.673  49.469  41.891  0.00  0.00    +0.079 C 
BRANCH  22  23
ATOM     23  C   UNL     1      89.388  50.797  41.250  0.00  0.00    +0.310 C 
ATOM     24  O   UNL     1      89.327  50.886  39.993  0.00  0.00    -0.251 OA
BRANCH  23  26
ATOM     25  C   UNL     1      88.117  52.838  41.828  0.00  0.00    +0.082 C 
ATOM     26  O   UNL     1      89.180  51.920  42.055  0.00  0.00    -0.468 OA
ENDBRANCH  23  26
ENDBRANCH  22  23
ENDBRANCH   1  22
TORSDOF 7
ENDMDL
MODEL 3
REMARK VINA RESULT:    -7.922      3.879      4.689
REMARK INTER + INTRA:         -11.822
REMARK INTER:                 -10.440
REMARK INTRA:                  -1.382
REMARK UNBOUND:                -0.889
REMARK  Name = 
REMARK  8 active torsions:
REMARK  status: ('A' for Active; 'I' for Inactive)
REMARK    1  A    between atoms: C_1  and  O_2
REMARK    2  A    between atoms: O_2  and  C_3
REMARK    3  A    between atoms: C_3  and  C_5
REMARK    4  A    between atoms: C_5  and  C_6
REMARK    5  A    between atoms: C_6  and  O_7
REMARK    6  A    between atoms: C_13  and  N_14
REMARK    7  A    between atoms: C_15  and  C_17
REMARK    8  A    between atoms: C_18  and  C_19
REMARK                            x       y       z     vdW  Elec       q    Type
REMARK                         _______ _______ _______ _____ _____    ______ ____
ROOT
ATOM      1  C   UNL     1      88.498  50.074  42.144  0.00  0.00    +0.113 C 
ATOM      2  C   UNL     1      89.991  49.861  41.944  0.00  0.00    -0.047 C 
ATOM      3  C   UNL     1      90.551  48.647  41.963  0.00  0.00    -0.020 C 
ATOM      4  C   UNL     1      89.761  47.448  42.283  0.00  0.00    +0.158 C 
ATOM      5  O   UNL     1      90.314  46.317  42.275  0.00  0.00    -0.293 OA
ATOM      6  C   UNL     1      88.293  47.561  42.572  0.00  0.00    +0.031 C 
ATOM      7  C   UNL     1      87.949  48.964  43.102  0.00  0.00    +0.063 C 
ENDROOT
BRANCH   7   8
ATOM      8  N   UNL     1      86.495  49.073  43.277  0.00  0.00    -0.305 N 
ATOM      9  C   UNL     1      85.874  49.334  44.545  0.00  0.00    +0.237 C 
ATOM     10  O   UNL     1      86.580  49.456  45.584  0.00  0.00    -0.271 OA
ATOM     11  H   UNL     1      85.918  48.960  42.487  0.00  0.00    +0.000 HD
BRANCH   9  12
ATOM     12  C   UNL     1      84.407  49.468  44.622  0.00  0.00    +0.001 C 
ATOM     13  C   UNL     1      83.584  48.808  43.794  0.00  0.00    -0.050 C 
BRANCH  13  14
ATOM     14  C   UNL     1      82.105  48.924  43.837  0.00  0.00    -0.025 A 
ATOM     15  C   UNL     1      81.278  47.905  44.354  0.00  0.00    -0.055 A 
ATOM     16  C   UNL     1      79.888  48.058  44.361  0.00  0.00    -0.061 A 
ATOM     17  C   UNL     1      79.307  49.219  43.848  0.00  0.00    -0.062 A 
ATOM     18  C   UNL     1      80.114  50.228  43.320  0.00  0.00    -0.061 A 
ATOM     19  C   UNL     1      81.504  50.081  43.309  0.00  0.00    -0.055 A 
ENDBRANCH  13  14
ENDBRANCH   9  12
ENDBRANCH   7   8
BRANCH   1  20
ATOM     20  O   UNL     1      87.884  49.969  40.880  0.00  0.00    -0.382 OA
ATOM     21  H   UNL     1      87.030  49.518  40.972  0.00  0.00    +0.000 HD
ENDBRANCH   1  20
BRANCH   1  22
ATOM     22  C   UNL     1      88.251  51.481  42.761  0.00  0.00    +0.079 C 
BRANCH  22  23
ATOM     23  C   UNL     1      87.176  52.249  42.049  0.00  0.00    +0.310 C 
ATOM     24  O   UNL     1      87.396  53.431  41.667  0.00  0.00    -0.251 OA
BRANCH  23  26
ATOM     25  C   UNL     1      84.703  52.306  42.031  0.00  0.00    +0.082 C 
ATOM     26  O   UNL     1      85.941  51.641  41.806  0.00  0.00    -0.468 OA
ENDBRANCH  23  26
ENDBRANCH  22  23
ENDBRANCH   1  22
TORSDOF 7
ENDMDL
MODEL 4
REMARK VINA RESULT:    -7.752      3.053      7.614
REMARK INTER + INTRA:         -11.587
REMARK INTER:                 -10.375
REMARK INTRA:                  -1.212
REMARK UNBOUND:                -0.889
REMARK  Name = 
REMARK  8 active torsions:
REMARK  status: ('A' for Active; 'I' for Inactive)
REMARK    1  A    between atoms: C_1  and  O_2
REMARK    2  A    between atoms: O_2  and  C_3
REMARK    3  A    between atoms: C_3  and  C_5
REMARK    4  A    between atoms: C_5  and  C_6
REMARK    5  A    between atoms: C_6  and  O_7
REMARK    6  A    between atoms: C_13  and  N_14
REMARK    7  A    between atoms: C_15  and  C_17
REMARK    8  A    between atoms: C_18  and  C_19
REMARK                            x       y       z     vdW  Elec       q    Type
REMARK                         _______ _______ _______ _____ _____    ______ ____
ROOT
ATOM      1  C   UNL     1      85.248  55.464  43.708  0.00  0.00    +0.113 C 
ATOM      2  C   UNL     1      84.634  56.648  44.440  0.00  0.00    -0.047 C 
ATOM      3  C   UNL     1      84.931  56.936  45.711  0.00  0.00    -0.020 C 
ATOM      4  C   UNL     1      85.798  56.056  46.511  0.00  0.00    +0.158 C 
ATOM      5  O   UNL     1      86.073  56.365  47.700  0.00  0.00    -0.293 OA
ATOM      6  C   UNL     1      86.393  54.820  45.902  0.00  0.00    +0.031 C 
ATOM      7  C   UNL     1      85.526  54.316  44.735  0.00  0.00    +0.063 C 
ENDROOT
BRANCH   7   8
ATOM      8  N   UNL     1      86.186  53.170  44.099  0.00  0.00    -0.305 N 
ATOM      9  C   UNL     1      85.843  51.805  44.388  0.00  0.00    +0.237 C 
ATOM     10  O   UNL     1      84.953  51.543  45.242  0.00  0.00    -0.271 OA
ATOM     11  H   UNL     1      86.901  53.345  43.445  0.00  0.00    +0.000 HD
BRANCH   9  12
ATOM     12  C   UNL     1      86.532  50.715  43.671  0.00  0.00    +0.001 C 
ATOM     13  C   UNL     1      87.865  50.569  43.702  0.00  0.00    -0.050 C 
BRANCH  13  14
ATOM     14  C   UNL     1      88.592  49.490  42.988  0.00  0.00    -0.025 A 
ATOM     15  C   UNL     1      89.924  49.636  42.547  0.00  0.00    -0.055 A 
ATOM     16  C   UNL     1      90.562  48.593  41.868  0.00  0.00    -0.061 A 
ATOM     17  C   UNL     1      89.881  47.401  41.613  0.00  0.00    -0.062 A 
ATOM     18  C   UNL     1      88.558  47.252  42.031  0.00  0.00    -0.061 A 
ATOM     19  C   UNL     1      87.914  48.290  42.709  0.00  0.00    -0.055 A 
ENDBRANCH  13  14
ENDBRANCH   9  12
ENDBRANCH   7   8
BRANCH   1  20
ATOM     20  O   UNL     1      86.459  55.904  43.136  0.00  0.00    -0.382 OA
ATOM     21  H   UNL     1      86.362  56.824  42.843  0.00  0.00    +0.000 HD
ENDBRANCH   1  20
BRANCH   1  22
ATOM     22  C   UNL     1      84.267  54.968  42.606  0.00  0.00    +0.079 C 
BRANCH  22  23
ATOM     23  C   UNL     1      84.929  54.800  41.269  0.00  0.00    +0.310 C 
ATOM     24  O   UNL     1      85.664  53.797  41.054  0.00  0.00    -0.251 OA
BRANCH  23  26
ATOM     25  C   UNL     1      84.279  55.404  38.960  0.00  0.00    +0.082 C 
ATOM     26  O   UNL     1      84.714  55.753  40.269  0.00  0.00    -0.468 OA
ENDBRANCH  23  26
ENDBRANCH  22  23
ENDBRANCH   1  22
TORSDOF 7
ENDMDL
MODEL 5
REMARK VINA RESULT:    -7.592      2.997      7.790
REMARK INTER + INTRA:         -11.366
REMARK INTER:                 -10.018
REMARK INTRA:                  -1.348
REMARK UNBOUND:                -0.889
REMARK  Name = 
REMARK  8 active torsions:
REMARK  status: ('A' for Active; 'I' for Inactive)
REMARK    1  A    between atoms: C_1  and  O_2
REMARK    2  A    between atoms: O_2  and  C_3
REMARK    3  A    between atoms: C_3  and  C_5
REMARK    4  A    between atoms: C_5  and  C_6
REMARK    5  A    between atoms: C_6  and  O_7
REMARK    6  A    between atoms: C_13  and  N_14
REMARK    7  A    between atoms: C_15  and  C_17
REMARK    8  A    between atoms: C_18  and  C_19
REMARK                            x       y       z     vdW  Elec       q    Type
REMARK                         _______ _______ _______ _____ _____    ______ ____
ROOT
ATOM      1  C   UNL     1      85.336  54.295  43.806  0.00  0.00    +0.113 C 
ATOM      2  C   UNL     1      84.446  55.518  43.645  0.00  0.00    -0.047 C 
ATOM      3  C   UNL     1      83.831  55.810  42.495  0.00  0.00    -0.020 C 
ATOM      4  C   UNL     1      84.066  55.013  41.280  0.00  0.00    +0.158 C 
ATOM      5  O   UNL     1      83.458  55.303  40.217  0.00  0.00    -0.293 OA
ATOM      6  C   UNL     1      84.988  53.830  41.315  0.00  0.00    +0.031 C 
ATOM      7  C   UNL     1      86.030  53.984  42.438  0.00  0.00    +0.063 C 
ENDROOT
BRANCH   7   8
ATOM      8  N   UNL     1      86.849  52.768  42.510  0.00  0.00    -0.305 N 
ATOM      9  C   UNL     1      88.241  52.735  42.159  0.00  0.00    +0.237 C 
ATOM     10  O   UNL     1      88.813  53.779  41.739  0.00  0.00    -0.271 OA
ATOM     11  H   UNL     1      86.423  51.933  42.813  0.00  0.00    +0.000 HD
BRANCH   9  12
ATOM     12  C   UNL     1      88.997  51.477  42.301  0.00  0.00    +0.001 C 
ATOM     13  C   UNL     1      88.392  50.283  42.377  0.00  0.00    -0.050 C 
BRANCH  13  14
ATOM     14  C   UNL     1      89.119  48.998  42.528  0.00  0.00    -0.025 A 
ATOM     15  C   UNL     1      88.706  47.812  41.886  0.00  0.00    -0.055 A 
ATOM     16  C   UNL     1      89.420  46.623  42.070  0.00  0.00    -0.061 A 
ATOM     17  C   UNL     1      90.543  46.600  42.898  0.00  0.00    -0.062 A 
ATOM     18  C   UNL     1      90.952  47.764  43.552  0.00  0.00    -0.061 A 
ATOM     19  C   UNL     1      90.243  48.955  43.372  0.00  0.00    -0.055 A 
ENDBRANCH  13  14
ENDBRANCH   9  12
ENDBRANCH   7   8
BRANCH   1  20
ATOM     20  O   UNL     1      84.509  53.217  44.184  0.00  0.00    -0.382 OA
ATOM     21  H   UNL     1      83.663  53.279  43.712  0.00  0.00    +0.000 HD
ENDBRANCH   1  20
BRANCH   1  22
ATOM     22  C   UNL     1      86.409  54.572  44.898  0.00  0.00    +0.079 C 
BRANCH  22  23
ATOM     23  C   UNL     1      86.493  53.480  45.926  0.00  0.00    +0.310 C 
ATOM     24  O   UNL     1      86.950  52.349  45.604  0.00  0.00    -0.251 OA
BRANCH  23  26
ATOM     25  C   UNL     1      85.267  54.855  47.576  0.00  0.00    +0.082 C 
ATOM     26  O   UNL     1      86.072  53.733  47.235  0.00  0.00    -0.468 OA
ENDBRANCH  23  26
ENDBRANCH  22  23
ENDBRANCH   1  22
TORSDOF 7
ENDMDL
MODEL 6
REMARK VINA RESULT:    -7.534      2.833      7.710
REMARK INTER + INTRA:         -11.286
REMARK INTER:                 -10.661
REMARK INTRA:                  -0.625
REMARK UNBOUND:                -0.889
REMARK  Name = 
REMARK  8 active torsions:
REMARK  status: ('A' for Active; 'I' for Inactive)
REMARK    1  A    between atoms: C_1  and  O_2
REMARK    2  A    between atoms: O_2  and  C_3
REMARK    3  A    between atoms: C_3  and  C_5
REMARK    4  A    between atoms: C_5  and  C_6
REMARK    5  A    between atoms: C_6  and  O_7
REMARK    6  A    between atoms: C_13  and  N_14
REMARK    7  A    between atoms: C_15  and  C_17
REMARK    8  A    between atoms: C_18  and  C_19
REMARK                            x       y       z     vdW  Elec       q    Type
REMARK                         _______ _______ _______ _____ _____    ______ ____
ROOT
ATOM      1  C   UNL     1      85.039  54.820  45.992  0.00  0.00    +0.113 C 
ATOM      2  C   UNL     1      84.268  55.564  47.071  0.00  0.00    -0.047 C 
ATOM      3  C   UNL     1      83.901  54.984  48.218  0.00  0.00    -0.020 C 
ATOM      4  C   UNL     1      84.134  53.551  48.458  0.00  0.00    +0.158 C 
ATOM      5  O   UNL     1      83.792  53.038  49.555  0.00  0.00    -0.293 OA
ATOM      6  C   UNL     1      84.820  52.710  47.421  0.00  0.00    +0.031 C 
ATOM      7  C   UNL     1      84.625  53.311  46.017  0.00  0.00    +0.063 C 
ENDROOT
BRANCH   7   8
ATOM      8  N   UNL     1      85.391  52.524  45.042  0.00  0.00    -0.305 N 
ATOM      9  C   UNL     1      86.695  51.989  45.315  0.00  0.00    +0.237 C 
ATOM     10  O   UNL     1      87.251  52.208  46.426  0.00  0.00    -0.271 OA
ATOM     11  H   UNL     1      84.991  52.356  44.158  0.00  0.00    +0.000 HD
BRANCH   9  12
ATOM     12  C   UNL     1      87.376  51.174  44.290  0.00  0.00    +0.001 C 
ATOM     13  C   UNL     1      87.968  50.007  44.582  0.00  0.00    -0.050 C 
BRANCH  13  14
ATOM     14  C   UNL     1      88.668  49.165  43.580  0.00  0.00    -0.025 A 
ATOM     15  C   UNL     1      90.030  49.343  43.256  0.00  0.00    -0.055 A 
ATOM     16  C   UNL     1      90.640  48.530  42.296  0.00  0.00    -0.061 A 
ATOM     17  C   UNL     1      89.903  47.540  41.643  0.00  0.00    -0.062 A 
ATOM     18  C   UNL     1      88.551  47.365  41.944  0.00  0.00    -0.061 A 
ATOM     19  C   UNL     1      87.935  48.175  42.902  0.00  0.00    -0.055 A 
ENDBRANCH  13  14
ENDBRANCH   9  12
ENDBRANCH   7   8
BRANCH   1  20
ATOM     20  O   UNL     1      86.412  54.950  46.288  0.00  0.00    -0.382 OA
ATOM     21  H   UNL     1      86.645  55.891  46.330  0.00  0.00    +0.000 HD
ENDBRANCH   1  20
BRANCH   1  22
ATOM     22  C   UNL     1      84.716  55.439  44.601  0.00  0.00    +0.079 C 
BRANCH  22  23
ATOM     23  C   UNL     1      85.948  55.793  43.819  0.00  0.00    +0.310 C 
ATOM     24  O   UNL     1      86.479  54.936  43.061  0.00  0.00    -0.251 OA
BRANCH  23  26
ATOM     25  C   UNL     1      85.740  58.183  44.421  0.00  0.00    +0.082 C 
ATOM     26  O   UNL     1      86.490  57.078  43.932  0.00  0.00    -0.468 OA
ENDBRANCH  23  26
ENDBRANCH  22  23
ENDBRANCH   1  22
TORSDOF 7
ENDMDL
MODEL 7
REMARK VINA RESULT:    -7.347      3.799      5.725
REMARK INTER + INTRA:         -11.028
REMARK INTER:                  -9.915
REMARK INTRA:                  -1.113
REMARK UNBOUND:                -0.889
REMARK  Name = 
REMARK  8 active torsions:
REMARK  status: ('A' for Active; 'I' for Inactive)
REMARK    1  A    between atoms: C_1  and  O_2
REMARK    2  A    between atoms: O_2  and  C_3
REMARK    3  A    between atoms: C_3  and  C_5
REMARK    4  A    between atoms: C_5  and  C_6
REMARK    5  A    between atoms: C_6  and  O_7
REMARK    6  A    between atoms: C_13  and  N_14
REMARK    7  A    between atoms: C_15  and  C_17
REMARK    8  A    between atoms: C_18  and  C_19
REMARK                            x       y       z     vdW  Elec       q    Type
REMARK                         _______ _______ _______ _____ _____    ______ ____
ROOT
ATOM      1  C   UNL     1      84.115  46.002  43.687  0.00  0.00    +0.113 C 
ATOM      2  C   UNL     1      84.393  44.788  42.814  0.00  0.00    -0.047 C 
ATOM      3  C   UNL     1      85.630  44.324  42.605  0.00  0.00    -0.020 C 
ATOM      4  C   UNL     1      86.809  45.030  43.131  0.00  0.00    +0.158 C 
ATOM      5  O   UNL     1      87.959  44.559  42.932  0.00  0.00    -0.293 OA
ATOM      6  C   UNL     1      86.644  46.282  43.942  0.00  0.00    +0.031 C 
ATOM      7  C   UNL     1      85.324  46.990  43.589  0.00  0.00    +0.063 C 
ENDROOT
BRANCH   7   8
ATOM      8  N   UNL     1      85.146  48.152  44.469  0.00  0.00    -0.305 N 
ATOM      9  C   UNL     1      85.724  49.439  44.199  0.00  0.00    +0.237 C 
ATOM     10  O   UNL     1      86.446  49.608  43.179  0.00  0.00    -0.271 OA
ATOM     11  H   UNL     1      84.605  48.043  45.285  0.00  0.00    +0.000 HD
BRANCH   9  12
ATOM     12  C   UNL     1      85.459  50.562  45.118  0.00  0.00    +0.001 C 
ATOM     13  C   UNL     1      86.398  51.466  45.432  0.00  0.00    -0.050 C 
BRANCH  13  14
ATOM     14  C   UNL     1      86.170  52.604  46.357  0.00  0.00    -0.025 A 
ATOM     15  C   UNL     1      86.449  53.940  46.001  0.00  0.00    -0.055 A 
ATOM     16  C   UNL     1      86.228  54.976  46.915  0.00  0.00    -0.061 A 
ATOM     17  C   UNL     1      85.736  54.694  48.190  0.00  0.00    -0.062 A 
ATOM     18  C   UNL     1      85.471  53.373  48.559  0.00  0.00    -0.061 A 
ATOM     19  C   UNL     1      85.691  52.334  47.652  0.00  0.00    -0.055 A 
ENDBRANCH  13  14
ENDBRANCH   9  12
ENDBRANCH   7   8
BRANCH   1  20
ATOM     20  O   UNL     1      83.972  45.543  45.013  0.00  0.00    -0.382 OA
ATOM     21  H   UNL     1      84.110  46.282  45.627  0.00  0.00    +0.000 HD
ENDBRANCH   1  20
BRANCH   1  22
ATOM     22  C   UNL     1      82.812  46.702  43.205  0.00  0.00    +0.079 C 
BRANCH  22  23
ATOM     23  C   UNL     1      81.960  47.196  44.339  0.00  0.00    +0.310 C 
ATOM     24  O   UNL     1      81.277  46.377  45.014  0.00  0.00    -0.251 OA
BRANCH  23  26
ATOM     25  C   UNL     1      81.910  49.567  43.639  0.00  0.00    +0.082 C 
ATOM     26  O   UNL     1      81.942  48.560  44.643  0.00  0.00    -0.468 OA
ENDBRANCH  23  26
ENDBRANCH  22  23
ENDBRANCH   1  22
TORSDOF 7
ENDMDL
MODEL 8
REMARK VINA RESULT:    -7.338      1.875      2.663
REMARK INTER + INTRA:         -11.016
REMARK INTER:                 -10.095
REMARK INTRA:                  -0.921
REMARK UNBOUND:                -0.889
REMARK  Name = 
REMARK  8 active torsions:
REMARK  status: ('A' for Active; 'I' for Inactive)
REMARK    1  A    between atoms: C_1  and  O_2
REMARK    2  A    between atoms: O_2  and  C_3
REMARK    3  A    between atoms: C_3  and  C_5
REMARK    4  A    between atoms: C_5  and  C_6
REMARK    5  A    between atoms: C_6  and  O_7
REMARK    6  A    between atoms: C_13  and  N_14
REMARK    7  A    between atoms: C_15  and  C_17
REMARK    8  A    between atoms: C_18  and  C_19
REMARK                            x       y       z     vdW  Elec       q    Type
REMARK                         _______ _______ _______ _____ _____    ______ ____
ROOT
ATOM      1  C   UNL     1      87.684  49.788  42.693  0.00  0.00    +0.113 C 
ATOM      2  C   UNL     1      87.837  48.289  42.485  0.00  0.00    -0.047 C 
ATOM      3  C   UNL     1      87.054  47.397  43.100  0.00  0.00    -0.020 C 
ATOM      4  C   UNL     1      86.060  47.815  44.101  0.00  0.00    +0.158 C 
ATOM      5  O   UNL     1      85.326  46.952  44.650  0.00  0.00    -0.293 OA
ATOM      6  C   UNL     1      85.885  49.267  44.435  0.00  0.00    +0.031 C 
ATOM      7  C   UNL     1      87.178  50.052  44.151  0.00  0.00    +0.063 C 
ENDROOT
BRANCH   7   8
ATOM      8  N   UNL     1      86.941  51.481  44.390  0.00  0.00    -0.305 N 
ATOM      9  C   UNL     1      87.098  52.099  45.677  0.00  0.00    +0.237 C 
ATOM     10  O   UNL     1      87.429  51.404  46.678  0.00  0.00    -0.271 OA
ATOM     11  H   UNL     1      86.660  52.043  43.632  0.00  0.00    +0.000 HD
BRANCH   9  12
ATOM     12  C   UNL     1      86.878  53.550  45.818  0.00  0.00    +0.001 C 
ATOM     13  C   UNL     1      85.981  54.214  45.075  0.00  0.00    -0.050 C 
BRANCH  13  14
ATOM     14  C   UNL     1      85.739  55.674  45.183  0.00  0.00    -0.025 A 
ATOM     15  C   UNL     1      86.273  56.603  44.266  0.00  0.00    -0.055 A 
ATOM     16  C   UNL     1      86.025  57.971  44.419  0.00  0.00    -0.061 A 
ATOM     17  C   UNL     1      85.252  58.428  45.487  0.00  0.00    -0.062 A 
ATOM     18  C   UNL     1      84.730  57.520  46.410  0.00  0.00    -0.061 A 
ATOM     19  C   UNL     1      84.976  56.152  46.264  0.00  0.00    -0.055 A 
ENDBRANCH  13  14
ENDBRANCH   9  12
ENDBRANCH   7   8
BRANCH   1  20
ATOM     20  O   UNL     1      86.733  50.249  41.760  0.00  0.00    -0.382 OA
ATOM     21  H   UNL     1      86.024  49.592  41.671  0.00  0.00    +0.000 HD
ENDBRANCH   1  20
BRANCH   1  22
ATOM     22  C   UNL     1      89.056  50.487  42.470  0.00  0.00    +0.079 C 
BRANCH  22  23
ATOM     23  C   UNL     1      89.083  51.338  41.233  0.00  0.00    +0.310 C 
ATOM     24  O   UNL     1      88.814  50.826  40.112  0.00  0.00    -0.251 OA
BRANCH  23  26
ATOM     25  C   UNL     1      90.358  53.327  40.503  0.00  0.00    +0.082 C 
ATOM     26  O   UNL     1      89.395  52.697  41.339  0.00  0.00    -0.468 OA
ENDBRANCH  23  26
ENDBRANCH  22  23
ENDBRANCH   1  22
TORSDOF 7
ENDMDL
MODEL 9
REMARK VINA RESULT:    -6.780      2.591      3.672
REMARK INTER + INTRA:         -10.245
REMARK INTER:                  -9.356
REMARK INTRA:                  -0.889
REMARK UNBOUND:                -0.889
REMARK  Name = 
REMARK  8 active torsions:
REMARK  status: ('A' for Active; 'I' for Inactive)
REMARK    1  A    between atoms: C_1  and  O_2
REMARK    2  A    between atoms: O_2  and  C_3
REMARK    3  A    between atoms: C_3  and  C_5
REMARK    4  A    between atoms: C_5  and  C_6
REMARK    5  A    between atoms: C_6  and  O_7
REMARK    6  A    between atoms: C_13  and  N_14
REMARK    7  A    between atoms: C_15  and  C_17
REMARK    8  A    between atoms: C_18  and  C_19
REMARK                            x       y       z     vdW  Elec       q    Type
REMARK                         _______ _______ _______ _____ _____    ______ ____
ROOT
ATOM      1  C   UNL     1      87.245  49.260  43.679  0.00  0.00    +0.113 C 
ATOM      2  C   UNL     1      87.203  47.746  43.534  0.00  0.00    -0.047 C 
ATOM      3  C   UNL     1      86.071  47.046  43.659  0.00  0.00    -0.020 C 
ATOM      4  C   UNL     1      84.811  47.696  44.048  0.00  0.00    +0.158 C 
ATOM      5  O   UNL     1      83.758  47.011  44.140  0.00  0.00    -0.293 OA
ATOM      6  C   UNL     1      84.763  49.176  44.290  0.00  0.00    +0.031 C 
ATOM      7  C   UNL     1      86.148  49.705  44.703  0.00  0.00    +0.063 C 
ENDROOT
BRANCH   7   8
ATOM      8  N   UNL     1      86.090  51.167  44.832  0.00  0.00    -0.305 N 
ATOM      9  C   UNL     1      86.532  51.870  46.003  0.00  0.00    +0.237 C 
ATOM     10  O   UNL     1      86.974  51.231  46.998  0.00  0.00    -0.271 OA
ATOM     11  H   UNL     1      85.728  51.689  44.080  0.00  0.00    +0.000 HD
BRANCH   9  12
ATOM     12  C   UNL     1      86.475  53.344  46.031  0.00  0.00    +0.001 C 
ATOM     13  C   UNL     1      85.601  54.040  45.289  0.00  0.00    -0.050 C 
BRANCH  13  14
ATOM     14  C   UNL     1      85.520  55.522  45.285  0.00  0.00    -0.025 A 
ATOM     15  C   UNL     1      86.169  56.315  44.316  0.00  0.00    -0.055 A 
ATOM     16  C   UNL     1      86.071  57.710  44.363  0.00  0.00    -0.061 A 
ATOM     17  C   UNL     1      85.336  58.328  45.375  0.00  0.00    -0.062 A 
ATOM     18  C   UNL     1      84.702  57.554  46.349  0.00  0.00    -0.061 A 
ATOM     19  C   UNL     1      84.797  56.160  46.308  0.00  0.00    -0.055 A 
ENDBRANCH  13  14
ENDBRANCH   9  12
ENDBRANCH   7   8
BRANCH   1  20
ATOM     20  O   UNL     1      86.975  49.813  42.411  0.00  0.00    -0.382 OA
ATOM     21  H   UNL     1      86.723  50.744  42.511  0.00  0.00    +0.000 HD
ENDBRANCH   1  20
BRANCH   1  22
ATOM     22  C   UNL     1      88.652  49.696  44.181  0.00  0.00    +0.079 C 
BRANCH  22  23
ATOM     23  C   UNL     1      89.770  49.003  43.458  0.00  0.00    +0.310 C 
ATOM     24  O   UNL     1      90.631  48.351  44.111  0.00  0.00    -0.251 OA
BRANCH  23  26
ATOM     25  C   UNL     1      90.169  47.955  41.253  0.00  0.00    +0.082 C 
ATOM     26  O   UNL     1      89.840  49.077  42.064  0.00  0.00    -0.468 OA
ENDBRANCH  23  26
ENDBRANCH  22  23
ENDBRANCH   1  22
TORSDOF 7
ENDMDL
