MODEL 1
REMARK VINA RESULT:    -8.292      0.000      0.000
REMARK INTER + INTRA:          -9.924
REMARK INTER:                  -9.535
REMARK INTRA:                  -0.388
REMARK UNBOUND:                -0.419
REMARK  Name = 
REMARK  3 active torsions:
REMARK  status: ('A' for Active; 'I' for Inactive)
REMARK    1  A    between atoms: C_5  and  O_22
REMARK    2  A    between atoms: C_9  and  C_11
REMARK    3  A    between atoms: C_12  and  C_13
REMARK                            x       y       z     vdW  Elec       q    Type
REMARK                         _______ _______ _______ _____ _____    ______ ____
ROOT
ATOM      1  O   UNL     1      86.558  57.769  43.970  0.00  0.00    -0.293 OA
ATOM      2  C   UNL     1      85.896  56.742  43.668  0.00  0.00    +0.158 C 
ATOM      3  C   UNL     1      84.480  56.888  43.211  0.00  0.00    -0.020 C 
ATOM      4  C   UNL     1      83.794  55.830  42.736  0.00  0.00    -0.047 C 
ATOM      5  C   UNL     1      84.538  54.544  42.512  0.00  0.00    +0.112 C 
ATOM      6  C   UNL     1      85.437  54.316  43.741  0.00  0.00    +0.074 C 
ATOM      7  C   UNL     1      86.550  55.371  43.774  0.00  0.00    +0.032 C 
ATOM      8  N   UNL     1      85.829  52.920  43.650  0.00  0.00    -0.232 N 
ATOM      9  C   UNL     1      86.728  52.264  44.557  0.00  0.00    +0.246 C 
ATOM     10  O   UNL     1      86.875  52.718  45.724  0.00  0.00    -0.270 OA
ATOM     11  C   UNL     1      84.719  52.277  43.013  0.00  0.00    +0.225 C 
ATOM     12  O   UNL     1      84.561  51.026  42.997  0.00  0.00    -0.275 OA
ATOM     13  C   UNL     1      83.727  53.242  42.443  0.00  0.00    +0.059 C 
ENDROOT
BRANCH   9  14
ATOM     14  C   UNL     1      87.495  51.069  44.161  0.00  0.00    +0.001 C 
ATOM     15  C   UNL     1      88.103  50.969  42.969  0.00  0.00    -0.050 C 
BRANCH  15  16
ATOM     16  C   UNL     1      88.882  49.785  42.534  0.00  0.00    -0.025 A 
ATOM     17  C   UNL     1      90.229  49.868  42.123  0.00  0.00    -0.055 A 
ATOM     18  C   UNL     1      90.915  48.721  41.711  0.00  0.00    -0.061 A 
ATOM     19  C   UNL     1      90.269  47.484  41.696  0.00  0.00    -0.062 A 
ATOM     20  C   UNL     1      88.932  47.391  42.087  0.00  0.00    -0.061 A 
ATOM     21  C   UNL     1      88.240  48.535  42.498  0.00  0.00    -0.055 A 
ENDBRANCH  15  16
ENDBRANCH   9  14
BRANCH   5  22
ATOM     22  O   UNL     1      85.294  54.694  41.326  0.00  0.00    -0.382 OA
ATOM     23  H   UNL     1      84.944  54.100  40.643  0.00  0.00    +0.000 HD
ENDBRANCH   5  22
TORSDOF 3
ENDMDL
MODEL 2
REMARK VINA RESULT:    -8.270      2.083      2.941
REMARK INTER + INTRA:          -9.898
REMARK INTER:                  -9.510
REMARK INTRA:                  -0.387
REMARK UNBOUND:                -0.419
REMARK  Name = 
REMARK  3 active torsions:
REMARK  status: ('A' for Active; 'I' for Inactive)
REMARK    1  A    between atoms: C_5  and  O_22
REMARK    2  A    between atoms: C_9  and  C_11
REMARK    3  A    between atoms: C_12  and  C_13
REMARK                            x       y       z     vdW  Elec       q    Type
REMARK                         _______ _______ _______ _____ _____    ______ ____
ROOT
ATOM      1  O   UNL     1      84.451  54.719  38.463  0.00  0.00    -0.293 OA
ATOM      2  C   UNL     1      84.484  54.396  39.679  0.00  0.00    +0.158 C 
ATOM      3  C   UNL     1      83.407  54.879  40.597  0.00  0.00    -0.020 C 
ATOM      4  C   UNL     1      83.327  54.431  41.865  0.00  0.00    -0.047 C 
ATOM      5  C   UNL     1      84.234  53.307  42.279  0.00  0.00    +0.112 C 
ATOM      6  C   UNL     1      85.635  53.621  41.722  0.00  0.00    +0.074 C 
ATOM      7  C   UNL     1      85.620  53.522  40.191  0.00  0.00    +0.032 C 
ATOM      8  N   UNL     1      86.523  52.731  42.451  0.00  0.00    -0.232 N 
ATOM      9  C   UNL     1      87.937  52.623  42.222  0.00  0.00    +0.246 C 
ATOM     10  O   UNL     1      88.560  53.591  41.709  0.00  0.00    -0.270 OA
ATOM     11  C   UNL     1      85.902  52.573  43.730  0.00  0.00    +0.225 C 
ATOM     12  O   UNL     1      86.496  52.093  44.733  0.00  0.00    -0.275 OA
ATOM     13  C   UNL     1      84.505  53.112  43.778  0.00  0.00    +0.059 C 
ENDROOT
BRANCH   9  14
ATOM     14  C   UNL     1      88.687  51.402  42.568  0.00  0.00    +0.001 C 
ATOM     15  C   UNL     1      88.570  50.265  41.867  0.00  0.00    -0.050 C 
BRANCH  15  16
ATOM     16  C   UNL     1      89.307  49.017  42.184  0.00  0.00    -0.025 A 
ATOM     17  C   UNL     1      88.896  47.751  41.716  0.00  0.00    -0.055 A 
ATOM     18  C   UNL     1      89.621  46.604  42.053  0.00  0.00    -0.061 A 
ATOM     19  C   UNL     1      90.755  46.701  42.863  0.00  0.00    -0.062 A 
ATOM     20  C   UNL     1      91.162  47.947  43.344  0.00  0.00    -0.061 A 
ATOM     21  C   UNL     1      90.440  49.098  43.012  0.00  0.00    -0.055 A 
ENDBRANCH  15  16
ENDBRANCH   9  14
BRANCH   5  22
ATOM     22  O   UNL     1      83.705  52.114  41.734  0.00  0.00    -0.382 OA
ATOM     23  H   UNL     1      83.708  51.420  42.413  0.00  0.00    +0.000 HD
ENDBRANCH   5  22
TORSDOF 3
ENDMDL
MODEL 3
REMARK VINA RESULT:    -8.195      3.833      5.124
REMARK INTER + INTRA:          -9.812
REMARK INTER:                  -9.511
REMARK INTRA:                  -0.301
REMARK UNBOUND:                -0.419
REMARK  Name = 
REMARK  3 active torsions:
REMARK  status: ('A' for Active; 'I' for Inactive)
REMARK    1  A    between atoms: C_5  and  O_22
REMARK    2  A    between atoms: C_9  and  C_11
REMARK    3  A    between atoms: C_12  and  C_13
REMARK                            x       y       z     vdW  Elec       q    Type
REMARK                         _______ _______ _______ _____ _____    ______ ____
ROOT
ATOM      1  O   UNL     1      85.208  58.089  42.873  0.00  0.00    -0.293 OA
ATOM      2  C   UNL     1      85.157  57.430  43.944  0.00  0.00    +0.158 C 
ATOM      3  C   UNL     1      85.500  58.101  45.237  0.00  0.00    -0.020 C 
ATOM      4  C   UNL     1      85.310  57.473  46.413  0.00  0.00    -0.047 C 
ATOM      5  C   UNL     1      84.586  56.157  46.407  0.00  0.00    +0.112 C 
ATOM      6  C   UNL     1      85.154  55.328  45.240  0.00  0.00    +0.074 C 
ATOM      7  C   UNL     1      84.750  55.964  43.904  0.00  0.00    +0.032 C 
ATOM      8  N   UNL     1      84.707  53.971  45.508  0.00  0.00    -0.232 N 
ATOM      9  C   UNL     1      84.949  52.848  44.646  0.00  0.00    +0.246 C 
ATOM     10  O   UNL     1      85.927  52.872  43.852  0.00  0.00    -0.270 OA
ATOM     11  C   UNL     1      84.644  53.889  46.935  0.00  0.00    +0.225 C 
ATOM     12  O   UNL     1      84.557  52.799  47.562  0.00  0.00    -0.275 OA
ATOM     13  C   UNL     1      84.777  55.220  47.608  0.00  0.00    +0.059 C 
ENDROOT
BRANCH   9  14
ATOM     14  C   UNL     1      84.076  51.660  44.658  0.00  0.00    +0.001 C 
ATOM     15  C   UNL     1      83.736  51.008  43.536  0.00  0.00    -0.050 C 
BRANCH  15  16
ATOM     16  C   UNL     1      82.861  49.810  43.507  0.00  0.00    -0.025 A 
ATOM     17  C   UNL     1      81.454  49.896  43.460  0.00  0.00    -0.055 A 
ATOM     18  C   UNL     1      80.675  48.735  43.445  0.00  0.00    -0.061 A 
ATOM     19  C   UNL     1      81.284  47.480  43.485  0.00  0.00    -0.062 A 
ATOM     20  C   UNL     1      82.675  47.382  43.547  0.00  0.00    -0.061 A 
ATOM     21  C   UNL     1      83.460  48.540  43.564  0.00  0.00    -0.055 A 
ENDBRANCH  15  16
ENDBRANCH   9  14
BRANCH   5  22
ATOM     22  O   UNL     1      83.209  56.433  46.236  0.00  0.00    -0.382 OA
ATOM     23  H   UNL     1      82.843  56.777  47.065  0.00  0.00    +0.000 HD
ENDBRANCH   5  22
TORSDOF 3
ENDMDL
MODEL 4
REMARK VINA RESULT:    -8.182      3.440      7.243
REMARK INTER + INTRA:          -9.797
REMARK INTER:                  -9.440
REMARK INTRA:                  -0.357
REMARK UNBOUND:                -0.419
REMARK  Name = 
REMARK  3 active torsions:
REMARK  status: ('A' for Active; 'I' for Inactive)
REMARK    1  A    between atoms: C_5  and  O_22
REMARK    2  A    between atoms: C_9  and  C_11
REMARK    3  A    between atoms: C_12  and  C_13
REMARK                            x       y       z     vdW  Elec       q    Type
REMARK                         _______ _______ _______ _____ _____    ______ ____
ROOT
ATOM      1  O   UNL     1      90.250  46.696  42.201  0.00  0.00    -0.293 OA
ATOM      2  C   UNL     1      89.850  47.888  42.238  0.00  0.00    +0.158 C 
ATOM      3  C   UNL     1      90.778  48.989  41.833  0.00  0.00    -0.020 C 
ATOM      4  C   UNL     1      90.338  50.257  41.716  0.00  0.00    -0.047 C 
ATOM      5  C   UNL     1      88.860  50.509  41.828  0.00  0.00    +0.112 C 
ATOM      6  C   UNL     1      88.346  49.683  43.022  0.00  0.00    +0.074 C 
ATOM      7  C   UNL     1      88.428  48.187  42.696  0.00  0.00    +0.032 C 
ATOM      8  N   UNL     1      87.036  50.243  43.312  0.00  0.00    -0.232 N 
ATOM      9  C   UNL     1      86.142  49.746  44.320  0.00  0.00    +0.246 C 
ATOM     10  O   UNL     1      86.605  49.103  45.300  0.00  0.00    -0.270 OA
ATOM     11  C   UNL     1      87.145  51.622  42.943  0.00  0.00    +0.225 C 
ATOM     12  O   UNL     1      86.309  52.499  43.292  0.00  0.00    -0.275 OA
ATOM     13  C   UNL     1      88.393  51.929  42.175  0.00  0.00    +0.059 C 
ENDROOT
BRANCH   9  14
ATOM     14  C   UNL     1      84.686  49.963  44.240  0.00  0.00    +0.001 C 
ATOM     15  C   UNL     1      83.873  49.134  43.571  0.00  0.00    -0.050 C 
BRANCH  15  16
ATOM     16  C   UNL     1      82.404  49.318  43.467  0.00  0.00    -0.025 A 
ATOM     17  C   UNL     1      81.481  48.379  43.971  0.00  0.00    -0.055 A 
ATOM     18  C   UNL     1      80.106  48.597  43.837  0.00  0.00    -0.061 A 
ATOM     19  C   UNL     1      79.636  49.744  43.195  0.00  0.00    -0.062 A 
ATOM     20  C   UNL     1      80.540  50.674  42.680  0.00  0.00    -0.061 A 
ATOM     21  C   UNL     1      81.916  50.461  42.809  0.00  0.00    -0.055 A 
ENDBRANCH  15  16
ENDBRANCH   9  14
BRANCH   5  22
ATOM     22  O   UNL     1      88.268  50.100  40.610  0.00  0.00    -0.382 OA
ATOM     23  H   UNL     1      87.467  50.623  40.449  0.00  0.00    +0.000 HD
ENDBRANCH   5  22
TORSDOF 3
ENDMDL
MODEL 5
REMARK VINA RESULT:    -7.983      1.932      3.259
REMARK INTER + INTRA:          -9.570
REMARK INTER:                  -9.160
REMARK INTRA:                  -0.409
REMARK UNBOUND:                -0.419
REMARK  Name = 
REMARK  3 active torsions:
REMARK  status: ('A' for Active; 'I' for Inactive)
REMARK    1  A    between atoms: C_5  and  O_22
REMARK    2  A    between atoms: C_9  and  C_11
REMARK    3  A    between atoms: C_12  and  C_13
REMARK                            x       y       z     vdW  Elec       q    Type
REMARK                         _______ _______ _______ _____ _____    ______ ____
ROOT
ATOM      1  O   UNL     1      83.348  53.771  48.059  0.00  0.00    -0.293 OA
ATOM      2  C   UNL     1      84.052  54.179  47.098  0.00  0.00    +0.158 C 
ATOM      3  C   UNL     1      84.334  55.641  46.963  0.00  0.00    -0.020 C 
ATOM      4  C   UNL     1      85.204  56.095  46.040  0.00  0.00    -0.047 C 
ATOM      5  C   UNL     1      86.012  55.088  45.270  0.00  0.00    +0.112 C 
ATOM      6  C   UNL     1      85.055  53.957  44.853  0.00  0.00    +0.074 C 
ATOM      7  C   UNL     1      84.599  53.176  46.092  0.00  0.00    +0.032 C 
ATOM      8  N   UNL     1      85.779  53.231  43.823  0.00  0.00    -0.232 N 
ATOM      9  C   UNL     1      85.301  52.044  43.173  0.00  0.00    +0.246 C 
ATOM     10  O   UNL     1      84.063  51.817  43.123  0.00  0.00    -0.270 OA
ATOM     11  C   UNL     1      86.590  54.225  43.186  0.00  0.00    +0.225 C 
ATOM     12  O   UNL     1      87.158  54.046  42.075  0.00  0.00    -0.275 OA
ATOM     13  C   UNL     1      86.623  55.524  43.931  0.00  0.00    +0.059 C 
ENDROOT
BRANCH   9  14
ATOM     14  C   UNL     1      86.224  51.070  42.560  0.00  0.00    +0.001 C 
ATOM     15  C   UNL     1      87.255  50.539  43.232  0.00  0.00    -0.050 C 
BRANCH  15  16
ATOM     16  C   UNL     1      88.205  49.558  42.651  0.00  0.00    -0.025 A 
ATOM     17  C   UNL     1      87.788  48.329  42.097  0.00  0.00    -0.055 A 
ATOM     18  C   UNL     1      88.726  47.436  41.572  0.00  0.00    -0.061 A 
ATOM     19  C   UNL     1      90.086  47.749  41.599  0.00  0.00    -0.062 A 
ATOM     20  C   UNL     1      90.513  48.955  42.157  0.00  0.00    -0.061 A 
ATOM     21  C   UNL     1      89.579  49.853  42.686  0.00  0.00    -0.055 A 
ENDBRANCH  15  16
ENDBRANCH   9  14
BRANCH   5  22
ATOM     22  O   UNL     1      87.036  54.623  46.129  0.00  0.00    -0.382 OA
ATOM     23  H   UNL     1      87.384  53.784  45.791  0.00  0.00    +0.000 HD
ENDBRANCH   5  22
TORSDOF 3
ENDMDL
MODEL 6
REMARK VINA RESULT:    -7.880      4.009      8.108
REMARK INTER + INTRA:          -9.452
REMARK INTER:                  -9.126
REMARK INTRA:                  -0.326
REMARK UNBOUND:                -0.419
REMARK  Name = 
REMARK  3 active torsions:
REMARK  status: ('A' for Active; 'I' for Inactive)
REMARK    1  A    between atoms: C_5  and  O_22
REMARK    2  A    between atoms: C_9  and  C_11
REMARK    3  A    between atoms: C_12  and  C_13
REMARK                            x       y       z     vdW  Elec       q    Type
REMARK                         _______ _______ _______ _____ _____    ______ ____
ROOT
ATOM      1  O   UNL     1      87.994  45.149  42.840  0.00  0.00    -0.293 OA
ATOM      2  C   UNL     1      86.801  45.549  42.874  0.00  0.00    +0.158 C 
ATOM      3  C   UNL     1      85.719  44.685  42.308  0.00  0.00    -0.020 C 
ATOM      4  C   UNL     1      84.422  45.011  42.463  0.00  0.00    -0.047 C 
ATOM      5  C   UNL     1      84.082  46.163  43.366  0.00  0.00    +0.112 C 
ATOM      6  C   UNL     1      85.069  47.301  43.045  0.00  0.00    +0.074 C 
ATOM      7  C   UNL     1      86.483  46.905  43.489  0.00  0.00    +0.032 C 
ATOM      8  N   UNL     1      84.473  48.479  43.652  0.00  0.00    -0.232 N 
ATOM      9  C   UNL     1      85.075  49.783  43.664  0.00  0.00    +0.246 C 
ATOM     10  O   UNL     1      85.920  50.087  42.779  0.00  0.00    -0.270 OA
ATOM     11  C   UNL     1      83.063  48.247  43.579  0.00  0.00    +0.225 C 
ATOM     12  O   UNL     1      82.202  49.151  43.756  0.00  0.00    -0.275 OA
ATOM     13  C   UNL     1      82.717  46.843  43.188  0.00  0.00    +0.059 C 
ENDROOT
BRANCH   9  14
ATOM     14  C   UNL     1      84.736  50.784  44.692  0.00  0.00    +0.001 C 
ATOM     15  C   UNL     1      85.669  51.377  45.451  0.00  0.00    -0.050 C 
BRANCH  15  16
ATOM     16  C   UNL     1      85.368  52.387  46.496  0.00  0.00    -0.025 A 
ATOM     17  C   UNL     1      85.895  52.312  47.802  0.00  0.00    -0.055 A 
ATOM     18  C   UNL     1      85.570  53.286  48.752  0.00  0.00    -0.061 A 
ATOM     19  C   UNL     1      84.715  54.337  48.416  0.00  0.00    -0.062 A 
ATOM     20  C   UNL     1      84.176  54.414  47.131  0.00  0.00    -0.061 A 
ATOM     21  C   UNL     1      84.495  53.442  46.177  0.00  0.00    -0.055 A 
ENDBRANCH  15  16
ENDBRANCH   9  14
BRANCH   5  22
ATOM     22  O   UNL     1      84.216  45.710  44.699  0.00  0.00    -0.382 OA
ATOM     23  H   UNL     1      85.046  45.216  44.791  0.00  0.00    +0.000 HD
ENDBRANCH   5  22
TORSDOF 3
ENDMDL
MODEL 7
REMARK VINA RESULT:    -7.635      3.265      4.559
REMARK INTER + INTRA:          -9.171
REMARK INTER:                  -8.751
REMARK INTRA:                  -0.419
REMARK UNBOUND:                -0.419
REMARK  Name = 
REMARK  3 active torsions:
REMARK  status: ('A' for Active; 'I' for Inactive)
REMARK    1  A    between atoms: C_5  and  O_22
REMARK    2  A    between atoms: C_9  and  C_11
REMARK    3  A    between atoms: C_12  and  C_13
REMARK                            x       y       z     vdW  Elec       q    Type
REMARK                         _______ _______ _______ _____ _____    ______ ____
ROOT
ATOM      1  O   UNL     1      85.555  56.343  44.848  0.00  0.00    -0.293 OA
ATOM      2  C   UNL     1      85.708  55.392  45.659  0.00  0.00    +0.158 C 
ATOM      3  C   UNL     1      85.752  55.676  47.126  0.00  0.00    -0.020 C 
ATOM      4  C   UNL     1      85.761  54.673  48.025  0.00  0.00    -0.047 C 
ATOM      5  C   UNL     1      85.548  53.271  47.527  0.00  0.00    +0.112 C 
ATOM      6  C   UNL     1      86.407  53.101  46.260  0.00  0.00    +0.074 C 
ATOM      7  C   UNL     1      85.846  53.971  45.129  0.00  0.00    +0.032 C 
ATOM      8  N   UNL     1      86.460  51.664  46.048  0.00  0.00    -0.232 N 
ATOM      9  C   UNL     1      87.108  51.027  44.936  0.00  0.00    +0.246 C 
ATOM     10  O   UNL     1      88.039  51.625  44.332  0.00  0.00    -0.270 OA
ATOM     11  C   UNL     1      86.387  51.104  47.364  0.00  0.00    +0.225 C 
ATOM     12  O   UNL     1      86.672  49.903  47.621  0.00  0.00    -0.275 OA
ATOM     13  C   UNL     1      86.021  52.109  48.412  0.00  0.00    +0.059 C 
ENDROOT
BRANCH   9  14
ATOM     14  C   UNL     1      86.711  49.685  44.472  0.00  0.00    +0.001 C 
ATOM     15  C   UNL     1      85.455  49.397  44.101  0.00  0.00    -0.050 C 
BRANCH  15  16
ATOM     16  C   UNL     1      85.017  48.060  43.630  0.00  0.00    -0.025 A 
ATOM     17  C   UNL     1      83.660  47.732  43.423  0.00  0.00    -0.055 A 
ATOM     18  C   UNL     1      83.301  46.453  42.988  0.00  0.00    -0.061 A 
ATOM     19  C   UNL     1      84.282  45.486  42.762  0.00  0.00    -0.062 A 
ATOM     20  C   UNL     1      85.627  45.795  42.976  0.00  0.00    -0.061 A 
ATOM     21  C   UNL     1      85.993  47.072  43.413  0.00  0.00    -0.055 A 
ENDBRANCH  15  16
ENDBRANCH   9  14
BRANCH   5  22
ATOM     22  O   UNL     1      84.168  53.125  47.251  0.00  0.00    -0.382 OA
ATOM     23  H   UNL     1      83.798  52.430  47.817  0.00  0.00    +0.000 HD
ENDBRANCH   5  22
TORSDOF 3
ENDMDL
MODEL 8
REMARK VINA RESULT:    -7.625      2.779      7.872
REMARK INTER + INTRA:          -9.159
REMARK INTER:                  -8.816
REMARK INTRA:                  -0.343
REMARK UNBOUND:                -0.419
REMARK  Name = 
REMARK  3 active torsions:
REMARK  status: ('A' for Active; 'I' for Inactive)
REMARK    1  A    between atoms: C_5  and  O_22
REMARK    2  A    between atoms: C_9  and  C_11
REMARK    3  A    between atoms: C_12  and  C_13
REMARK                            x       y       z     vdW  Elec       q    Type
REMARK                         _______ _______ _______ _____ _____    ______ ____
ROOT
ATOM      1  O   UNL     1      85.701  44.945  42.461  0.00  0.00    -0.293 OA
ATOM      2  C   UNL     1      86.500  45.916  42.510  0.00  0.00    +0.158 C 
ATOM      3  C   UNL     1      87.907  45.736  42.037  0.00  0.00    -0.020 C 
ATOM      4  C   UNL     1      88.742  46.787  41.934  0.00  0.00    -0.047 C 
ATOM      5  C   UNL     1      88.177  48.165  42.136  0.00  0.00    +0.112 C 
ATOM      6  C   UNL     1      87.255  48.105  43.368  0.00  0.00    +0.074 C 
ATOM      7  C   UNL     1      86.018  47.255  43.053  0.00  0.00    +0.032 C 
ATOM      8  N   UNL     1      87.047  49.496  43.733  0.00  0.00    -0.232 N 
ATOM      9  C   UNL     1      86.195  49.940  44.801  0.00  0.00    +0.246 C 
ATOM     10  O   UNL     1      85.937  49.160  45.756  0.00  0.00    -0.270 OA
ATOM     11  C   UNL     1      88.258  50.154  43.345  0.00  0.00    +0.225 C 
ATOM     12  O   UNL     1      88.572  51.311  43.736  0.00  0.00    -0.275 OA
ATOM     13  C   UNL     1      89.147  49.299  42.497  0.00  0.00    +0.059 C 
ENDROOT
BRANCH   9  14
ATOM     14  C   UNL     1      85.604  51.291  44.810  0.00  0.00    +0.001 C 
ATOM     15  C   UNL     1      85.738  52.126  45.850  0.00  0.00    -0.050 C 
BRANCH  15  16
ATOM     16  C   UNL     1      85.158  53.490  45.897  0.00  0.00    -0.025 A 
ATOM     17  C   UNL     1      85.199  54.374  44.798  0.00  0.00    -0.055 A 
ATOM     18  C   UNL     1      84.646  55.654  44.900  0.00  0.00    -0.061 A 
ATOM     19  C   UNL     1      84.056  56.072  46.094  0.00  0.00    -0.062 A 
ATOM     20  C   UNL     1      84.022  55.212  47.193  0.00  0.00    -0.061 A 
ATOM     21  C   UNL     1      84.575  53.931  47.099  0.00  0.00    -0.055 A 
ENDBRANCH  15  16
ENDBRANCH   9  14
BRANCH   5  22
ATOM     22  O   UNL     1      87.466  48.506  40.962  0.00  0.00    -0.382 OA
ATOM     23  H   UNL     1      86.903  49.277  41.138  0.00  0.00    +0.000 HD
ENDBRANCH   5  22
TORSDOF 3
ENDMDL
MODEL 9
REMARK VINA RESULT:    -7.525      1.821      3.010
REMARK INTER + INTRA:          -9.044
REMARK INTER:                  -8.672
REMARK INTRA:                  -0.373
REMARK UNBOUND:                -0.419
REMARK  Name = 
REMARK  3 active torsions:
REMARK  status: ('A' for Active; 'I' for Inactive)
REMARK    1  A    between atoms: C_5  and  O_22
REMARK    2  A    between atoms: C_9  and  C_11
REMARK    3  A    between atoms: C_12  and  C_13
REMARK                            x       y       z     vdW  Elec       q    Type
REMARK                         _______ _______ _______ _____ _____    ______ ____
ROOT
ATOM      1  O   UNL     1      84.838  55.446  41.022  0.00  0.00    -0.293 OA
ATOM      2  C   UNL     1      85.214  54.946  42.114  0.00  0.00    +0.158 C 
ATOM      3  C   UNL     1      84.970  55.693  43.387  0.00  0.00    -0.020 C 
ATOM      4  C   UNL     1      85.219  55.123  44.582  0.00  0.00    -0.047 C 
ATOM      5  C   UNL     1      85.580  53.664  44.612  0.00  0.00    +0.112 C 
ATOM      6  C   UNL     1      86.595  53.421  43.480  0.00  0.00    +0.074 C 
ATOM      7  C   UNL     1      85.909  53.591  42.119  0.00  0.00    +0.032 C 
ATOM      8  N   UNL     1      87.178  52.126  43.788  0.00  0.00    -0.232 N 
ATOM      9  C   UNL     1      88.143  51.450  42.968  0.00  0.00    +0.246 C 
ATOM     10  O   UNL     1      88.871  52.118  42.185  0.00  0.00    -0.270 OA
ATOM     11  C   UNL     1      87.142  52.047  45.217  0.00  0.00    +0.225 C 
ATOM     12  O   UNL     1      87.798  51.198  45.880  0.00  0.00    -0.275 OA
ATOM     13  C   UNL     1      86.316  53.126  45.846  0.00  0.00    +0.059 C 
ENDROOT
BRANCH   9  14
ATOM     14  C   UNL     1      88.307  49.985  43.010  0.00  0.00    +0.001 C 
ATOM     15  C   UNL     1      87.438  49.149  42.424  0.00  0.00    -0.050 C 
BRANCH  15  16
ATOM     16  C   UNL     1      87.568  47.671  42.445  0.00  0.00    -0.025 A 
ATOM     17  C   UNL     1      88.775  47.008  42.142  0.00  0.00    -0.055 A 
ATOM     18  C   UNL     1      88.840  45.612  42.167  0.00  0.00    -0.061 A 
ATOM     19  C   UNL     1      87.707  44.861  42.484  0.00  0.00    -0.062 A 
ATOM     20  C   UNL     1      86.502  45.506  42.771  0.00  0.00    -0.061 A 
ATOM     21  C   UNL     1      86.430  46.902  42.747  0.00  0.00    -0.055 A 
ENDBRANCH  15  16
ENDBRANCH   9  14
BRANCH   5  22
ATOM     22  O   UNL     1      84.386  52.930  44.415  0.00  0.00    -0.382 OA
ATOM     23  H   UNL     1      83.657  53.543  44.230  0.00  0.00    +0.000 HD
ENDBRANCH   5  22
TORSDOF 3
ENDMDL
