MODEL 1
REMARK VINA RESULT:    -7.987      0.000      0.000
REMARK INTER + INTRA:         -12.590
REMARK INTER:                 -11.191
REMARK INTRA:                  -1.399
REMARK UNBOUND:                -1.100
REMARK  Name = 
REMARK  10 active torsions:
REMARK  status: ('A' for Active; 'I' for Inactive)
REMARK    1  A    between atoms: C_1  and  O_2
REMARK    2  A    between atoms: O_2  and  C_3
REMARK    3  A    between atoms: C_8  and  N_16
REMARK    4  A    between atoms: C_9  and  O_10
REMARK    5  A    between atoms: C_9  and  C_11
REMARK    6  A    between atoms: C_11  and  C_12
REMARK    7  A    between atoms: C_12  and  O_14
REMARK    8  A    between atoms: O_14  and  C_15
REMARK    9  A    between atoms: C_17  and  C_19
REMARK   10  A    between atoms: C_20  and  C_21
REMARK                            x       y       z     vdW  Elec       q    Type
REMARK                         _______ _______ _______ _____ _____    ______ ____
ROOT
ATOM      1  C   UNL     1      86.346  54.994  44.915  0.00  0.00    +0.096 C 
ATOM      2  C   UNL     1      86.320  56.525  44.714  0.00  0.00    +0.035 C 
ATOM      3  C   UNL     1      85.396  56.933  43.601  0.00  0.00    +0.138 C 
ATOM      4  O   UNL     1      85.381  58.096  43.227  0.00  0.00    -0.297 OA
ATOM      5  C   UNL     1      84.445  55.941  42.995  0.00  0.00    +0.027 C 
ATOM      6  C   UNL     1      85.105  54.569  42.693  0.00  0.00    +0.062 C 
ATOM      7  C   UNL     1      86.410  54.269  43.537  0.00  0.00    +0.121 C 
ENDROOT
BRANCH   6   8
ATOM      8  N   UNL     1      84.091  53.517  42.868  0.00  0.00    -0.306 N 
ATOM      9  C   UNL     1      83.453  52.844  41.771  0.00  0.00    +0.237 C 
ATOM     10  O   UNL     1      83.714  53.176  40.583  0.00  0.00    -0.271 OA
ATOM     11  H   UNL     1      83.835  53.262  43.784  0.00  0.00    +0.000 HD
BRANCH   9  12
ATOM     12  C   UNL     1      82.496  51.755  42.046  0.00  0.00    +0.001 C 
ATOM     13  C   UNL     1      82.805  50.711  42.830  0.00  0.00    -0.050 C 
BRANCH  13  14
ATOM     14  C   UNL     1      81.872  49.595  43.122  0.00  0.00    -0.025 A 
ATOM     15  C   UNL     1      82.400  48.302  43.285  0.00  0.00    -0.055 A 
ATOM     16  C   UNL     1      81.559  47.222  43.572  0.00  0.00    -0.061 A 
ATOM     17  C   UNL     1      80.184  47.422  43.709  0.00  0.00    -0.062 A 
ATOM     18  C   UNL     1      79.648  48.704  43.567  0.00  0.00    -0.061 A 
ATOM     19  C   UNL     1      80.484  49.788  43.280  0.00  0.00    -0.055 A 
ENDBRANCH  13  14
ENDBRANCH   9  12
ENDBRANCH   6   8
BRANCH   1  21
ATOM     20  C   UNL     1      85.112  55.207  46.883  0.00  0.00    +0.037 C 
ATOM     21  O   UNL     1      85.183  54.582  45.620  0.00  0.00    -0.376 OA
ENDBRANCH   1  21
BRANCH   7  22
ATOM     22  O   UNL     1      87.524  54.785  42.839  0.00  0.00    -0.384 OA
ATOM     23  H   UNL     1      87.427  54.600  41.891  0.00  0.00    +0.000 HD
ENDBRANCH   7  22
BRANCH   7  24
ATOM     24  C   UNL     1      86.618  52.735  43.748  0.00  0.00    +0.078 C 
BRANCH  24  25
ATOM     25  C   UNL     1      87.257  52.061  42.568  0.00  0.00    +0.310 C 
ATOM     26  O   UNL     1      86.535  51.499  41.700  0.00  0.00    -0.251 OA
BRANCH  25  27
ATOM     27  O   UNL     1      88.650  52.048  42.453  0.00  0.00    -0.468 OA
ATOM     28  C   UNL     1      89.318  52.260  41.216  0.00  0.00    +0.082 C 
ENDBRANCH  25  27
ENDBRANCH  24  25
ENDBRANCH   7  24
TORSDOF 8
ENDMDL
MODEL 2
REMARK VINA RESULT:    -7.743      1.510      2.080
REMARK INTER + INTRA:         -12.238
REMARK INTER:                 -11.118
REMARK INTRA:                  -1.120
REMARK UNBOUND:                -1.100
REMARK  Name = 
REMARK  10 active torsions:
REMARK  status: ('A' for Active; 'I' for Inactive)
REMARK    1  A    between atoms: C_1  and  O_2
REMARK    2  A    between atoms: O_2  and  C_3
REMARK    3  A    between atoms: C_8  and  N_16
REMARK    4  A    between atoms: C_9  and  O_10
REMARK    5  A    between atoms: C_9  and  C_11
REMARK    6  A    between atoms: C_11  and  C_12
REMARK    7  A    between atoms: C_12  and  O_14
REMARK    8  A    between atoms: O_14  and  C_15
REMARK    9  A    between atoms: C_17  and  C_19
REMARK   10  A    between atoms: C_20  and  C_21
REMARK                            x       y       z     vdW  Elec       q    Type
REMARK                         _______ _______ _______ _____ _____    ______ ____
ROOT
ATOM      1  C   UNL     1      86.634  53.393  43.429  0.00  0.00    +0.096 C 
ATOM      2  C   UNL     1      86.582  54.936  43.446  0.00  0.00    +0.035 C 
ATOM      3  C   UNL     1      85.277  55.464  42.917  0.00  0.00    +0.138 C 
ATOM      4  O   UNL     1      85.144  56.663  42.732  0.00  0.00    -0.297 OA
ATOM      5  C   UNL     1      84.118  54.538  42.682  0.00  0.00    +0.027 C 
ATOM      6  C   UNL     1      84.521  53.227  41.956  0.00  0.00    +0.062 C 
ATOM      7  C   UNL     1      86.052  52.848  42.089  0.00  0.00    +0.121 C 
ENDROOT
BRANCH   6   8
ATOM      8  N   UNL     1      83.648  52.144  42.435  0.00  0.00    -0.306 N 
ATOM      9  C   UNL     1      82.277  51.996  42.033  0.00  0.00    +0.237 C 
ATOM     10  O   UNL     1      81.744  52.847  41.268  0.00  0.00    -0.271 OA
ATOM     11  H   UNL     1      84.022  51.486  43.065  0.00  0.00    +0.000 HD
BRANCH   9  12
ATOM     12  C   UNL     1      81.500  50.838  42.515  0.00  0.00    +0.001 C 
ATOM     13  C   UNL     1      82.086  49.752  43.039  0.00  0.00    -0.050 C 
BRANCH  13  14
ATOM     14  C   UNL     1      81.337  48.566  43.526  0.00  0.00    -0.025 A 
ATOM     15  C   UNL     1      79.944  48.670  43.687  0.00  0.00    -0.055 A 
ATOM     16  C   UNL     1      79.197  47.575  44.133  0.00  0.00    -0.061 A 
ATOM     17  C   UNL     1      79.830  46.363  44.415  0.00  0.00    -0.062 A 
ATOM     18  C   UNL     1      81.210  46.240  44.244  0.00  0.00    -0.061 A 
ATOM     19  C   UNL     1      81.963  47.332  43.797  0.00  0.00    -0.055 A 
ENDBRANCH  13  14
ENDBRANCH   9  12
ENDBRANCH   6   8
BRANCH   1  21
ATOM     20  C   UNL     1      86.480  53.232  45.750  0.00  0.00    +0.037 C 
ATOM     21  O   UNL     1      85.888  52.874  44.521  0.00  0.00    -0.376 OA
ENDBRANCH   1  21
BRANCH   7  22
ATOM     22  O   UNL     1      86.761  53.467  41.036  0.00  0.00    -0.384 OA
ATOM     23  H   UNL     1      87.520  53.951  41.397  0.00  0.00    +0.000 HD
ENDBRANCH   7  22
BRANCH   7  24
ATOM     24  C   UNL     1      86.271  51.303  41.999  0.00  0.00    +0.078 C 
BRANCH  24  25
ATOM     25  C   UNL     1      87.636  50.932  41.496  0.00  0.00    +0.310 C 
ATOM     26  O   UNL     1      87.940  51.146  40.291  0.00  0.00    -0.251 OA
BRANCH  25  27
ATOM     27  O   UNL     1      88.551  50.333  42.366  0.00  0.00    -0.468 OA
ATOM     28  C   UNL     1      88.299  50.184  43.757  0.00  0.00    +0.082 C 
ENDBRANCH  25  27
ENDBRANCH  24  25
ENDBRANCH   7  24
TORSDOF 8
ENDMDL
MODEL 3
REMARK VINA RESULT:    -7.642      2.788      6.249
REMARK INTER + INTRA:         -12.093
REMARK INTER:                 -10.823
REMARK INTRA:                  -1.269
REMARK UNBOUND:                -1.100
REMARK  Name = 
REMARK  10 active torsions:
REMARK  status: ('A' for Active; 'I' for Inactive)
REMARK    1  A    between atoms: C_1  and  O_2
REMARK    2  A    between atoms: O_2  and  C_3
REMARK    3  A    between atoms: C_8  and  N_16
REMARK    4  A    between atoms: C_9  and  O_10
REMARK    5  A    between atoms: C_9  and  C_11
REMARK    6  A    between atoms: C_11  and  C_12
REMARK    7  A    between atoms: C_12  and  O_14
REMARK    8  A    between atoms: O_14  and  C_15
REMARK    9  A    between atoms: C_17  and  C_19
REMARK   10  A    between atoms: C_20  and  C_21
REMARK                            x       y       z     vdW  Elec       q    Type
REMARK                         _______ _______ _______ _____ _____    ______ ____
ROOT
ATOM      1  C   UNL     1      83.222  53.600  42.125  0.00  0.00    +0.096 C 
ATOM      2  C   UNL     1      82.854  54.323  40.811  0.00  0.00    +0.035 C 
ATOM      3  C   UNL     1      84.052  54.532  39.927  0.00  0.00    +0.138 C 
ATOM      4  O   UNL     1      83.946  55.219  38.923  0.00  0.00    -0.297 OA
ATOM      5  C   UNL     1      85.355  53.850  40.232  0.00  0.00    +0.027 C 
ATOM      6  C   UNL     1      85.751  53.930  41.730  0.00  0.00    +0.062 C 
ATOM      7  C   UNL     1      84.539  54.189  42.715  0.00  0.00    +0.121 C 
ENDROOT
BRANCH   6   8
ATOM      8  N   UNL     1      86.486  52.705  42.082  0.00  0.00    -0.306 N 
ATOM      9  C   UNL     1      87.920  52.620  42.093  0.00  0.00    +0.237 C 
ATOM     10  O   UNL     1      88.619  53.610  41.743  0.00  0.00    -0.271 OA
ATOM     11  H   UNL     1      85.970  51.902  42.322  0.00  0.00    +0.000 HD
BRANCH   9  12
ATOM     12  C   UNL     1      88.569  51.368  42.526  0.00  0.00    +0.001 C 
ATOM     13  C   UNL     1      88.914  50.404  41.659  0.00  0.00    -0.050 C 
BRANCH  13  14
ATOM     14  C   UNL     1      89.561  49.130  42.058  0.00  0.00    -0.025 A 
ATOM     15  C   UNL     1      90.619  49.173  42.984  0.00  0.00    -0.055 A 
ATOM     16  C   UNL     1      91.250  47.996  43.397  0.00  0.00    -0.061 A 
ATOM     17  C   UNL     1      90.827  46.762  42.898  0.00  0.00    -0.062 A 
ATOM     18  C   UNL     1      89.767  46.702  41.991  0.00  0.00    -0.061 A 
ATOM     19  C   UNL     1      89.132  47.876  41.574  0.00  0.00    -0.055 A 
ENDBRANCH  13  14
ENDBRANCH   9  12
ENDBRANCH   6   8
BRANCH   1  21
ATOM     20  C   UNL     1      82.139  51.586  41.666  0.00  0.00    +0.037 C 
ATOM     21  O   UNL     1      83.386  52.210  41.880  0.00  0.00    -0.376 OA
ENDBRANCH   1  21
BRANCH   7  22
ATOM     22  O   UNL     1      84.358  55.583  42.847  0.00  0.00    -0.384 OA
ATOM     23  H   UNL     1      84.717  56.032  42.065  0.00  0.00    +0.000 HD
ENDBRANCH   7  22
BRANCH   7  24
ATOM     24  C   UNL     1      84.810  53.583  44.130  0.00  0.00    +0.078 C 
BRANCH  24  25
ATOM     25  C   UNL     1      85.271  54.606  45.128  0.00  0.00    +0.310 C 
ATOM     26  O   UNL     1      86.479  54.966  45.145  0.00  0.00    -0.251 OA
BRANCH  25  27
ATOM     27  O   UNL     1      84.357  55.135  46.043  0.00  0.00    -0.468 OA
ATOM     28  C   UNL     1      84.424  56.480  46.501  0.00  0.00    +0.082 C 
ENDBRANCH  25  27
ENDBRANCH  24  25
ENDBRANCH   7  24
TORSDOF 8
ENDMDL
MODEL 4
REMARK VINA RESULT:    -7.360      2.735      5.617
REMARK INTER + INTRA:         -11.687
REMARK INTER:                 -10.496
REMARK INTRA:                  -1.191
REMARK UNBOUND:                -1.100
REMARK  Name = 
REMARK  10 active torsions:
REMARK  status: ('A' for Active; 'I' for Inactive)
REMARK    1  A    between atoms: C_1  and  O_2
REMARK    2  A    between atoms: O_2  and  C_3
REMARK    3  A    between atoms: C_8  and  N_16
REMARK    4  A    between atoms: C_9  and  O_10
REMARK    5  A    between atoms: C_9  and  C_11
REMARK    6  A    between atoms: C_11  and  C_12
REMARK    7  A    between atoms: C_12  and  O_14
REMARK    8  A    between atoms: O_14  and  C_15
REMARK    9  A    between atoms: C_17  and  C_19
REMARK   10  A    between atoms: C_20  and  C_21
REMARK                            x       y       z     vdW  Elec       q    Type
REMARK                         _______ _______ _______ _____ _____    ______ ____
ROOT
ATOM      1  C   UNL     1      89.185  49.170  41.114  0.00  0.00    +0.096 C 
ATOM      2  C   UNL     1      90.484  48.741  41.829  0.00  0.00    +0.035 C 
ATOM      3  C   UNL     1      90.397  48.927  43.319  0.00  0.00    +0.138 C 
ATOM      4  O   UNL     1      91.396  48.770  44.004  0.00  0.00    -0.297 OA
ATOM      5  C   UNL     1      89.081  49.234  43.974  0.00  0.00    +0.027 C 
ATOM      6  C   UNL     1      88.269  50.328  43.231  0.00  0.00    +0.062 C 
ATOM      7  C   UNL     1      88.659  50.512  41.708  0.00  0.00    +0.121 C 
ENDROOT
BRANCH   6   8
ATOM      8  N   UNL     1      86.836  50.033  43.394  0.00  0.00    -0.306 N 
ATOM      9  C   UNL     1      85.958  50.816  44.218  0.00  0.00    +0.237 C 
ATOM     10  O   UNL     1      86.410  51.783  44.891  0.00  0.00    -0.271 OA
ATOM     11  H   UNL     1      86.460  49.261  42.914  0.00  0.00    +0.000 HD
BRANCH   9  12
ATOM     12  C   UNL     1      84.521  50.483  44.266  0.00  0.00    +0.001 C 
ATOM     13  C   UNL     1      83.976  49.548  43.475  0.00  0.00    -0.050 C 
BRANCH  13  14
ATOM     14  C   UNL     1      82.535  49.193  43.491  0.00  0.00    -0.025 A 
ATOM     15  C   UNL     1      81.597  50.171  43.114  0.00  0.00    -0.055 A 
ATOM     16  C   UNL     1      80.230  49.877  43.103  0.00  0.00    -0.061 A 
ATOM     17  C   UNL     1      79.785  48.603  43.459  0.00  0.00    -0.062 A 
ATOM     18  C   UNL     1      80.705  47.617  43.820  0.00  0.00    -0.061 A 
ATOM     19  C   UNL     1      82.074  47.904  43.832  0.00  0.00    -0.055 A 
ENDBRANCH  13  14
ENDBRANCH   9  12
ENDBRANCH   6   8
BRANCH   1  21
ATOM     20  C   UNL     1      88.791  46.882  41.332  0.00  0.00    +0.037 C 
ATOM     21  O   UNL     1      88.197  48.160  41.264  0.00  0.00    -0.376 OA
ENDBRANCH   1  21
BRANCH   7  22
ATOM     22  O   UNL     1      89.709  51.453  41.624  0.00  0.00    -0.384 OA
ATOM     23  H   UNL     1      89.978  51.556  40.698  0.00  0.00    +0.000 HD
ENDBRANCH   7  22
BRANCH   7  24
ATOM     24  C   UNL     1      87.451  51.034  40.865  0.00  0.00    +0.078 C 
BRANCH  24  25
ATOM     25  C   UNL     1      87.527  52.506  40.578  0.00  0.00    +0.310 C 
ATOM     26  O   UNL     1      87.854  52.904  39.427  0.00  0.00    -0.251 OA
BRANCH  25  27
ATOM     27  O   UNL     1      87.253  53.421  41.597  0.00  0.00    -0.468 OA
ATOM     28  C   UNL     1      85.928  53.738  42.006  0.00  0.00    +0.082 C 
ENDBRANCH  25  27
ENDBRANCH  24  25
ENDBRANCH   7  24
TORSDOF 8
ENDMDL
MODEL 5
REMARK VINA RESULT:    -7.104      2.984      5.218
REMARK INTER + INTRA:         -11.319
REMARK INTER:                  -9.990
REMARK INTRA:                  -1.329
REMARK UNBOUND:                -1.100
REMARK  Name = 
REMARK  10 active torsions:
REMARK  status: ('A' for Active; 'I' for Inactive)
REMARK    1  A    between atoms: C_1  and  O_2
REMARK    2  A    between atoms: O_2  and  C_3
REMARK    3  A    between atoms: C_8  and  N_16
REMARK    4  A    between atoms: C_9  and  O_10
REMARK    5  A    between atoms: C_9  and  C_11
REMARK    6  A    between atoms: C_11  and  C_12
REMARK    7  A    between atoms: C_12  and  O_14
REMARK    8  A    between atoms: O_14  and  C_15
REMARK    9  A    between atoms: C_17  and  C_19
REMARK   10  A    between atoms: C_20  and  C_21
REMARK                            x       y       z     vdW  Elec       q    Type
REMARK                         _______ _______ _______ _____ _____    ______ ____
ROOT
ATOM      1  C   UNL     1      87.803  51.386  43.358  0.00  0.00    +0.096 C 
ATOM      2  C   UNL     1      88.865  51.522  42.246  0.00  0.00    +0.035 C 
ATOM      3  C   UNL     1      88.933  50.297  41.376  0.00  0.00    +0.138 C 
ATOM      4  O   UNL     1      89.825  50.196  40.548  0.00  0.00    -0.297 OA
ATOM      5  C   UNL     1      87.877  49.233  41.472  0.00  0.00    +0.027 C 
ATOM      6  C   UNL     1      87.521  48.855  42.934  0.00  0.00    +0.062 C 
ATOM      7  C   UNL     1      87.874  49.969  44.003  0.00  0.00    +0.121 C 
ENDROOT
BRANCH   6   8
ATOM      8  N   UNL     1      86.098  48.485  42.984  0.00  0.00    -0.306 N 
ATOM      9  C   UNL     1      85.638  47.129  43.095  0.00  0.00    +0.237 C 
ATOM     10  O   UNL     1      86.464  46.176  43.104  0.00  0.00    -0.271 OA
ATOM     11  H   UNL     1      85.426  49.203  42.939  0.00  0.00    +0.000 HD
BRANCH   9  12
ATOM     12  C   UNL     1      84.191  46.861  43.206  0.00  0.00    +0.001 C 
ATOM     13  C   UNL     1      83.317  47.800  43.596  0.00  0.00    -0.050 C 
BRANCH  13  14
ATOM     14  C   UNL     1      81.857  47.564  43.727  0.00  0.00    -0.025 A 
ATOM     15  C   UNL     1      81.408  46.257  43.988  0.00  0.00    -0.055 A 
ATOM     16  C   UNL     1      80.042  45.990  44.129  0.00  0.00    -0.061 A 
ATOM     17  C   UNL     1      79.112  47.026  44.021  0.00  0.00    -0.062 A 
ATOM     18  C   UNL     1      79.544  48.331  43.778  0.00  0.00    -0.061 A 
ATOM     19  C   UNL     1      80.909  48.604  43.636  0.00  0.00    -0.055 A 
ENDBRANCH  13  14
ENDBRANCH   9  12
ENDBRANCH   6   8
BRANCH   1  21
ATOM     20  C   UNL     1      86.278  52.973  42.586  0.00  0.00    +0.037 C 
ATOM     21  O   UNL     1      86.507  51.600  42.814  0.00  0.00    -0.376 OA
ENDBRANCH   1  21
BRANCH   7  22
ATOM     22  O   UNL     1      89.203  49.767  44.438  0.00  0.00    -0.384 OA
ATOM     23  H   UNL     1      89.512  50.556  44.911  0.00  0.00    +0.000 HD
ENDBRANCH   7  22
BRANCH   7  24
ATOM     24  C   UNL     1      86.925  49.896  45.243  0.00  0.00    +0.078 C 
BRANCH  24  25
ATOM     25  C   UNL     1      87.420  50.702  46.409  0.00  0.00    +0.310 C 
ATOM     26  O   UNL     1      88.240  50.194  47.220  0.00  0.00    -0.251 OA
BRANCH  25  27
ATOM     27  O   UNL     1      86.949  52.005  46.594  0.00  0.00    -0.468 OA
ATOM     28  C   UNL     1      85.584  52.360  46.406  0.00  0.00    +0.082 C 
ENDBRANCH  25  27
ENDBRANCH  24  25
ENDBRANCH   7  24
TORSDOF 8
ENDMDL
MODEL 6
REMARK VINA RESULT:    -7.074      3.738      7.106
REMARK INTER + INTRA:         -11.276
REMARK INTER:                 -11.105
REMARK INTRA:                  -0.171
REMARK UNBOUND:                -1.100
REMARK  Name = 
REMARK  10 active torsions:
REMARK  status: ('A' for Active; 'I' for Inactive)
REMARK    1  A    between atoms: C_1  and  O_2
REMARK    2  A    between atoms: O_2  and  C_3
REMARK    3  A    between atoms: C_8  and  N_16
REMARK    4  A    between atoms: C_9  and  O_10
REMARK    5  A    between atoms: C_9  and  C_11
REMARK    6  A    between atoms: C_11  and  C_12
REMARK    7  A    between atoms: C_12  and  O_14
REMARK    8  A    between atoms: O_14  and  C_15
REMARK    9  A    between atoms: C_17  and  C_19
REMARK   10  A    between atoms: C_20  and  C_21
REMARK                            x       y       z     vdW  Elec       q    Type
REMARK                         _______ _______ _______ _____ _____    ______ ____
ROOT
ATOM      1  C   UNL     1      87.468  48.768  41.630  0.00  0.00    +0.096 C 
ATOM      2  C   UNL     1      88.682  47.814  41.654  0.00  0.00    +0.035 C 
ATOM      3  C   UNL     1      89.750  48.282  42.605  0.00  0.00    +0.138 C 
ATOM      4  O   UNL     1      90.830  47.712  42.624  0.00  0.00    -0.297 OA
ATOM      5  C   UNL     1      89.474  49.395  43.575  0.00  0.00    +0.027 C 
ATOM      6  C   UNL     1      88.740  50.600  42.929  0.00  0.00    +0.062 C 
ATOM      7  C   UNL     1      87.947  50.251  41.604  0.00  0.00    +0.121 C 
ENDROOT
BRANCH   6   8
ATOM      8  N   UNL     1      87.864  51.208  43.943  0.00  0.00    -0.306 N 
ATOM      9  C   UNL     1      87.812  50.767  45.309  0.00  0.00    +0.237 C 
ATOM     10  O   UNL     1      88.502  49.780  45.685  0.00  0.00    -0.271 OA
ATOM     11  H   UNL     1      87.283  51.955  43.672  0.00  0.00    +0.000 HD
BRANCH   9  12
ATOM     12  C   UNL     1      86.951  51.482  46.270  0.00  0.00    +0.001 C 
ATOM     13  C   UNL     1      86.627  52.774  46.117  0.00  0.00    -0.050 C 
BRANCH  13  14
ATOM     14  C   UNL     1      85.771  53.527  47.067  0.00  0.00    -0.025 A 
ATOM     15  C   UNL     1      85.381  54.836  46.729  0.00  0.00    -0.055 A 
ATOM     16  C   UNL     1      84.566  55.579  47.589  0.00  0.00    -0.061 A 
ATOM     17  C   UNL     1      84.124  55.021  48.790  0.00  0.00    -0.062 A 
ATOM     18  C   UNL     1      84.489  53.717  49.131  0.00  0.00    -0.061 A 
ATOM     19  C   UNL     1      85.304  52.969  48.275  0.00  0.00    -0.055 A 
ENDBRANCH  13  14
ENDBRANCH   9  12
ENDBRANCH   6   8
BRANCH   1  21
ATOM     20  C   UNL     1      86.259  47.195  42.857  0.00  0.00    +0.037 C 
ATOM     21  O   UNL     1      86.659  48.546  42.777  0.00  0.00    -0.376 OA
ENDBRANCH   1  21
BRANCH   7  22
ATOM     22  O   UNL     1      88.823  50.394  40.506  0.00  0.00    -0.384 OA
ATOM     23  H   UNL     1      89.721  50.569  40.828  0.00  0.00    +0.000 HD
ENDBRANCH   7  22
BRANCH   7  24
ATOM     24  C   UNL     1      86.726  51.205  41.398  0.00  0.00    +0.078 C 
BRANCH  24  25
ATOM     25  C   UNL     1      87.128  52.600  41.015  0.00  0.00    +0.310 C 
ATOM     26  O   UNL     1      87.440  52.858  39.821  0.00  0.00    -0.251 OA
BRANCH  25  27
ATOM     27  O   UNL     1      87.171  53.597  41.994  0.00  0.00    -0.468 OA
ATOM     28  C   UNL     1      86.002  54.085  42.640  0.00  0.00    +0.082 C 
ENDBRANCH  25  27
ENDBRANCH  24  25
ENDBRANCH   7  24
TORSDOF 8
ENDMDL
MODEL 7
REMARK VINA RESULT:    -7.029      3.401      5.452
REMARK INTER + INTRA:         -11.212
REMARK INTER:                  -9.958
REMARK INTRA:                  -1.254
REMARK UNBOUND:                -1.100
REMARK  Name = 
REMARK  10 active torsions:
REMARK  status: ('A' for Active; 'I' for Inactive)
REMARK    1  A    between atoms: C_1  and  O_2
REMARK    2  A    between atoms: O_2  and  C_3
REMARK    3  A    between atoms: C_8  and  N_16
REMARK    4  A    between atoms: C_9  and  O_10
REMARK    5  A    between atoms: C_9  and  C_11
REMARK    6  A    between atoms: C_11  and  C_12
REMARK    7  A    between atoms: C_12  and  O_14
REMARK    8  A    between atoms: O_14  and  C_15
REMARK    9  A    between atoms: C_17  and  C_19
REMARK   10  A    between atoms: C_20  and  C_21
REMARK                            x       y       z     vdW  Elec       q    Type
REMARK                         _______ _______ _______ _____ _____    ______ ____
ROOT
ATOM      1  C   UNL     1      83.468  52.765  42.545  0.00  0.00    +0.096 C 
ATOM      2  C   UNL     1      83.608  53.744  41.359  0.00  0.00    +0.035 C 
ATOM      3  C   UNL     1      84.946  53.623  40.682  0.00  0.00    +0.138 C 
ATOM      4  O   UNL     1      85.260  54.431  39.822  0.00  0.00    -0.297 OA
ATOM      5  C   UNL     1      85.864  52.479  41.005  0.00  0.00    +0.027 C 
ATOM      6  C   UNL     1      85.987  52.205  42.528  0.00  0.00    +0.062 C 
ATOM      7  C   UNL     1      84.777  52.749  43.391  0.00  0.00    +0.121 C 
ENDROOT
BRANCH   6   8
ATOM      8  N   UNL     1      86.190  50.761  42.725  0.00  0.00    -0.306 N 
ATOM      9  C   UNL     1      87.469  50.175  43.012  0.00  0.00    +0.237 C 
ATOM     10  O   UNL     1      88.504  50.896  43.058  0.00  0.00    -0.271 OA
ATOM     11  H   UNL     1      85.409  50.166  42.656  0.00  0.00    +0.000 HD
BRANCH   9  12
ATOM     12  C   UNL     1      87.563  48.724  43.261  0.00  0.00    +0.001 C 
ATOM     13  C   UNL     1      86.746  47.842  42.668  0.00  0.00    -0.050 C 
BRANCH  13  14
ATOM     14  C   UNL     1      86.806  46.377  42.900  0.00  0.00    -0.025 A 
ATOM     15  C   UNL     1      87.835  45.641  42.287  0.00  0.00    -0.055 A 
ATOM     16  C   UNL     1      87.937  44.260  42.487  0.00  0.00    -0.061 A 
ATOM     17  C   UNL     1      87.019  43.601  43.306  0.00  0.00    -0.062 A 
ATOM     18  C   UNL     1      86.001  44.322  43.934  0.00  0.00    -0.061 A 
ATOM     19  C   UNL     1      85.894  45.703  43.739  0.00  0.00    -0.055 A 
ENDBRANCH  13  14
ENDBRANCH   9  12
ENDBRANCH   6   8
BRANCH   1  21
ATOM     20  C   UNL     1      81.843  51.336  41.675  0.00  0.00    +0.037 C 
ATOM     21  O   UNL     1      83.195  51.458  42.060  0.00  0.00    -0.376 OA
ENDBRANCH   1  21
BRANCH   7  22
ATOM     22  O   UNL     1      85.056  54.082  43.765  0.00  0.00    -0.384 OA
ATOM     23  H   UNL     1      85.334  54.587  42.984  0.00  0.00    +0.000 HD
ENDBRANCH   7  22
BRANCH   7  24
ATOM     24  C   UNL     1      84.568  51.900  44.686  0.00  0.00    +0.078 C 
BRANCH  24  25
ATOM     25  C   UNL     1      85.198  52.517  45.901  0.00  0.00    +0.310 C 
ATOM     26  O   UNL     1      86.454  52.535  46.015  0.00  0.00    -0.251 OA
BRANCH  25  27
ATOM     27  O   UNL     1      84.384  53.049  46.904  0.00  0.00    -0.468 OA
ATOM     28  C   UNL     1      84.097  54.438  47.001  0.00  0.00    +0.082 C 
ENDBRANCH  25  27
ENDBRANCH  24  25
ENDBRANCH   7  24
TORSDOF 8
ENDMDL
MODEL 8
REMARK VINA RESULT:    -7.018      3.269      4.658
REMARK INTER + INTRA:         -11.195
REMARK INTER:                 -10.095
REMARK INTRA:                  -1.100
REMARK UNBOUND:                -1.100
REMARK  Name = 
REMARK  10 active torsions:
REMARK  status: ('A' for Active; 'I' for Inactive)
REMARK    1  A    between atoms: C_1  and  O_2
REMARK    2  A    between atoms: O_2  and  C_3
REMARK    3  A    between atoms: C_8  and  N_16
REMARK    4  A    between atoms: C_9  and  O_10
REMARK    5  A    between atoms: C_9  and  C_11
REMARK    6  A    between atoms: C_11  and  C_12
REMARK    7  A    between atoms: C_12  and  O_14
REMARK    8  A    between atoms: O_14  and  C_15
REMARK    9  A    between atoms: C_17  and  C_19
REMARK   10  A    between atoms: C_20  and  C_21
REMARK                            x       y       z     vdW  Elec       q    Type
REMARK                         _______ _______ _______ _____ _____    ______ ____
ROOT
ATOM      1  C   UNL     1      86.263  53.996  43.146  0.00  0.00    +0.096 C 
ATOM      2  C   UNL     1      86.128  54.895  44.395  0.00  0.00    +0.035 C 
ATOM      3  C   UNL     1      85.304  54.246  45.472  0.00  0.00    +0.138 C 
ATOM      4  O   UNL     1      84.986  54.892  46.458  0.00  0.00    -0.297 OA
ATOM      5  C   UNL     1      84.929  52.794  45.377  0.00  0.00    +0.027 C 
ATOM      6  C   UNL     1      84.421  52.386  43.968  0.00  0.00    +0.062 C 
ATOM      7  C   UNL     1      84.891  53.344  42.799  0.00  0.00    +0.121 C 
ENDROOT
BRANCH   6   8
ATOM      8  N   UNL     1      84.816  50.990  43.719  0.00  0.00    -0.306 N 
ATOM      9  C   UNL     1      83.917  49.878  43.860  0.00  0.00    +0.237 C 
ATOM     10  O   UNL     1      82.736  50.061  44.263  0.00  0.00    -0.271 OA
ATOM     11  H   UNL     1      85.742  50.808  43.443  0.00  0.00    +0.000 HD
BRANCH   9  12
ATOM     12  C   UNL     1      84.386  48.520  43.523  0.00  0.00    +0.001 C 
ATOM     13  C   UNL     1      85.653  48.129  43.724  0.00  0.00    -0.050 C 
BRANCH  13  14
ATOM     14  C   UNL     1      86.161  46.775  43.390  0.00  0.00    -0.025 A 
ATOM     15  C   UNL     1      87.255  46.664  42.514  0.00  0.00    -0.055 A 
ATOM     16  C   UNL     1      87.773  45.409  42.180  0.00  0.00    -0.061 A 
ATOM     17  C   UNL     1      87.212  44.252  42.724  0.00  0.00    -0.062 A 
ATOM     18  C   UNL     1      86.135  44.348  43.608  0.00  0.00    -0.061 A 
ATOM     19  C   UNL     1      85.612  45.601  43.946  0.00  0.00    -0.055 A 
ENDBRANCH  13  14
ENDBRANCH   9  12
ENDBRANCH   6   8
BRANCH   1  21
ATOM     20  C   UNL     1      88.257  53.026  42.422  0.00  0.00    +0.037 C 
ATOM     21  O   UNL     1      87.229  52.981  43.387  0.00  0.00    -0.376 OA
ENDBRANCH   1  21
BRANCH   7  22
ATOM     22  O   UNL     1      83.947  54.386  42.667  0.00  0.00    -0.384 OA
ATOM     23  H   UNL     1      84.354  55.134  42.202  0.00  0.00    +0.000 HD
ENDBRANCH   7  22
BRANCH   7  24
ATOM     24  C   UNL     1      84.989  52.582  41.437  0.00  0.00    +0.078 C 
BRANCH  24  25
ATOM     25  C   UNL     1      85.203  53.498  40.267  0.00  0.00    +0.310 C 
ATOM     26  O   UNL     1      86.287  53.452  39.624  0.00  0.00    -0.251 OA
BRANCH  25  27
ATOM     27  O   UNL     1      84.204  54.409  39.913  0.00  0.00    -0.468 OA
ATOM     28  C   UNL     1      84.241  55.154  38.702  0.00  0.00    +0.082 C 
ENDBRANCH  25  27
ENDBRANCH  24  25
ENDBRANCH   7  24
TORSDOF 8
ENDMDL
MODEL 9
REMARK VINA RESULT:    -6.999      2.076      4.052
REMARK INTER + INTRA:         -11.168
REMARK INTER:                  -9.936
REMARK INTRA:                  -1.232
REMARK UNBOUND:                -1.100
REMARK  Name = 
REMARK  10 active torsions:
REMARK  status: ('A' for Active; 'I' for Inactive)
REMARK    1  A    between atoms: C_1  and  O_2
REMARK    2  A    between atoms: O_2  and  C_3
REMARK    3  A    between atoms: C_8  and  N_16
REMARK    4  A    between atoms: C_9  and  O_10
REMARK    5  A    between atoms: C_9  and  C_11
REMARK    6  A    between atoms: C_11  and  C_12
REMARK    7  A    between atoms: C_12  and  O_14
REMARK    8  A    between atoms: O_14  and  C_15
REMARK    9  A    between atoms: C_17  and  C_19
REMARK   10  A    between atoms: C_20  and  C_21
REMARK                            x       y       z     vdW  Elec       q    Type
REMARK                         _______ _______ _______ _____ _____    ______ ____
ROOT
ATOM      1  C   UNL     1      85.609  54.110  44.169  0.00  0.00    +0.096 C 
ATOM      2  C   UNL     1      86.731  54.567  43.212  0.00  0.00    +0.035 C 
ATOM      3  C   UNL     1      87.370  53.408  42.497  0.00  0.00    +0.138 C 
ATOM      4  O   UNL     1      88.368  53.597  41.819  0.00  0.00    -0.297 OA
ATOM      5  C   UNL     1      86.752  52.040  42.554  0.00  0.00    +0.027 C 
ATOM      6  C   UNL     1      86.305  51.632  43.983  0.00  0.00    +0.062 C 
ATOM      7  C   UNL     1      86.059  52.848  44.966  0.00  0.00    +0.121 C 
ENDROOT
BRANCH   6   8
ATOM      8  N   UNL     1      85.115  50.774  43.869  0.00  0.00    -0.306 N 
ATOM      9  C   UNL     1      85.180  49.358  43.639  0.00  0.00    +0.237 C 
ATOM     10  O   UNL     1      86.295  48.791  43.471  0.00  0.00    -0.271 OA
ATOM     11  H   UNL     1      84.228  51.192  43.955  0.00  0.00    +0.000 HD
BRANCH   9  12
ATOM     12  C   UNL     1      83.933  48.570  43.607  0.00  0.00    +0.001 C 
ATOM     13  C   UNL     1      82.743  49.099  43.927  0.00  0.00    -0.050 C 
BRANCH  13  14
ATOM     14  C   UNL     1      81.471  48.336  43.913  0.00  0.00    -0.025 A 
ATOM     15  C   UNL     1      81.512  46.965  43.602  0.00  0.00    -0.055 A 
ATOM     16  C   UNL     1      80.339  46.204  43.588  0.00  0.00    -0.061 A 
ATOM     17  C   UNL     1      79.114  46.800  43.894  0.00  0.00    -0.062 A 
ATOM     18  C   UNL     1      79.059  48.156  44.221  0.00  0.00    -0.061 A 
ATOM     19  C   UNL     1      80.230  48.923  44.236  0.00  0.00    -0.055 A 
ENDBRANCH  13  14
ENDBRANCH   9  12
ENDBRANCH   6   8
BRANCH   1  21
ATOM     20  C   UNL     1      84.101  54.880  42.565  0.00  0.00    +0.037 C 
ATOM     21  O   UNL     1      84.434  53.814  43.427  0.00  0.00    -0.376 OA
ENDBRANCH   1  21
BRANCH   7  22
ATOM     22  O   UNL     1      87.279  53.162  45.605  0.00  0.00    -0.384 OA
ATOM     23  H   UNL     1      87.939  53.408  44.938  0.00  0.00    +0.000 HD
ENDBRANCH   7  22
BRANCH   7  24
ATOM     24  C   UNL     1      84.998  52.497  46.058  0.00  0.00    +0.078 C 
BRANCH  24  25
ATOM     25  C   UNL     1      85.431  52.883  47.443  0.00  0.00    +0.310 C 
ATOM     26  O   UNL     1      85.801  51.992  48.256  0.00  0.00    -0.251 OA
BRANCH  25  27
ATOM     27  O   UNL     1      85.403  54.227  47.824  0.00  0.00    -0.468 OA
ATOM     28  C   UNL     1      84.192  54.918  48.104  0.00  0.00    +0.082 C 
ENDBRANCH  25  27
ENDBRANCH  24  25
ENDBRANCH   7  24
TORSDOF 8
ENDMDL
