MODEL 1
REMARK VINA RESULT:    -8.168      0.000      0.000
REMARK INTER + INTRA:          -9.891
REMARK INTER:                  -9.557
REMARK INTRA:                  -0.334
REMARK UNBOUND:                -0.290
REMARK  Name = 
REMARK  4 active torsions:
REMARK  status: ('A' for Active; 'I' for Inactive)
REMARK    1  A    between atoms: O_1  and  C_2
REMARK    2  A    between atoms: C_5  and  O_22
REMARK    3  A    between atoms: C_9  and  C_11
REMARK    4  A    between atoms: C_12  and  C_13
REMARK                            x       y       z     vdW  Elec       q    Type
REMARK                         _______ _______ _______ _____ _____    ______ ____
ROOT
ATOM      1  C   UNL     1      85.940  57.006  44.259  0.00  0.00    +0.075 C 
ATOM      2  C   UNL     1      84.474  57.165  43.822  0.00  0.00    -0.057 C 
ATOM      3  C   UNL     1      83.810  56.229  43.110  0.00  0.00    -0.052 C 
ATOM      4  C   UNL     1      84.572  55.046  42.580  0.00  0.00    +0.111 C 
ATOM      5  C   UNL     1      85.527  54.581  43.685  0.00  0.00    +0.069 C 
ATOM      6  C   UNL     1      86.612  55.638  43.898  0.00  0.00    -0.001 C 
ATOM      7  N   UNL     1      85.961  53.262  43.251  0.00  0.00    -0.232 N 
ATOM      8  C   UNL     1      86.917  52.449  43.951  0.00  0.00    +0.246 C 
ATOM      9  O   UNL     1      87.090  52.618  45.187  0.00  0.00    -0.270 OA
ATOM     10  C   UNL     1      84.848  52.739  42.522  0.00  0.00    +0.225 C 
ATOM     11  O   UNL     1      84.736  51.524  42.208  0.00  0.00    -0.275 OA
ATOM     12  C   UNL     1      83.794  53.763  42.254  0.00  0.00    +0.059 C 
ENDROOT
BRANCH   1  13
ATOM     13  O   UNL     1      86.708  58.073  43.770  0.00  0.00    -0.388 OA
ATOM     14  H   UNL     1      87.505  58.173  44.315  0.00  0.00    +0.000 HD
ENDBRANCH   1  13
BRANCH   8  15
ATOM     15  C   UNL     1      87.712  51.419  43.257  0.00  0.00    +0.001 C 
ATOM     16  C   UNL     1      87.855  50.176  43.741  0.00  0.00    -0.050 C 
BRANCH  16  17
ATOM     17  C   UNL     1      88.647  49.113  43.073  0.00  0.00    -0.025 A 
ATOM     18  C   UNL     1      90.025  49.038  43.336  0.00  0.00    -0.055 A 
ATOM     19  C   UNL     1      90.811  48.050  42.735  0.00  0.00    -0.061 A 
ATOM     20  C   UNL     1      90.229  47.120  41.873  0.00  0.00    -0.062 A 
ATOM     21  C   UNL     1      88.858  47.172  41.614  0.00  0.00    -0.061 A 
ATOM     22  C   UNL     1      88.065  48.159  42.212  0.00  0.00    -0.055 A 
ENDBRANCH  16  17
ENDBRANCH   8  15
BRANCH   4  23
ATOM     23  O   UNL     1      85.304  55.438  41.439  0.00  0.00    -0.382 OA
ATOM     24  H   UNL     1      86.252  55.312  41.603  0.00  0.00    +0.000 HD
ENDBRANCH   4  23
TORSDOF 4
ENDMDL
MODEL 2
REMARK VINA RESULT:    -8.091      2.481      3.526
REMARK INTER + INTRA:          -9.800
REMARK INTER:                  -9.387
REMARK INTRA:                  -0.413
REMARK UNBOUND:                -0.290
REMARK  Name = 
REMARK  4 active torsions:
REMARK  status: ('A' for Active; 'I' for Inactive)
REMARK    1  A    between atoms: O_1  and  C_2
REMARK    2  A    between atoms: C_5  and  O_22
REMARK    3  A    between atoms: C_9  and  C_11
REMARK    4  A    between atoms: C_12  and  C_13
REMARK                            x       y       z     vdW  Elec       q    Type
REMARK                         _______ _______ _______ _____ _____    ______ ____
ROOT
ATOM      1  C   UNL     1      83.753  53.929  47.867  0.00  0.00    +0.075 C 
ATOM      2  C   UNL     1      83.879  55.461  47.810  0.00  0.00    -0.057 C 
ATOM      3  C   UNL     1      84.673  56.103  46.927  0.00  0.00    -0.052 C 
ATOM      4  C   UNL     1      85.600  55.294  46.063  0.00  0.00    +0.111 C 
ATOM      5  C   UNL     1      84.825  54.062  45.584  0.00  0.00    +0.069 C 
ATOM      6  C   UNL     1      84.548  53.140  46.773  0.00  0.00    -0.001 C 
ATOM      7  N   UNL     1      85.636  53.525  44.503  0.00  0.00    -0.232 N 
ATOM      8  C   UNL     1      85.332  52.324  43.775  0.00  0.00    +0.246 C 
ATOM      9  O   UNL     1      84.141  51.919  43.714  0.00  0.00    -0.270 OA
ATOM     10  C   UNL     1      86.269  54.670  43.926  0.00  0.00    +0.225 C 
ATOM     11  O   UNL     1      86.847  54.652  42.807  0.00  0.00    -0.275 OA
ATOM     12  C   UNL     1      86.092  55.908  44.745  0.00  0.00    +0.059 C 
ENDROOT
BRANCH   1  13
ATOM     13  O   UNL     1      84.090  53.464  49.147  0.00  0.00    -0.388 OA
ATOM     14  H   UNL     1      84.603  52.644  49.068  0.00  0.00    +0.000 HD
ENDBRANCH   1  13
BRANCH   8  15
ATOM     15  C   UNL     1      86.383  51.542  43.098  0.00  0.00    +0.001 C 
ATOM     16  C   UNL     1      87.524  51.190  43.710  0.00  0.00    -0.050 C 
BRANCH  16  17
ATOM     17  C   UNL     1      88.603  50.404  43.062  0.00  0.00    -0.025 A 
ATOM     18  C   UNL     1      89.031  50.786  41.778  0.00  0.00    -0.055 A 
ATOM     19  C   UNL     1      90.049  50.081  41.130  0.00  0.00    -0.061 A 
ATOM     20  C   UNL     1      90.659  48.994  41.758  0.00  0.00    -0.062 A 
ATOM     21  C   UNL     1      90.255  48.613  43.040  0.00  0.00    -0.061 A 
ATOM     22  C   UNL     1      89.236  49.314  43.694  0.00  0.00    -0.055 A 
ENDBRANCH  16  17
ENDBRANCH   8  15
BRANCH   4  23
ATOM     23  O   UNL     1      86.719  54.896  46.827  0.00  0.00    -0.382 OA
ATOM     24  H   UNL     1      87.192  55.682  47.141  0.00  0.00    +0.000 HD
ENDBRANCH   4  23
TORSDOF 4
ENDMDL
MODEL 3
REMARK VINA RESULT:    -8.088      2.382      3.341
REMARK INTER + INTRA:          -9.797
REMARK INTER:                  -9.404
REMARK INTRA:                  -0.393
REMARK UNBOUND:                -0.290
REMARK  Name = 
REMARK  4 active torsions:
REMARK  status: ('A' for Active; 'I' for Inactive)
REMARK    1  A    between atoms: O_1  and  C_2
REMARK    2  A    between atoms: C_5  and  O_22
REMARK    3  A    between atoms: C_9  and  C_11
REMARK    4  A    between atoms: C_12  and  C_13
REMARK                            x       y       z     vdW  Elec       q    Type
REMARK                         _______ _______ _______ _____ _____    ______ ____
ROOT
ATOM      1  C   UNL     1      83.868  54.316  47.800  0.00  0.00    +0.075 C 
ATOM      2  C   UNL     1      83.918  55.839  47.590  0.00  0.00    -0.057 C 
ATOM      3  C   UNL     1      84.627  56.424  46.602  0.00  0.00    -0.052 C 
ATOM      4  C   UNL     1      85.537  55.573  45.760  0.00  0.00    +0.111 C 
ATOM      5  C   UNL     1      84.792  54.270  45.450  0.00  0.00    +0.069 C 
ATOM      6  C   UNL     1      84.631  53.457  46.736  0.00  0.00    -0.001 C 
ATOM      7  N   UNL     1      85.561  53.665  44.374  0.00  0.00    -0.232 N 
ATOM      8  C   UNL     1      85.271  52.387  43.785  0.00  0.00    +0.246 C 
ATOM      9  O   UNL     1      84.099  51.930  43.839  0.00  0.00    -0.270 OA
ATOM     10  C   UNL     1      86.104  54.773  43.653  0.00  0.00    +0.225 C 
ATOM     11  O   UNL     1      86.614  54.670  42.506  0.00  0.00    -0.275 OA
ATOM     12  C   UNL     1      85.920  56.076  44.361  0.00  0.00    +0.059 C 
ENDROOT
BRANCH   1  13
ATOM     13  O   UNL     1      84.302  53.992  49.094  0.00  0.00    -0.388 OA
ATOM     14  H   UNL     1      84.835  54.722  49.448  0.00  0.00    +0.000 HD
ENDBRANCH   1  13
BRANCH   8  15
ATOM     15  C   UNL     1      86.314  51.586  43.118  0.00  0.00    +0.001 C 
ATOM     16  C   UNL     1      87.535  51.413  43.648  0.00  0.00    -0.050 C 
BRANCH  16  17
ATOM     17  C   UNL     1      88.609  50.615  43.006  0.00  0.00    -0.025 A 
ATOM     18  C   UNL     1      89.073  49.463  43.664  0.00  0.00    -0.055 A 
ATOM     19  C   UNL     1      90.079  48.676  43.096  0.00  0.00    -0.061 A 
ATOM     20  C   UNL     1      90.626  49.023  41.860  0.00  0.00    -0.062 A 
ATOM     21  C   UNL     1      90.165  50.156  41.187  0.00  0.00    -0.061 A 
ATOM     22  C   UNL     1      89.159  50.949  41.751  0.00  0.00    -0.055 A 
ENDBRANCH  16  17
ENDBRANCH   8  15
BRANCH   4  23
ATOM     23  O   UNL     1      86.717  55.297  46.484  0.00  0.00    -0.382 OA
ATOM     24  H   UNL     1      86.608  54.468  46.976  0.00  0.00    +0.000 HD
ENDBRANCH   4  23
TORSDOF 4
ENDMDL
MODEL 4
REMARK VINA RESULT:    -8.054      2.198      3.018
REMARK INTER + INTRA:          -9.757
REMARK INTER:                  -9.375
REMARK INTRA:                  -0.382
REMARK UNBOUND:                -0.290
REMARK  Name = 
REMARK  4 active torsions:
REMARK  status: ('A' for Active; 'I' for Inactive)
REMARK    1  A    between atoms: O_1  and  C_2
REMARK    2  A    between atoms: C_5  and  O_22
REMARK    3  A    between atoms: C_9  and  C_11
REMARK    4  A    between atoms: C_12  and  C_13
REMARK                            x       y       z     vdW  Elec       q    Type
REMARK                         _______ _______ _______ _____ _____    ______ ____
ROOT
ATOM      1  C   UNL     1      84.520  54.767  39.627  0.00  0.00    +0.075 C 
ATOM      2  C   UNL     1      83.316  55.096  40.526  0.00  0.00    -0.057 C 
ATOM      3  C   UNL     1      83.105  54.506  41.722  0.00  0.00    -0.052 C 
ATOM      4  C   UNL     1      83.991  53.362  42.133  0.00  0.00    +0.111 C 
ATOM      5  C   UNL     1      85.427  53.729  41.744  0.00  0.00    +0.069 C 
ATOM      6  C   UNL     1      85.553  53.750  40.219  0.00  0.00    -0.001 C 
ATOM      7  N   UNL     1      86.250  52.771  42.465  0.00  0.00    -0.232 N 
ATOM      8  C   UNL     1      87.681  52.691  42.368  0.00  0.00    +0.246 C 
ATOM      9  O   UNL     1      88.339  53.708  42.022  0.00  0.00    -0.270 OA
ATOM     10  C   UNL     1      85.513  52.490  43.658  0.00  0.00    +0.225 C 
ATOM     11  O   UNL     1      86.010  51.906  44.657  0.00  0.00    -0.275 OA
ATOM     12  C   UNL     1      84.125  53.042  43.628  0.00  0.00    +0.059 C 
ENDROOT
BRANCH   1  13
ATOM     13  O   UNL     1      84.078  54.338  38.367  0.00  0.00    -0.388 OA
ATOM     14  H   UNL     1      83.111  54.256  38.374  0.00  0.00    +0.000 HD
ENDBRANCH   1  13
BRANCH   8  15
ATOM     15  C   UNL     1      88.408  51.441  42.657  0.00  0.00    +0.001 C 
ATOM     16  C   UNL     1      88.380  50.385  41.829  0.00  0.00    -0.050 C 
BRANCH  16  17
ATOM     17  C   UNL     1      89.098  49.112  42.087  0.00  0.00    -0.025 A 
ATOM     18  C   UNL     1      88.556  47.921  41.574  0.00  0.00    -0.055 A 
ATOM     19  C   UNL     1      89.200  46.698  41.785  0.00  0.00    -0.061 A 
ATOM     20  C   UNL     1      90.397  46.651  42.501  0.00  0.00    -0.062 A 
ATOM     21  C   UNL     1      90.956  47.828  43.003  0.00  0.00    -0.061 A 
ATOM     22  C   UNL     1      90.316  49.056  42.796  0.00  0.00    -0.055 A 
ENDBRANCH  16  17
ENDBRANCH   8  15
BRANCH   4  23
ATOM     23  O   UNL     1      83.588  52.194  41.451  0.00  0.00    -0.382 OA
ATOM     24  H   UNL     1      84.215  51.478  41.636  0.00  0.00    +0.000 HD
ENDBRANCH   4  23
TORSDOF 4
ENDMDL
MODEL 5
REMARK VINA RESULT:    -7.967      3.802      7.271
REMARK INTER + INTRA:          -9.654
REMARK INTER:                  -9.289
REMARK INTRA:                  -0.365
REMARK UNBOUND:                -0.290
REMARK  Name = 
REMARK  4 active torsions:
REMARK  status: ('A' for Active; 'I' for Inactive)
REMARK    1  A    between atoms: O_1  and  C_2
REMARK    2  A    between atoms: C_5  and  O_22
REMARK    3  A    between atoms: C_9  and  C_11
REMARK    4  A    between atoms: C_12  and  C_13
REMARK                            x       y       z     vdW  Elec       q    Type
REMARK                         _______ _______ _______ _____ _____    ______ ____
ROOT
ATOM      1  C   UNL     1      89.953  47.903  42.491  0.00  0.00    +0.075 C 
ATOM      2  C   UNL     1      90.770  49.090  41.954  0.00  0.00    -0.057 C 
ATOM      3  C   UNL     1      90.238  50.311  41.733  0.00  0.00    -0.052 C 
ATOM      4  C   UNL     1      88.750  50.489  41.864  0.00  0.00    +0.111 C 
ATOM      5  C   UNL     1      88.301  49.712  43.106  0.00  0.00    +0.069 C 
ATOM      6  C   UNL     1      88.462  48.211  42.853  0.00  0.00    -0.001 C 
ATOM      7  N   UNL     1      86.957  50.201  43.368  0.00  0.00    -0.232 N 
ATOM      8  C   UNL     1      86.104  49.716  44.418  0.00  0.00    +0.246 C 
ATOM      9  O   UNL     1      86.616  49.179  45.436  0.00  0.00    -0.270 OA
ATOM     10  C   UNL     1      86.973  51.556  42.914  0.00  0.00    +0.225 C 
ATOM     11  O   UNL     1      86.078  52.394  43.203  0.00  0.00    -0.275 OA
ATOM     12  C   UNL     1      88.205  51.897  42.139  0.00  0.00    +0.059 C 
ENDROOT
BRANCH   1  13
ATOM     13  O   UNL     1      90.027  46.823  41.599  0.00  0.00    -0.388 OA
ATOM     14  H   UNL     1      90.012  47.155  40.687  0.00  0.00    +0.000 HD
ENDBRANCH   1  13
BRANCH   8  15
ATOM     15  C   UNL     1      84.636  49.823  44.335  0.00  0.00    +0.001 C 
ATOM     16  C   UNL     1      83.897  48.994  43.583  0.00  0.00    -0.050 C 
BRANCH  16  17
ATOM     17  C   UNL     1      82.419  49.071  43.474  0.00  0.00    -0.025 A 
ATOM     18  C   UNL     1      81.653  47.998  43.961  0.00  0.00    -0.055 A 
ATOM     19  C   UNL     1      80.257  48.028  43.887  0.00  0.00    -0.061 A 
ATOM     20  C   UNL     1      79.609  49.135  43.336  0.00  0.00    -0.062 A 
ATOM     21  C   UNL     1      80.356  50.216  42.863  0.00  0.00    -0.061 A 
ATOM     22  C   UNL     1      81.753  50.192  42.934  0.00  0.00    -0.055 A 
ENDBRANCH  16  17
ENDBRANCH   8  15
BRANCH   4  23
ATOM     23  O   UNL     1      88.117  49.971  40.713  0.00  0.00    -0.382 OA
ATOM     24  H   UNL     1      87.178  50.213  40.724  0.00  0.00    +0.000 HD
ENDBRANCH   4  23
TORSDOF 4
ENDMDL
MODEL 6
REMARK VINA RESULT:    -7.905      4.384      8.387
REMARK INTER + INTRA:          -9.582
REMARK INTER:                  -9.249
REMARK INTRA:                  -0.333
REMARK UNBOUND:                -0.290
REMARK  Name = 
REMARK  4 active torsions:
REMARK  status: ('A' for Active; 'I' for Inactive)
REMARK    1  A    between atoms: O_1  and  C_2
REMARK    2  A    between atoms: C_5  and  O_22
REMARK    3  A    between atoms: C_9  and  C_11
REMARK    4  A    between atoms: C_12  and  C_13
REMARK                            x       y       z     vdW  Elec       q    Type
REMARK                         _______ _______ _______ _____ _____    ______ ____
ROOT
ATOM      1  C   UNL     1      86.216  45.298  43.348  0.00  0.00    +0.075 C 
ATOM      2  C   UNL     1      85.037  44.620  42.630  0.00  0.00    -0.057 C 
ATOM      3  C   UNL     1      83.804  45.167  42.559  0.00  0.00    -0.052 C 
ATOM      4  C   UNL     1      83.519  46.416  43.346  0.00  0.00    +0.111 C 
ATOM      5  C   UNL     1      84.735  47.338  43.204  0.00  0.00    +0.069 C 
ATOM      6  C   UNL     1      85.930  46.721  43.934  0.00  0.00    -0.001 C 
ATOM      7  N   UNL     1      84.263  48.630  43.678  0.00  0.00    -0.232 N 
ATOM      8  C   UNL     1      85.080  49.807  43.782  0.00  0.00    +0.246 C 
ATOM      9  O   UNL     1      86.105  49.917  43.060  0.00  0.00    -0.270 OA
ATOM     10  C   UNL     1      82.873  48.649  43.344  0.00  0.00    +0.225 C 
ATOM     11  O   UNL     1      82.171  49.695  43.357  0.00  0.00    -0.275 OA
ATOM     12  C   UNL     1      82.364  47.319  42.889  0.00  0.00    +0.059 C 
ENDROOT
BRANCH   1  13
ATOM     13  O   UNL     1      86.726  44.452  44.344  0.00  0.00    -0.388 OA
ATOM     14  H   UNL     1      87.138  43.677  43.931  0.00  0.00    +0.000 HD
ENDBRANCH   1  13
BRANCH   8  15
ATOM     15  C   UNL     1      84.753  50.895  44.723  0.00  0.00    +0.001 C 
ATOM     16  C   UNL     1      85.604  51.297  45.679  0.00  0.00    -0.050 C 
BRANCH  16  17
ATOM     17  C   UNL     1      85.311  52.386  46.643  0.00  0.00    -0.025 A 
ATOM     18  C   UNL     1      84.424  53.405  46.253  0.00  0.00    -0.055 A 
ATOM     19  C   UNL     1      84.111  54.449  47.129  0.00  0.00    -0.061 A 
ATOM     20  C   UNL     1      84.672  54.483  48.407  0.00  0.00    -0.062 A 
ATOM     21  C   UNL     1      85.542  53.470  48.813  0.00  0.00    -0.061 A 
ATOM     22  C   UNL     1      85.860  52.422  47.942  0.00  0.00    -0.055 A 
ENDBRANCH  16  17
ENDBRANCH   8  15
BRANCH   4  23
ATOM     23  O   UNL     1      83.323  46.077  44.703  0.00  0.00    -0.382 OA
ATOM     24  H   UNL     1      83.800  45.256  44.902  0.00  0.00    +0.000 HD
ENDBRANCH   4  23
TORSDOF 4
ENDMDL
MODEL 7
REMARK VINA RESULT:    -7.798      3.880      5.419
REMARK INTER + INTRA:          -9.456
REMARK INTER:                  -9.136
REMARK INTRA:                  -0.320
REMARK UNBOUND:                -0.290
REMARK  Name = 
REMARK  4 active torsions:
REMARK  status: ('A' for Active; 'I' for Inactive)
REMARK    1  A    between atoms: O_1  and  C_2
REMARK    2  A    between atoms: C_5  and  O_22
REMARK    3  A    between atoms: C_9  and  C_11
REMARK    4  A    between atoms: C_12  and  C_13
REMARK                            x       y       z     vdW  Elec       q    Type
REMARK                         _______ _______ _______ _____ _____    ______ ____
ROOT
ATOM      1  C   UNL     1      85.099  56.002  43.386  0.00  0.00    +0.075 C 
ATOM      2  C   UNL     1      86.245  56.337  44.356  0.00  0.00    -0.057 C 
ATOM      3  C   UNL     1      86.687  55.479  45.300  0.00  0.00    -0.052 C 
ATOM      4  C   UNL     1      85.932  54.199  45.528  0.00  0.00    +0.111 C 
ATOM      5  C   UNL     1      85.552  53.638  44.153  0.00  0.00    +0.069 C 
ATOM      6  C   UNL     1      84.515  54.553  43.498  0.00  0.00    -0.001 C 
ATOM      7  N   UNL     1      85.151  52.267  44.424  0.00  0.00    -0.232 N 
ATOM      8  C   UNL     1      84.655  51.353  43.433  0.00  0.00    +0.246 C 
ATOM      9  O   UNL     1      84.960  51.522  42.223  0.00  0.00    -0.270 OA
ATOM     10  C   UNL     1      85.944  51.875  45.547  0.00  0.00    +0.225 C 
ATOM     11  O   UNL     1      86.075  50.679  45.918  0.00  0.00    -0.275 OA
ATOM     12  C   UNL     1      86.673  53.019  46.173  0.00  0.00    +0.059 C 
ENDROOT
BRANCH   1  13
ATOM     13  O   UNL     1      84.074  56.952  43.501  0.00  0.00    -0.388 OA
ATOM     14  H   UNL     1      83.218  56.499  43.563  0.00  0.00    +0.000 HD
ENDBRANCH   1  13
BRANCH   8  15
ATOM     15  C   UNL     1      83.786  50.216  43.792  0.00  0.00    +0.001 C 
ATOM     16  C   UNL     1      82.707  49.880  43.070  0.00  0.00    -0.050 C 
BRANCH  16  17
ATOM     17  C   UNL     1      81.810  48.745  43.401  0.00  0.00    -0.025 A 
ATOM     18  C   UNL     1      82.378  47.470  43.570  0.00  0.00    -0.055 A 
ATOM     19  C   UNL     1      81.575  46.371  43.890  0.00  0.00    -0.061 A 
ATOM     20  C   UNL     1      80.198  46.534  44.054  0.00  0.00    -0.062 A 
ATOM     21  C   UNL     1      79.623  47.797  43.905  0.00  0.00    -0.061 A 
ATOM     22  C   UNL     1      80.421  48.901  43.585  0.00  0.00    -0.055 A 
ENDBRANCH  16  17
ENDBRANCH   8  15
BRANCH   4  23
ATOM     23  O   UNL     1      84.768  54.473  46.278  0.00  0.00    -0.382 OA
ATOM     24  H   UNL     1      84.282  53.648  46.434  0.00  0.00    +0.000 HD
ENDBRANCH   4  23
TORSDOF 4
ENDMDL
MODEL 8
REMARK VINA RESULT:    -7.628      2.221      7.418
REMARK INTER + INTRA:          -9.256
REMARK INTER:                  -8.839
REMARK INTRA:                  -0.417
REMARK UNBOUND:                -0.290
REMARK  Name = 
REMARK  4 active torsions:
REMARK  status: ('A' for Active; 'I' for Inactive)
REMARK    1  A    between atoms: O_1  and  C_2
REMARK    2  A    between atoms: C_5  and  O_22
REMARK    3  A    between atoms: C_9  and  C_11
REMARK    4  A    between atoms: C_12  and  C_13
REMARK                            x       y       z     vdW  Elec       q    Type
REMARK                         _______ _______ _______ _____ _____    ______ ____
ROOT
ATOM      1  C   UNL     1      89.963  49.397  41.525  0.00  0.00    +0.075 C 
ATOM      2  C   UNL     1      89.240  48.073  41.825  0.00  0.00    -0.057 C 
ATOM      3  C   UNL     1      88.039  48.011  42.439  0.00  0.00    -0.052 C 
ATOM      4  C   UNL     1      87.445  49.274  43.000  0.00  0.00    +0.111 C 
ATOM      5  C   UNL     1      87.684  50.389  41.976  0.00  0.00    +0.069 C 
ATOM      6  C   UNL     1      89.181  50.700  41.903  0.00  0.00    -0.001 C 
ATOM      7  N   UNL     1      86.803  51.464  42.405  0.00  0.00    -0.232 N 
ATOM      8  C   UNL     1      86.723  52.752  41.773  0.00  0.00    +0.246 C 
ATOM      9  O   UNL     1      87.059  52.873  40.566  0.00  0.00    -0.270 OA
ATOM     10  C   UNL     1      85.691  50.798  43.007  0.00  0.00    +0.225 C 
ATOM     11  O   UNL     1      84.600  51.371  43.268  0.00  0.00    -0.275 OA
ATOM     12  C   UNL     1      85.925  49.336  43.207  0.00  0.00    +0.059 C 
ENDROOT
BRANCH   1  13
ATOM     13  O   UNL     1      91.233  49.400  42.121  0.00  0.00    -0.388 OA
ATOM     14  H   UNL     1      91.216  49.955  42.916  0.00  0.00    +0.000 HD
ENDBRANCH   1  13
BRANCH   8  15
ATOM     15  C   UNL     1      86.260  53.946  42.504  0.00  0.00    +0.001 C 
ATOM     16  C   UNL     1      86.734  54.275  43.716  0.00  0.00    -0.050 C 
BRANCH  16  17
ATOM     17  C   UNL     1      86.292  55.467  44.481  0.00  0.00    -0.025 A 
ATOM     18  C   UNL     1      85.851  56.595  43.769  0.00  0.00    -0.055 A 
ATOM     19  C   UNL     1      85.418  57.739  44.446  0.00  0.00    -0.061 A 
ATOM     20  C   UNL     1      85.412  57.767  45.842  0.00  0.00    -0.062 A 
ATOM     21  C   UNL     1      85.833  56.648  46.563  0.00  0.00    -0.061 A 
ATOM     22  C   UNL     1      86.268  55.500  45.891  0.00  0.00    -0.055 A 
ENDBRANCH  16  17
ENDBRANCH   8  15
BRANCH   4  23
ATOM     23  O   UNL     1      88.085  49.587  44.218  0.00  0.00    -0.382 OA
ATOM     24  H   UNL     1      89.041  49.664  44.071  0.00  0.00    +0.000 HD
ENDBRANCH   4  23
TORSDOF 4
ENDMDL
MODEL 9
REMARK VINA RESULT:    -7.449      2.393      3.884
REMARK INTER + INTRA:          -9.045
REMARK INTER:                  -8.755
REMARK INTRA:                  -0.290
REMARK UNBOUND:                -0.290
REMARK  Name = 
REMARK  4 active torsions:
REMARK  status: ('A' for Active; 'I' for Inactive)
REMARK    1  A    between atoms: O_1  and  C_2
REMARK    2  A    between atoms: C_5  and  O_22
REMARK    3  A    between atoms: C_9  and  C_11
REMARK    4  A    between atoms: C_12  and  C_13
REMARK                            x       y       z     vdW  Elec       q    Type
REMARK                         _______ _______ _______ _____ _____    ______ ____
ROOT
ATOM      1  C   UNL     1      84.431  53.693  40.892  0.00  0.00    +0.075 C 
ATOM      2  C   UNL     1      84.805  54.865  41.815  0.00  0.00    -0.057 C 
ATOM      3  C   UNL     1      85.434  54.700  42.998  0.00  0.00    -0.052 C 
ATOM      4  C   UNL     1      85.642  53.306  43.521  0.00  0.00    +0.111 C 
ATOM      5  C   UNL     1      86.072  52.430  42.339  0.00  0.00    +0.069 C 
ATOM      6  C   UNL     1      84.901  52.277  41.366  0.00  0.00    -0.001 C 
ATOM      7  N   UNL     1      86.585  51.218  42.958  0.00  0.00    -0.232 N 
ATOM      8  C   UNL     1      87.058  50.071  42.233  0.00  0.00    +0.246 C 
ATOM      9  O   UNL     1      87.479  50.211  41.055  0.00  0.00    -0.270 OA
ATOM     10  C   UNL     1      87.127  51.654  44.207  0.00  0.00    +0.225 C 
ATOM     11  O   UNL     1      87.890  50.946  44.915  0.00  0.00    -0.275 OA
ATOM     12  C   UNL     1      86.769  53.067  44.536  0.00  0.00    +0.059 C 
ENDROOT
BRANCH   1  13
ATOM     13  O   UNL     1      83.050  53.693  40.645  0.00  0.00    -0.388 OA
ATOM     14  H   UNL     1      82.884  53.384  39.740  0.00  0.00    +0.000 HD
ENDBRANCH   1  13
BRANCH   8  15
ATOM     15  C   UNL     1      87.059  48.723  42.831  0.00  0.00    +0.001 C 
ATOM     16  C   UNL     1      87.078  47.607  42.087  0.00  0.00    -0.050 C 
BRANCH  16  17
ATOM     17  C   UNL     1      87.079  46.235  42.653  0.00  0.00    -0.025 A 
ATOM     18  C   UNL     1      88.153  45.383  42.344  0.00  0.00    -0.055 A 
ATOM     19  C   UNL     1      88.202  44.085  42.859  0.00  0.00    -0.061 A 
ATOM     20  C   UNL     1      87.184  43.625  43.697  0.00  0.00    -0.062 A 
ATOM     21  C   UNL     1      86.119  44.465  44.026  0.00  0.00    -0.061 A 
ATOM     22  C   UNL     1      86.064  45.766  43.513  0.00  0.00    -0.055 A 
ENDBRANCH  16  17
ENDBRANCH   8  15
BRANCH   4  23
ATOM     23  O   UNL     1      84.430  52.827  44.064  0.00  0.00    -0.382 OA
ATOM     24  H   UNL     1      83.787  52.693  43.350  0.00  0.00    +0.000 HD
ENDBRANCH   4  23
TORSDOF 4
ENDMDL
