MODEL 1
REMARK VINA RESULT:    -7.851      0.000      0.000
REMARK INTER + INTRA:         -12.440
REMARK INTER:                 -11.288
REMARK INTRA:                  -1.152
REMARK UNBOUND:                -1.147
REMARK  Name = 
REMARK  10 active torsions:
REMARK  status: ('A' for Active; 'I' for Inactive)
REMARK    1  A    between atoms: C_1  and  O_2
REMARK    2  A    between atoms: O_2  and  C_3
REMARK    3  A    between atoms: C_8  and  N_16
REMARK    4  A    between atoms: C_9  and  O_10
REMARK    5  A    between atoms: C_9  and  C_11
REMARK    6  A    between atoms: C_11  and  C_12
REMARK    7  A    between atoms: C_12  and  O_14
REMARK    8  A    between atoms: O_14  and  C_15
REMARK    9  A    between atoms: C_17  and  C_19
REMARK   10  A    between atoms: C_20  and  C_21
REMARK                            x       y       z     vdW  Elec       q    Type
REMARK                         _______ _______ _______ _____ _____    ______ ____
ROOT
ATOM      1  C   UNL     1      87.601  51.281  40.996  0.00  0.00    +0.096 C 
ATOM      2  C   UNL     1      88.916  50.940  41.728  0.00  0.00    +0.035 C 
ATOM      3  C   UNL     1      88.658  50.619  43.170  0.00  0.00    +0.138 C 
ATOM      4  O   UNL     1      89.186  49.650  43.692  0.00  0.00    -0.297 OA
ATOM      5  C   UNL     1      87.812  51.550  43.986  0.00  0.00    +0.027 C 
ATOM      6  C   UNL     1      86.511  51.894  43.240  0.00  0.00    +0.062 C 
ATOM      7  C   UNL     1      86.790  52.380  41.777  0.00  0.00    +0.121 C 
ENDROOT
BRANCH   6   8
ATOM      8  N   UNL     1      85.605  50.735  43.269  0.00  0.00    -0.306 N 
ATOM      9  C   UNL     1      84.420  50.684  44.079  0.00  0.00    +0.237 C 
ATOM     10  O   UNL     1      84.136  51.641  44.850  0.00  0.00    -0.271 OA
ATOM     11  H   UNL     1      85.822  49.956  42.707  0.00  0.00    +0.000 HD
BRANCH   9  12
ATOM     12  C   UNL     1      83.534  49.507  43.996  0.00  0.00    +0.001 C 
ATOM     13  C   UNL     1      82.197  49.614  44.018  0.00  0.00    -0.050 C 
BRANCH  13  14
ATOM     14  C   UNL     1      81.278  48.452  43.949  0.00  0.00    -0.025 A 
ATOM     15  C   UNL     1      81.826  47.169  43.777  0.00  0.00    -0.055 A 
ATOM     16  C   UNL     1      80.995  46.045  43.717  0.00  0.00    -0.061 A 
ATOM     17  C   UNL     1      79.613  46.188  43.837  0.00  0.00    -0.062 A 
ATOM     18  C   UNL     1      79.056  47.456  44.026  0.00  0.00    -0.061 A 
ATOM     19  C   UNL     1      79.880  48.583  44.086  0.00  0.00    -0.055 A 
ENDBRANCH  13  14
ENDBRANCH   9  12
ENDBRANCH   6   8
BRANCH   1  21
ATOM     20  C   UNL     1      89.312  51.807  39.498  0.00  0.00    +0.037 C 
ATOM     21  O   UNL     1      87.915  51.744  39.690  0.00  0.00    -0.376 OA
ENDBRANCH   1  21
BRANCH   7  22
ATOM     22  O   UNL     1      87.537  53.576  41.881  0.00  0.00    -0.384 OA
ATOM     23  H   UNL     1      86.944  54.309  42.106  0.00  0.00    +0.000 HD
ENDBRANCH   7  22
BRANCH   7  24
ATOM     24  C   UNL     1      85.424  52.681  41.086  0.00  0.00    +0.078 C 
BRANCH  24  25
ATOM     25  C   UNL     1      85.315  54.055  40.492  0.00  0.00    +0.310 C 
ATOM     26  O   UNL     1      85.277  54.196  39.239  0.00  0.00    -0.251 OA
BRANCH  25  27
ATOM     27  O   UNL     1      85.271  55.169  41.334  0.00  0.00    -0.468 OA
ATOM     28  C   UNL     1      84.093  55.556  42.031  0.00  0.00    +0.082 C 
ENDBRANCH  25  27
ENDBRANCH  24  25
ENDBRANCH   7  24
TORSDOF 8
ENDMDL
MODEL 2
REMARK VINA RESULT:    -7.710      3.668      6.266
REMARK INTER + INTRA:         -12.238
REMARK INTER:                 -11.030
REMARK INTRA:                  -1.208
REMARK UNBOUND:                -1.147
REMARK  Name = 
REMARK  10 active torsions:
REMARK  status: ('A' for Active; 'I' for Inactive)
REMARK    1  A    between atoms: C_1  and  O_2
REMARK    2  A    between atoms: O_2  and  C_3
REMARK    3  A    between atoms: C_8  and  N_16
REMARK    4  A    between atoms: C_9  and  O_10
REMARK    5  A    between atoms: C_9  and  C_11
REMARK    6  A    between atoms: C_11  and  C_12
REMARK    7  A    between atoms: C_12  and  O_14
REMARK    8  A    between atoms: O_14  and  C_15
REMARK    9  A    between atoms: C_17  and  C_19
REMARK   10  A    between atoms: C_20  and  C_21
REMARK                            x       y       z     vdW  Elec       q    Type
REMARK                         _______ _______ _______ _____ _____    ______ ____
ROOT
ATOM      1  C   UNL     1      88.963  50.040  42.742  0.00  0.00    +0.096 C 
ATOM      2  C   UNL     1      89.721  50.991  41.793  0.00  0.00    +0.035 C 
ATOM      3  C   UNL     1      88.814  52.066  41.274  0.00  0.00    +0.138 C 
ATOM      4  O   UNL     1      89.184  53.230  41.253  0.00  0.00    -0.297 OA
ATOM      5  C   UNL     1      87.480  51.686  40.705  0.00  0.00    +0.027 C 
ATOM      6  C   UNL     1      86.739  50.727  41.654  0.00  0.00    +0.062 C 
ATOM      7  C   UNL     1      87.638  49.515  42.075  0.00  0.00    +0.121 C 
ENDROOT
BRANCH   6   8
ATOM      8  N   UNL     1      86.245  51.474  42.821  0.00  0.00    -0.306 N 
ATOM      9  C   UNL     1      84.901  51.970  42.925  0.00  0.00    +0.237 C 
ATOM     10  O   UNL     1      84.092  51.817  41.969  0.00  0.00    -0.271 OA
ATOM     11  H   UNL     1      86.865  51.643  43.567  0.00  0.00    +0.000 HD
BRANCH   9  12
ATOM     12  C   UNL     1      84.472  52.652  44.161  0.00  0.00    +0.001 C 
ATOM     13  C   UNL     1      85.313  52.882  45.180  0.00  0.00    -0.050 C 
BRANCH  13  14
ATOM     14  C   UNL     1      84.912  53.554  46.440  0.00  0.00    -0.025 A 
ATOM     15  C   UNL     1      84.479  54.890  46.384  0.00  0.00    -0.055 A 
ATOM     16  C   UNL     1      84.083  55.558  47.547  0.00  0.00    -0.061 A 
ATOM     17  C   UNL     1      84.105  54.898  48.776  0.00  0.00    -0.062 A 
ATOM     18  C   UNL     1      84.517  53.565  48.845  0.00  0.00    -0.061 A 
ATOM     19  C   UNL     1      84.916  52.892  47.686  0.00  0.00    -0.055 A 
ENDBRANCH  13  14
ENDBRANCH   9  12
ENDBRANCH   6   8
BRANCH   1  21
ATOM     20  C   UNL     1      91.072  49.086  42.445  0.00  0.00    +0.037 C 
ATOM     21  O   UNL     1      89.811  48.947  43.065  0.00  0.00    -0.376 OA
ENDBRANCH   1  21
BRANCH   7  22
ATOM     22  O   UNL     1      87.924  48.791  40.895  0.00  0.00    -0.384 OA
ATOM     23  H   UNL     1      88.880  48.800  40.734  0.00  0.00    +0.000 HD
ENDBRANCH   7  22
BRANCH   7  24
ATOM     24  C   UNL     1      86.824  48.611  43.052  0.00  0.00    +0.078 C 
BRANCH  24  25
ATOM     25  C   UNL     1      86.709  47.177  42.626  0.00  0.00    +0.310 C 
ATOM     26  O   UNL     1      85.572  46.668  42.432  0.00  0.00    -0.251 OA
BRANCH  25  27
ATOM     27  O   UNL     1      87.868  46.413  42.458  0.00  0.00    -0.468 OA
ATOM     28  C   UNL     1      87.833  45.021  42.171  0.00  0.00    +0.082 C 
ENDBRANCH  25  27
ENDBRANCH  24  25
ENDBRANCH   7  24
TORSDOF 8
ENDMDL
MODEL 3
REMARK VINA RESULT:    -7.460      1.527      2.939
REMARK INTER + INTRA:         -11.878
REMARK INTER:                 -10.597
REMARK INTRA:                  -1.281
REMARK UNBOUND:                -1.147
REMARK  Name = 
REMARK  10 active torsions:
REMARK  status: ('A' for Active; 'I' for Inactive)
REMARK    1  A    between atoms: C_1  and  O_2
REMARK    2  A    between atoms: O_2  and  C_3
REMARK    3  A    between atoms: C_8  and  N_16
REMARK    4  A    between atoms: C_9  and  O_10
REMARK    5  A    between atoms: C_9  and  C_11
REMARK    6  A    between atoms: C_11  and  C_12
REMARK    7  A    between atoms: C_12  and  O_14
REMARK    8  A    between atoms: O_14  and  C_15
REMARK    9  A    between atoms: C_17  and  C_19
REMARK   10  A    between atoms: C_20  and  C_21
REMARK                            x       y       z     vdW  Elec       q    Type
REMARK                         _______ _______ _______ _____ _____    ______ ____
ROOT
ATOM      1  C   UNL     1      87.280  51.540  43.795  0.00  0.00    +0.096 C 
ATOM      2  C   UNL     1      87.508  52.128  45.204  0.00  0.00    +0.035 C 
ATOM      3  C   UNL     1      86.237  52.701  45.757  0.00  0.00    +0.138 C 
ATOM      4  O   UNL     1      85.904  52.467  46.908  0.00  0.00    -0.297 OA
ATOM      5  C   UNL     1      85.424  53.632  44.909  0.00  0.00    +0.027 C 
ATOM      6  C   UNL     1      85.216  53.041  43.503  0.00  0.00    +0.062 C 
ATOM      7  C   UNL     1      86.568  52.583  42.858  0.00  0.00    +0.121 C 
ENDROOT
BRANCH   6   8
ATOM      8  N   UNL     1      84.240  51.942  43.571  0.00  0.00    -0.306 N 
ATOM      9  C   UNL     1      83.073  51.874  42.736  0.00  0.00    +0.237 C 
ATOM     10  O   UNL     1      82.815  52.808  41.928  0.00  0.00    -0.271 OA
ATOM     11  H   UNL     1      84.394  51.218  44.220  0.00  0.00    +0.000 HD
BRANCH   9  12
ATOM     12  C   UNL     1      82.183  50.700  42.827  0.00  0.00    +0.001 C 
ATOM     13  C   UNL     1      82.361  49.735  43.741  0.00  0.00    -0.050 C 
BRANCH  13  14
ATOM     14  C   UNL     1      81.494  48.538  43.852  0.00  0.00    -0.025 A 
ATOM     15  C   UNL     1      80.107  48.721  43.998  0.00  0.00    -0.055 A 
ATOM     16  C   UNL     1      79.253  47.619  44.096  0.00  0.00    -0.061 A 
ATOM     17  C   UNL     1      79.769  46.324  44.039  0.00  0.00    -0.062 A 
ATOM     18  C   UNL     1      81.142  46.126  43.876  0.00  0.00    -0.061 A 
ATOM     19  C   UNL     1      82.003  47.224  43.779  0.00  0.00    -0.055 A 
ENDBRANCH  13  14
ENDBRANCH   9  12
ENDBRANCH   6   8
BRANCH   1  21
ATOM     20  C   UNL     1      88.731  49.775  43.319  0.00  0.00    +0.037 C 
ATOM     21  O   UNL     1      88.537  51.172  43.247  0.00  0.00    -0.376 OA
ENDBRANCH   1  21
BRANCH   7  22
ATOM     22  O   UNL     1      87.360  53.744  42.706  0.00  0.00    -0.384 OA
ATOM     23  H   UNL     1      88.247  53.579  43.061  0.00  0.00    +0.000 HD
ENDBRANCH   7  22
BRANCH   7  24
ATOM     24  C   UNL     1      86.264  51.976  41.453  0.00  0.00    +0.078 C 
BRANCH  24  25
ATOM     25  C   UNL     1      86.491  52.916  40.305  0.00  0.00    +0.310 C 
ATOM     26  O   UNL     1      85.555  53.665  39.912  0.00  0.00    -0.251 OA
BRANCH  25  27
ATOM     27  O   UNL     1      87.737  52.944  39.673  0.00  0.00    -0.468 OA
ATOM     28  C   UNL     1      88.693  51.902  39.818  0.00  0.00    +0.082 C 
ENDBRANCH  25  27
ENDBRANCH  24  25
ENDBRANCH   7  24
TORSDOF 8
ENDMDL
MODEL 4
REMARK VINA RESULT:    -7.285      2.977      4.163
REMARK INTER + INTRA:         -11.627
REMARK INTER:                 -10.475
REMARK INTRA:                  -1.152
REMARK UNBOUND:                -1.147
REMARK  Name = 
REMARK  10 active torsions:
REMARK  status: ('A' for Active; 'I' for Inactive)
REMARK    1  A    between atoms: C_1  and  O_2
REMARK    2  A    between atoms: O_2  and  C_3
REMARK    3  A    between atoms: C_8  and  N_16
REMARK    4  A    between atoms: C_9  and  O_10
REMARK    5  A    between atoms: C_9  and  C_11
REMARK    6  A    between atoms: C_11  and  C_12
REMARK    7  A    between atoms: C_12  and  O_14
REMARK    8  A    between atoms: O_14  and  C_15
REMARK    9  A    between atoms: C_17  and  C_19
REMARK   10  A    between atoms: C_20  and  C_21
REMARK                            x       y       z     vdW  Elec       q    Type
REMARK                         _______ _______ _______ _____ _____    ______ ____
ROOT
ATOM      1  C   UNL     1      86.573  52.986  43.346  0.00  0.00    +0.096 C 
ATOM      2  C   UNL     1      86.781  53.419  44.813  0.00  0.00    +0.035 C 
ATOM      3  C   UNL     1      85.925  52.606  45.738  0.00  0.00    +0.138 C 
ATOM      4  O   UNL     1      86.393  52.145  46.767  0.00  0.00    -0.297 OA
ATOM      5  C   UNL     1      84.468  52.436  45.426  0.00  0.00    +0.027 C 
ATOM      6  C   UNL     1      84.274  52.018  43.957  0.00  0.00    +0.062 C 
ATOM      7  C   UNL     1      85.045  52.964  42.976  0.00  0.00    +0.121 C 
ENDROOT
BRANCH   6   8
ATOM      8  N   UNL     1      84.672  50.612  43.789  0.00  0.00    -0.306 N 
ATOM      9  C   UNL     1      83.732  49.526  43.762  0.00  0.00    +0.237 C 
ATOM     10  O   UNL     1      82.502  49.746  43.936  0.00  0.00    -0.271 OA
ATOM     11  H   UNL     1      85.630  50.404  43.690  0.00  0.00    +0.000 HD
BRANCH   9  12
ATOM     12  C   UNL     1      84.216  48.152  43.523  0.00  0.00    +0.001 C 
ATOM     13  C   UNL     1      85.504  47.810  43.673  0.00  0.00    -0.050 C 
BRANCH  13  14
ATOM     14  C   UNL     1      86.025  46.444  43.430  0.00  0.00    -0.025 A 
ATOM     15  C   UNL     1      87.013  46.263  42.445  0.00  0.00    -0.055 A 
ATOM     16  C   UNL     1      87.539  44.993  42.192  0.00  0.00    -0.061 A 
ATOM     17  C   UNL     1      87.094  43.891  42.923  0.00  0.00    -0.062 A 
ATOM     18  C   UNL     1      86.126  44.057  43.917  0.00  0.00    -0.061 A 
ATOM     19  C   UNL     1      85.595  45.325  44.174  0.00  0.00    -0.055 A 
ENDBRANCH  13  14
ENDBRANCH   9  12
ENDBRANCH   6   8
BRANCH   1  21
ATOM     20  C   UNL     1      88.378  53.272  41.894  0.00  0.00    +0.037 C 
ATOM     21  O   UNL     1      87.266  53.895  42.502  0.00  0.00    -0.376 OA
ENDBRANCH   1  21
BRANCH   7  22
ATOM     22  O   UNL     1      84.475  54.250  43.119  0.00  0.00    -0.384 OA
ATOM     23  H   UNL     1      84.257  54.405  44.052  0.00  0.00    +0.000 HD
ENDBRANCH   7  22
BRANCH   7  24
ATOM     24  C   UNL     1      84.816  52.457  41.518  0.00  0.00    +0.078 C 
BRANCH  24  25
ATOM     25  C   UNL     1      84.197  53.466  40.596  0.00  0.00    +0.310 C 
ATOM     26  O   UNL     1      82.986  53.790  40.741  0.00  0.00    -0.251 OA
BRANCH  25  27
ATOM     27  O   UNL     1      84.966  54.030  39.575  0.00  0.00    -0.468 OA
ATOM     28  C   UNL     1      84.492  55.088  38.753  0.00  0.00    +0.082 C 
ENDBRANCH  25  27
ENDBRANCH  24  25
ENDBRANCH   7  24
TORSDOF 8
ENDMDL
MODEL 5
REMARK VINA RESULT:    -7.283      4.036      6.112
REMARK INTER + INTRA:         -11.623
REMARK INTER:                 -10.460
REMARK INTRA:                  -1.163
REMARK UNBOUND:                -1.147
REMARK  Name = 
REMARK  10 active torsions:
REMARK  status: ('A' for Active; 'I' for Inactive)
REMARK    1  A    between atoms: C_1  and  O_2
REMARK    2  A    between atoms: O_2  and  C_3
REMARK    3  A    between atoms: C_8  and  N_16
REMARK    4  A    between atoms: C_9  and  O_10
REMARK    5  A    between atoms: C_9  and  C_11
REMARK    6  A    between atoms: C_11  and  C_12
REMARK    7  A    between atoms: C_12  and  O_14
REMARK    8  A    between atoms: O_14  and  C_15
REMARK    9  A    between atoms: C_17  and  C_19
REMARK   10  A    between atoms: C_20  and  C_21
REMARK                            x       y       z     vdW  Elec       q    Type
REMARK                         _______ _______ _______ _____ _____    ______ ____
ROOT
ATOM      1  C   UNL     1      86.240  55.763  44.390  0.00  0.00    +0.096 C 
ATOM      2  C   UNL     1      85.968  56.156  45.858  0.00  0.00    +0.035 C 
ATOM      3  C   UNL     1      85.590  54.955  46.672  0.00  0.00    +0.138 C 
ATOM      4  O   UNL     1      86.088  54.772  47.772  0.00  0.00    -0.297 OA
ATOM      5  C   UNL     1      84.532  54.026  46.157  0.00  0.00    +0.027 C 
ATOM      6  C   UNL     1      84.806  53.653  44.689  0.00  0.00    +0.062 C 
ATOM      7  C   UNL     1      85.048  54.921  43.802  0.00  0.00    +0.121 C 
ENDROOT
BRANCH   6   8
ATOM      8  N   UNL     1      85.935  52.713  44.623  0.00  0.00    -0.306 N 
ATOM      9  C   UNL     1      85.808  51.362  44.152  0.00  0.00    +0.237 C 
ATOM     10  O   UNL     1      84.679  50.911  43.816  0.00  0.00    -0.271 OA
ATOM     11  H   UNL     1      86.823  53.025  44.915  0.00  0.00    +0.000 HD
BRANCH   9  12
ATOM     12  C   UNL     1      87.008  50.509  44.058  0.00  0.00    +0.001 C 
ATOM     13  C   UNL     1      87.255  49.737  42.989  0.00  0.00    -0.050 C 
BRANCH  13  14
ATOM     14  C   UNL     1      88.445  48.860  42.867  0.00  0.00    -0.025 A 
ATOM     15  C   UNL     1      88.303  47.616  42.226  0.00  0.00    -0.055 A 
ATOM     16  C   UNL     1      89.401  46.763  42.080  0.00  0.00    -0.061 A 
ATOM     17  C   UNL     1      90.654  47.145  42.562  0.00  0.00    -0.062 A 
ATOM     18  C   UNL     1      90.814  48.385  43.185  0.00  0.00    -0.061 A 
ATOM     19  C   UNL     1      89.719  49.242  43.335  0.00  0.00    -0.055 A 
ENDBRANCH  13  14
ENDBRANCH   9  12
ENDBRANCH   6   8
BRANCH   1  21
ATOM     20  C   UNL     1      86.038  58.089  44.369  0.00  0.00    +0.037 C 
ATOM     21  O   UNL     1      86.421  56.949  43.629  0.00  0.00    -0.376 OA
ENDBRANCH   1  21
BRANCH   7  22
ATOM     22  O   UNL     1      83.848  55.668  43.823  0.00  0.00    -0.384 OA
ATOM     23  H   UNL     1      84.045  56.591  44.044  0.00  0.00    +0.000 HD
ENDBRANCH   7  22
BRANCH   7  24
ATOM     24  C   UNL     1      85.343  54.455  42.343  0.00  0.00    +0.078 C 
BRANCH  24  25
ATOM     25  C   UNL     1      84.369  54.960  41.319  0.00  0.00    +0.310 C 
ATOM     26  O   UNL     1      84.746  55.789  40.447  0.00  0.00    -0.251 OA
BRANCH  25  27
ATOM     27  O   UNL     1      83.044  54.514  41.349  0.00  0.00    -0.468 OA
ATOM     28  C   UNL     1      82.701  53.140  41.477  0.00  0.00    +0.082 C 
ENDBRANCH  25  27
ENDBRANCH  24  25
ENDBRANCH   7  24
TORSDOF 8
ENDMDL
MODEL 6
REMARK VINA RESULT:    -7.252      1.674      2.548
REMARK INTER + INTRA:         -11.578
REMARK INTER:                 -10.489
REMARK INTRA:                  -1.089
REMARK UNBOUND:                -1.147
REMARK  Name = 
REMARK  10 active torsions:
REMARK  status: ('A' for Active; 'I' for Inactive)
REMARK    1  A    between atoms: C_1  and  O_2
REMARK    2  A    between atoms: O_2  and  C_3
REMARK    3  A    between atoms: C_8  and  N_16
REMARK    4  A    between atoms: C_9  and  O_10
REMARK    5  A    between atoms: C_9  and  C_11
REMARK    6  A    between atoms: C_11  and  C_12
REMARK    7  A    between atoms: C_12  and  O_14
REMARK    8  A    between atoms: O_14  and  C_15
REMARK    9  A    between atoms: C_17  and  C_19
REMARK   10  A    between atoms: C_20  and  C_21
REMARK                            x       y       z     vdW  Elec       q    Type
REMARK                         _______ _______ _______ _____ _____    ______ ____
ROOT
ATOM      1  C   UNL     1      85.878  53.090  41.013  0.00  0.00    +0.096 C 
ATOM      2  C   UNL     1      87.083  52.431  40.308  0.00  0.00    +0.035 C 
ATOM      3  C   UNL     1      87.580  51.250  41.088  0.00  0.00    +0.138 C 
ATOM      4  O   UNL     1      87.843  50.201  40.521  0.00  0.00    -0.297 OA
ATOM      5  C   UNL     1      87.829  51.398  42.559  0.00  0.00    +0.027 C 
ATOM      6  C   UNL     1      86.627  52.068  43.248  0.00  0.00    +0.062 C 
ATOM      7  C   UNL     1      86.204  53.390  42.523  0.00  0.00    +0.121 C 
ENDROOT
BRANCH   6   8
ATOM      8  N   UNL     1      85.514  51.111  43.337  0.00  0.00    -0.306 N 
ATOM      9  C   UNL     1      85.512  49.989  44.234  0.00  0.00    +0.237 C 
ATOM     10  O   UNL     1      86.515  49.755  44.961  0.00  0.00    -0.271 OA
ATOM     11  H   UNL     1      84.732  51.244  42.753  0.00  0.00    +0.000 HD
BRANCH   9  12
ATOM     12  C   UNL     1      84.323  49.116  44.303  0.00  0.00    +0.001 C 
ATOM     13  C   UNL     1      83.184  49.407  43.658  0.00  0.00    -0.050 C 
BRANCH  13  14
ATOM     14  C   UNL     1      81.968  48.559  43.716  0.00  0.00    -0.025 A 
ATOM     15  C   UNL     1      82.113  47.164  43.610  0.00  0.00    -0.055 A 
ATOM     16  C   UNL     1      80.994  46.329  43.669  0.00  0.00    -0.061 A 
ATOM     17  C   UNL     1      79.721  46.872  43.845  0.00  0.00    -0.062 A 
ATOM     18  C   UNL     1      79.563  48.255  43.969  0.00  0.00    -0.061 A 
ATOM     19  C   UNL     1      80.678  49.097  43.909  0.00  0.00    -0.055 A 
ENDBRANCH  13  14
ENDBRANCH   9  12
ENDBRANCH   6   8
BRANCH   1  21
ATOM     20  C   UNL     1      84.242  54.255  39.824  0.00  0.00    +0.037 C 
ATOM     21  O   UNL     1      85.558  54.296  40.334  0.00  0.00    -0.376 OA
ENDBRANCH   1  21
BRANCH   7  22
ATOM     22  O   UNL     1      87.295  54.282  42.633  0.00  0.00    -0.384 OA
ATOM     23  H   UNL     1      87.254  54.739  43.487  0.00  0.00    +0.000 HD
ENDBRANCH   7  22
BRANCH   7  24
ATOM     24  C   UNL     1      84.969  53.988  43.266  0.00  0.00    +0.078 C 
BRANCH  24  25
ATOM     25  C   UNL     1      85.145  55.405  43.729  0.00  0.00    +0.310 C 
ATOM     26  O   UNL     1      85.231  56.337  42.883  0.00  0.00    -0.251 OA
BRANCH  25  27
ATOM     27  O   UNL     1      85.227  55.677  45.097  0.00  0.00    -0.468 OA
ATOM     28  C   UNL     1      86.355  55.318  45.884  0.00  0.00    +0.082 C 
ENDBRANCH  25  27
ENDBRANCH  24  25
ENDBRANCH   7  24
TORSDOF 8
ENDMDL
MODEL 7
REMARK VINA RESULT:    -7.206      3.540      5.412
REMARK INTER + INTRA:         -11.512
REMARK INTER:                 -10.567
REMARK INTRA:                  -0.945
REMARK UNBOUND:                -1.147
REMARK  Name = 
REMARK  10 active torsions:
REMARK  status: ('A' for Active; 'I' for Inactive)
REMARK    1  A    between atoms: C_1  and  O_2
REMARK    2  A    between atoms: O_2  and  C_3
REMARK    3  A    between atoms: C_8  and  N_16
REMARK    4  A    between atoms: C_9  and  O_10
REMARK    5  A    between atoms: C_9  and  C_11
REMARK    6  A    between atoms: C_11  and  C_12
REMARK    7  A    between atoms: C_12  and  O_14
REMARK    8  A    between atoms: O_14  and  C_15
REMARK    9  A    between atoms: C_17  and  C_19
REMARK   10  A    between atoms: C_20  and  C_21
REMARK                            x       y       z     vdW  Elec       q    Type
REMARK                         _______ _______ _______ _____ _____    ______ ____
ROOT
ATOM      1  C   UNL     1      86.228  52.489  41.079  0.00  0.00    +0.096 C 
ATOM      2  C   UNL     1      87.041  52.919  39.840  0.00  0.00    +0.035 C 
ATOM      3  C   UNL     1      88.405  52.294  39.850  0.00  0.00    +0.138 C 
ATOM      4  O   UNL     1      88.859  51.786  38.837  0.00  0.00    -0.297 OA
ATOM      5  C   UNL     1      89.236  52.373  41.095  0.00  0.00    +0.027 C 
ATOM      6  C   UNL     1      88.411  51.956  42.326  0.00  0.00    +0.062 C 
ATOM      7  C   UNL     1      87.048  52.726  42.401  0.00  0.00    +0.121 C 
ENDROOT
BRANCH   6   8
ATOM      8  N   UNL     1      88.217  50.498  42.317  0.00  0.00    -0.306 N 
ATOM      9  C   UNL     1      89.304  49.561  42.265  0.00  0.00    +0.237 C 
ATOM     10  O   UNL     1      90.493  49.972  42.174  0.00  0.00    -0.271 OA
ATOM     11  H   UNL     1      87.297  50.147  42.347  0.00  0.00    +0.000 HD
BRANCH   9  12
ATOM     12  C   UNL     1      89.019  48.114  42.326  0.00  0.00    +0.001 C 
ATOM     13  C   UNL     1      87.769  47.632  42.379  0.00  0.00    -0.050 C 
BRANCH  13  14
ATOM     14  C   UNL     1      87.447  46.186  42.453  0.00  0.00    -0.025 A 
ATOM     15  C   UNL     1      86.097  45.795  42.464  0.00  0.00    -0.055 A 
ATOM     16  C   UNL     1      85.750  44.442  42.523  0.00  0.00    -0.061 A 
ATOM     17  C   UNL     1      86.745  43.464  42.560  0.00  0.00    -0.062 A 
ATOM     18  C   UNL     1      88.092  43.837  42.532  0.00  0.00    -0.061 A 
ATOM     19  C   UNL     1      88.445  45.189  42.475  0.00  0.00    -0.055 A 
ENDBRANCH  13  14
ENDBRANCH   9  12
ENDBRANCH   6   8
BRANCH   1  21
ATOM     20  C   UNL     1      84.847  53.972  39.920  0.00  0.00    +0.037 C 
ATOM     21  O   UNL     1      85.022  53.239  41.114  0.00  0.00    -0.376 OA
ENDBRANCH   1  21
BRANCH   7  22
ATOM     22  O   UNL     1      87.363  54.095  42.558  0.00  0.00    -0.384 OA
ATOM     23  H   UNL     1      87.883  54.397  41.797  0.00  0.00    +0.000 HD
ENDBRANCH   7  22
BRANCH   7  24
ATOM     24  C   UNL     1      86.267  52.227  43.656  0.00  0.00    +0.078 C 
BRANCH  24  25
ATOM     25  C   UNL     1      86.728  52.822  44.954  0.00  0.00    +0.310 C 
ATOM     26  O   UNL     1      86.390  53.998  45.262  0.00  0.00    -0.251 OA
BRANCH  25  27
ATOM     27  O   UNL     1      87.540  52.070  45.807  0.00  0.00    -0.468 OA
ATOM     28  C   UNL     1      87.480  50.651  45.868  0.00  0.00    +0.082 C 
ENDBRANCH  25  27
ENDBRANCH  24  25
ENDBRANCH   7  24
TORSDOF 8
ENDMDL
MODEL 8
REMARK VINA RESULT:    -7.161      2.755      6.828
REMARK INTER + INTRA:         -11.448
REMARK INTER:                 -10.407
REMARK INTRA:                  -1.041
REMARK UNBOUND:                -1.147
REMARK  Name = 
REMARK  10 active torsions:
REMARK  status: ('A' for Active; 'I' for Inactive)
REMARK    1  A    between atoms: C_1  and  O_2
REMARK    2  A    between atoms: O_2  and  C_3
REMARK    3  A    between atoms: C_8  and  N_16
REMARK    4  A    between atoms: C_9  and  O_10
REMARK    5  A    between atoms: C_9  and  C_11
REMARK    6  A    between atoms: C_11  and  C_12
REMARK    7  A    between atoms: C_12  and  O_14
REMARK    8  A    between atoms: O_14  and  C_15
REMARK    9  A    between atoms: C_17  and  C_19
REMARK   10  A    between atoms: C_20  and  C_21
REMARK                            x       y       z     vdW  Elec       q    Type
REMARK                         _______ _______ _______ _____ _____    ______ ____
ROOT
ATOM      1  C   UNL     1      89.054  50.172  42.684  0.00  0.00    +0.096 C 
ATOM      2  C   UNL     1      90.060  50.714  41.646  0.00  0.00    +0.035 C 
ATOM      3  C   UNL     1      89.455  51.826  40.843  0.00  0.00    +0.138 C 
ATOM      4  O   UNL     1      90.086  52.851  40.633  0.00  0.00    -0.297 OA
ATOM      5  C   UNL     1      88.100  51.633  40.231  0.00  0.00    +0.027 C 
ATOM      6  C   UNL     1      87.110  51.079  41.271  0.00  0.00    +0.062 C 
ATOM      7  C   UNL     1      87.680  49.818  42.004  0.00  0.00    +0.121 C 
ENDROOT
BRANCH   6   8
ATOM      8  N   UNL     1      86.743  52.144  42.217  0.00  0.00    -0.306 N 
ATOM      9  C   UNL     1      85.457  52.784  42.221  0.00  0.00    +0.237 C 
ATOM     10  O   UNL     1      84.592  52.477  41.356  0.00  0.00    -0.271 OA
ATOM     11  H   UNL     1      87.411  52.434  42.880  0.00  0.00    +0.000 HD
BRANCH   9  12
ATOM     12  C   UNL     1      85.153  53.798  43.249  0.00  0.00    +0.001 C 
ATOM     13  C   UNL     1      85.587  55.064  43.157  0.00  0.00    -0.050 C 
BRANCH  13  14
ATOM     14  C   UNL     1      85.310  56.105  44.176  0.00  0.00    -0.025 A 
ATOM     15  C   UNL     1      85.573  57.449  43.857  0.00  0.00    -0.055 A 
ATOM     16  C   UNL     1      85.317  58.462  44.786  0.00  0.00    -0.061 A 
ATOM     17  C   UNL     1      84.786  58.148  46.038  0.00  0.00    -0.062 A 
ATOM     18  C   UNL     1      84.504  56.818  46.363  0.00  0.00    -0.061 A 
ATOM     19  C   UNL     1      84.759  55.800  45.439  0.00  0.00    -0.055 A 
ENDBRANCH  13  14
ENDBRANCH   9  12
ENDBRANCH   6   8
BRANCH   1  21
ATOM     20  C   UNL     1      90.868  48.704  42.737  0.00  0.00    +0.037 C 
ATOM     21  O   UNL     1      89.608  49.015  43.293  0.00  0.00    -0.376 OA
ENDBRANCH   1  21
BRANCH   7  22
ATOM     22  O   UNL     1      87.850  48.818  41.020  0.00  0.00    -0.384 OA
ATOM     23  H   UNL     1      88.213  49.215  40.214  0.00  0.00    +0.000 HD
ENDBRANCH   7  22
BRANCH   7  24
ATOM     24  C   UNL     1      86.630  49.339  43.054  0.00  0.00    +0.078 C 
BRANCH  24  25
ATOM     25  C   UNL     1      86.272  47.885  42.960  0.00  0.00    +0.310 C 
ATOM     26  O   UNL     1      87.185  47.015  42.905  0.00  0.00    -0.251 OA
BRANCH  25  27
ATOM     27  O   UNL     1      84.927  47.507  42.919  0.00  0.00    -0.468 OA
ATOM     28  C   UNL     1      83.901  48.261  43.551  0.00  0.00    +0.082 C 
ENDBRANCH  25  27
ENDBRANCH  24  25
ENDBRANCH   7  24
TORSDOF 8
ENDMDL
MODEL 9
REMARK VINA RESULT:    -7.123      2.830      5.327
REMARK INTER + INTRA:         -11.392
REMARK INTER:                 -10.245
REMARK INTRA:                  -1.147
REMARK UNBOUND:                -1.147
REMARK  Name = 
REMARK  10 active torsions:
REMARK  status: ('A' for Active; 'I' for Inactive)
REMARK    1  A    between atoms: C_1  and  O_2
REMARK    2  A    between atoms: O_2  and  C_3
REMARK    3  A    between atoms: C_8  and  N_16
REMARK    4  A    between atoms: C_9  and  O_10
REMARK    5  A    between atoms: C_9  and  C_11
REMARK    6  A    between atoms: C_11  and  C_12
REMARK    7  A    between atoms: C_12  and  O_14
REMARK    8  A    between atoms: O_14  and  C_15
REMARK    9  A    between atoms: C_17  and  C_19
REMARK   10  A    between atoms: C_20  and  C_21
REMARK                            x       y       z     vdW  Elec       q    Type
REMARK                         _______ _______ _______ _____ _____    ______ ____
ROOT
ATOM      1  C   UNL     1      84.692  54.961  46.259  0.00  0.00    +0.096 C 
ATOM      2  C   UNL     1      84.593  56.138  45.265  0.00  0.00    +0.035 C 
ATOM      3  C   UNL     1      84.494  55.640  43.854  0.00  0.00    +0.138 C 
ATOM      4  O   UNL     1      83.674  56.119  43.086  0.00  0.00    -0.297 OA
ATOM      5  C   UNL     1      85.470  54.609  43.373  0.00  0.00    +0.027 C 
ATOM      6  C   UNL     1      85.571  53.448  44.378  0.00  0.00    +0.062 C 
ATOM      7  C   UNL     1      85.830  53.961  45.835  0.00  0.00    +0.121 C 
ENDROOT
BRANCH   6   8
ATOM      8  N   UNL     1      84.358  52.619  44.296  0.00  0.00    -0.306 N 
ATOM      9  C   UNL     1      84.224  51.509  43.394  0.00  0.00    +0.237 C 
ATOM     10  O   UNL     1      85.152  51.232  42.586  0.00  0.00    -0.271 OA
ATOM     11  H   UNL     1      83.601  52.835  44.888  0.00  0.00    +0.000 HD
BRANCH   9  12
ATOM     12  C   UNL     1      82.996  50.691  43.426  0.00  0.00    +0.001 C 
ATOM     13  C   UNL     1      83.008  49.394  43.766  0.00  0.00    -0.050 C 
BRANCH  13  14
ATOM     14  C   UNL     1      81.796  48.541  43.797  0.00  0.00    -0.025 A 
ATOM     15  C   UNL     1      81.947  47.149  43.674  0.00  0.00    -0.055 A 
ATOM     16  C   UNL     1      80.831  46.307  43.709  0.00  0.00    -0.061 A 
ATOM     17  C   UNL     1      79.553  46.844  43.876  0.00  0.00    -0.062 A 
ATOM     18  C   UNL     1      79.389  48.224  44.017  0.00  0.00    -0.061 A 
ATOM     19  C   UNL     1      80.501  49.071  43.982  0.00  0.00    -0.055 A 
ENDBRANCH  13  14
ENDBRANCH   9  12
ENDBRANCH   6   8
BRANCH   1  21
ATOM     20  C   UNL     1      83.934  55.128  48.460  0.00  0.00    +0.037 C 
ATOM     21  O   UNL     1      84.958  55.481  47.554  0.00  0.00    -0.376 OA
ENDBRANCH   1  21
BRANCH   7  22
ATOM     22  O   UNL     1      87.087  54.607  45.821  0.00  0.00    -0.384 OA
ATOM     23  H   UNL     1      87.327  54.868  46.724  0.00  0.00    +0.000 HD
ENDBRANCH   7  22
BRANCH   7  24
ATOM     24  C   UNL     1      85.892  52.728  46.790  0.00  0.00    +0.078 C 
BRANCH  24  25
ATOM     25  C   UNL     1      86.669  51.562  46.252  0.00  0.00    +0.310 C 
ATOM     26  O   UNL     1      87.905  51.678  46.030  0.00  0.00    -0.251 OA
BRANCH  25  27
ATOM     27  O   UNL     1      86.010  50.358  45.988  0.00  0.00    -0.468 OA
ATOM     28  C   UNL     1      86.600  49.312  45.227  0.00  0.00    +0.082 C 
ENDBRANCH  25  27
ENDBRANCH  24  25
ENDBRANCH   7  24
TORSDOF 8
ENDMDL
