MODEL 1
REMARK VINA RESULT:    -8.223      0.000      0.000
REMARK INTER + INTRA:          -9.979
REMARK INTER:                  -9.638
REMARK INTRA:                  -0.341
REMARK UNBOUND:                -0.314
REMARK  Name = 
REMARK  4 active torsions:
REMARK  status: ('A' for Active; 'I' for Inactive)
REMARK    1  A    between atoms: O_1  and  C_2
REMARK    2  A    between atoms: C_5  and  O_22
REMARK    3  A    between atoms: C_9  and  C_11
REMARK    4  A    between atoms: C_12  and  C_13
REMARK                            x       y       z     vdW  Elec       q    Type
REMARK                         _______ _______ _______ _____ _____    ______ ____
ROOT
ATOM      1  C   UNL     1      84.536  54.704  40.030  0.00  0.00    +0.075 C 
ATOM      2  C   UNL     1      83.545  55.311  41.038  0.00  0.00    -0.057 C 
ATOM      3  C   UNL     1      83.475  54.923  42.329  0.00  0.00    -0.052 C 
ATOM      4  C   UNL     1      84.286  53.737  42.775  0.00  0.00    +0.111 C 
ATOM      5  C   UNL     1      85.668  53.853  42.121  0.00  0.00    +0.069 C 
ATOM      6  C   UNL     1      85.536  53.649  40.611  0.00  0.00    -0.001 C 
ATOM      7  N   UNL     1      86.490  52.901  42.851  0.00  0.00    -0.232 N 
ATOM      8  C   UNL     1      87.867  52.618  42.553  0.00  0.00    +0.246 C 
ATOM      9  O   UNL     1      88.564  53.482  41.958  0.00  0.00    -0.270 OA
ATOM     10  C   UNL     1      85.938  52.886  44.170  0.00  0.00    +0.225 C 
ATOM     11  O   UNL     1      86.529  52.383  45.162  0.00  0.00    -0.275 OA
ATOM     12  C   UNL     1      84.634  53.609  44.264  0.00  0.00    +0.059 C 
ENDROOT
BRANCH   1  13
ATOM     13  O   UNL     1      83.844  54.171  38.933  0.00  0.00    -0.388 OA
ATOM     14  H   UNL     1      83.171  53.546  39.248  0.00  0.00    +0.000 HD
ENDBRANCH   1  13
BRANCH   8  15
ATOM     15  C   UNL     1      88.491  51.334  42.921  0.00  0.00    +0.001 C 
ATOM     16  C   UNL     1      88.764  50.382  42.015  0.00  0.00    -0.050 C 
BRANCH  16  17
ATOM     17  C   UNL     1      89.390  49.079  42.348  0.00  0.00    -0.025 A 
ATOM     18  C   UNL     1      90.446  49.059  43.275  0.00  0.00    -0.055 A 
ATOM     19  C   UNL     1      91.063  47.854  43.625  0.00  0.00    -0.061 A 
ATOM     20  C   UNL     1      90.626  46.654  43.062  0.00  0.00    -0.062 A 
ATOM     21  C   UNL     1      89.567  46.656  42.152  0.00  0.00    -0.061 A 
ATOM     22  C   UNL     1      88.946  47.858  41.796  0.00  0.00    -0.055 A 
ENDBRANCH  16  17
ENDBRANCH   8  15
BRANCH   4  23
ATOM     23  O   UNL     1      83.648  52.552  42.351  0.00  0.00    -0.382 OA
ATOM     24  H   UNL     1      82.754  52.760  42.037  0.00  0.00    +0.000 HD
ENDBRANCH   4  23
TORSDOF 4
ENDMDL
MODEL 2
REMARK VINA RESULT:    -8.153      2.480      4.545
REMARK INTER + INTRA:          -9.896
REMARK INTER:                  -9.500
REMARK INTRA:                  -0.396
REMARK UNBOUND:                -0.314
REMARK  Name = 
REMARK  4 active torsions:
REMARK  status: ('A' for Active; 'I' for Inactive)
REMARK    1  A    between atoms: O_1  and  C_2
REMARK    2  A    between atoms: C_5  and  O_22
REMARK    3  A    between atoms: C_9  and  C_11
REMARK    4  A    between atoms: C_12  and  C_13
REMARK                            x       y       z     vdW  Elec       q    Type
REMARK                         _______ _______ _______ _____ _____    ______ ____
ROOT
ATOM      1  C   UNL     1      83.866  54.454  47.923  0.00  0.00    +0.075 C 
ATOM      2  C   UNL     1      84.047  55.966  47.708  0.00  0.00    -0.057 C 
ATOM      3  C   UNL     1      84.824  56.485  46.734  0.00  0.00    -0.052 C 
ATOM      4  C   UNL     1      85.679  55.556  45.916  0.00  0.00    +0.111 C 
ATOM      5  C   UNL     1      84.837  54.317  45.595  0.00  0.00    +0.069 C 
ATOM      6  C   UNL     1      84.579  53.529  46.880  0.00  0.00    -0.001 C 
ATOM      7  N   UNL     1      85.577  53.644  44.540  0.00  0.00    -0.232 N 
ATOM      8  C   UNL     1      85.195  52.392  43.949  0.00  0.00    +0.246 C 
ATOM      9  O   UNL     1      83.988  52.033  43.978  0.00  0.00    -0.270 OA
ATOM     10  C   UNL     1      86.226  54.700  43.826  0.00  0.00    +0.225 C 
ATOM     11  O   UNL     1      86.752  54.548  42.692  0.00  0.00    -0.275 OA
ATOM     12  C   UNL     1      86.134  56.018  44.524  0.00  0.00    +0.059 C 
ENDROOT
BRANCH   1  13
ATOM     13  O   UNL     1      84.242  54.103  49.227  0.00  0.00    -0.388 OA
ATOM     14  H   UNL     1      85.022  53.525  49.194  0.00  0.00    +0.000 HD
ENDBRANCH   1  13
BRANCH   8  15
ATOM     15  C   UNL     1      86.184  51.503  43.309  0.00  0.00    +0.001 C 
ATOM     16  C   UNL     1      87.378  51.243  43.861  0.00  0.00    -0.050 C 
BRANCH  16  17
ATOM     17  C   UNL     1      88.398  50.356  43.248  0.00  0.00    -0.025 A 
ATOM     18  C   UNL     1      88.813  50.622  41.932  0.00  0.00    -0.055 A 
ATOM     19  C   UNL     1      89.776  49.818  41.314  0.00  0.00    -0.061 A 
ATOM     20  C   UNL     1      90.343  48.747  42.006  0.00  0.00    -0.062 A 
ATOM     21  C   UNL     1      89.951  48.480  43.320  0.00  0.00    -0.061 A 
ATOM     22  C   UNL     1      88.988  49.280  43.944  0.00  0.00    -0.055 A 
ENDBRANCH  16  17
ENDBRANCH   8  15
BRANCH   4  23
ATOM     23  O   UNL     1      86.815  55.188  46.669  0.00  0.00    -0.382 OA
ATOM     24  H   UNL     1      86.748  54.254  46.920  0.00  0.00    +0.000 HD
ENDBRANCH   4  23
TORSDOF 4
ENDMDL
MODEL 3
REMARK VINA RESULT:    -7.981      3.988      7.323
REMARK INTER + INTRA:          -9.694
REMARK INTER:                  -9.325
REMARK INTRA:                  -0.369
REMARK UNBOUND:                -0.314
REMARK  Name = 
REMARK  4 active torsions:
REMARK  status: ('A' for Active; 'I' for Inactive)
REMARK    1  A    between atoms: O_1  and  C_2
REMARK    2  A    between atoms: C_5  and  O_22
REMARK    3  A    between atoms: C_9  and  C_11
REMARK    4  A    between atoms: C_12  and  C_13
REMARK                            x       y       z     vdW  Elec       q    Type
REMARK                         _______ _______ _______ _____ _____    ______ ____
ROOT
ATOM      1  C   UNL     1      89.705  47.565  42.812  0.00  0.00    +0.075 C 
ATOM      2  C   UNL     1      90.577  48.684  42.220  0.00  0.00    -0.057 C 
ATOM      3  C   UNL     1      90.106  49.919  41.946  0.00  0.00    -0.052 C 
ATOM      4  C   UNL     1      88.630  50.178  42.073  0.00  0.00    +0.111 C 
ATOM      5  C   UNL     1      88.149  49.480  43.351  0.00  0.00    +0.069 C 
ATOM      6  C   UNL     1      88.233  47.964  43.165  0.00  0.00    -0.001 C 
ATOM      7  N   UNL     1      86.833  50.048  43.595  0.00  0.00    -0.232 N 
ATOM      8  C   UNL     1      85.962  49.654  44.668  0.00  0.00    +0.246 C 
ATOM      9  O   UNL     1      86.452  49.138  45.708  0.00  0.00    -0.270 OA
ATOM     10  C   UNL     1      86.914  51.379  43.080  0.00  0.00    +0.225 C 
ATOM     11  O   UNL     1      86.064  52.273  43.335  0.00  0.00    -0.275 OA
ATOM     12  C   UNL     1      88.157  51.623  42.287  0.00  0.00    +0.059 C 
ENDROOT
BRANCH   1  13
ATOM     13  O   UNL     1      89.719  46.444  41.969  0.00  0.00    -0.388 OA
ATOM     14  H   UNL     1      88.858  45.997  42.011  0.00  0.00    +0.000 HD
ENDBRANCH   1  13
BRANCH   8  15
ATOM     15  C   UNL     1      84.501  49.831  44.585  0.00  0.00    +0.001 C 
ATOM     16  C   UNL     1      83.707  48.963  43.939  0.00  0.00    -0.050 C 
BRANCH  16  17
ATOM     17  C   UNL     1      82.234  49.109  43.834  0.00  0.00    -0.025 A 
ATOM     18  C   UNL     1      81.717  50.252  43.201  0.00  0.00    -0.055 A 
ATOM     19  C   UNL     1      80.336  50.430  43.072  0.00  0.00    -0.061 A 
ATOM     20  C   UNL     1      79.457  49.464  43.564  0.00  0.00    -0.062 A 
ATOM     21  C   UNL     1      79.956  48.315  44.181  0.00  0.00    -0.061 A 
ATOM     22  C   UNL     1      81.337  48.132  44.314  0.00  0.00    -0.055 A 
ENDBRANCH  16  17
ENDBRANCH   8  15
BRANCH   4  23
ATOM     23  O   UNL     1      87.965  49.642  40.949  0.00  0.00    -0.382 OA
ATOM     24  H   UNL     1      87.018  49.843  41.006  0.00  0.00    +0.000 HD
ENDBRANCH   4  23
TORSDOF 4
ENDMDL
MODEL 4
REMARK VINA RESULT:    -7.617      3.013      7.514
REMARK INTER + INTRA:          -9.267
REMARK INTER:                  -8.952
REMARK INTRA:                  -0.315
REMARK UNBOUND:                -0.314
REMARK  Name = 
REMARK  4 active torsions:
REMARK  status: ('A' for Active; 'I' for Inactive)
REMARK    1  A    between atoms: O_1  and  C_2
REMARK    2  A    between atoms: C_5  and  O_22
REMARK    3  A    between atoms: C_9  and  C_11
REMARK    4  A    between atoms: C_12  and  C_13
REMARK                            x       y       z     vdW  Elec       q    Type
REMARK                         _______ _______ _______ _____ _____    ______ ____
ROOT
ATOM      1  C   UNL     1      87.232  46.539  43.191  0.00  0.00    +0.075 C 
ATOM      2  C   UNL     1      88.335  46.352  42.136  0.00  0.00    -0.057 C 
ATOM      3  C   UNL     1      88.926  47.383  41.495  0.00  0.00    -0.052 C 
ATOM      4  C   UNL     1      88.382  48.770  41.698  0.00  0.00    +0.111 C 
ATOM      5  C   UNL     1      88.061  48.925  43.189  0.00  0.00    +0.069 C 
ATOM      6  C   UNL     1      86.881  48.021  43.552  0.00  0.00    -0.001 C 
ATOM      7  N   UNL     1      87.881  50.357  43.370  0.00  0.00    -0.232 N 
ATOM      8  C   UNL     1      87.508  50.980  44.610  0.00  0.00    +0.246 C 
ATOM      9  O   UNL     1      87.756  50.397  45.698  0.00  0.00    -0.270 OA
ATOM     10  C   UNL     1      88.751  50.953  42.405  0.00  0.00    +0.225 C 
ATOM     11  O   UNL     1      89.073  52.171  42.422  0.00  0.00    -0.275 OA
ATOM     12  C   UNL     1      89.310  49.964  41.434  0.00  0.00    +0.059 C 
ENDROOT
BRANCH   1  13
ATOM     13  O   UNL     1      86.076  45.840  42.812  0.00  0.00    -0.388 OA
ATOM     14  H   UNL     1      85.606  45.539  43.606  0.00  0.00    +0.000 HD
ENDBRANCH   1  13
BRANCH   8  15
ATOM     15  C   UNL     1      86.834  52.291  44.645  0.00  0.00    +0.001 C 
ATOM     16  C   UNL     1      86.820  53.062  45.743  0.00  0.00    -0.050 C 
BRANCH  16  17
ATOM     17  C   UNL     1      86.152  54.385  45.816  0.00  0.00    -0.025 A 
ATOM     18  C   UNL     1      85.244  54.736  44.802  0.00  0.00    -0.055 A 
ATOM     19  C   UNL     1      84.585  55.968  44.831  0.00  0.00    -0.061 A 
ATOM     20  C   UNL     1      84.816  56.861  45.879  0.00  0.00    -0.062 A 
ATOM     21  C   UNL     1      85.703  56.520  46.903  0.00  0.00    -0.061 A 
ATOM     22  C   UNL     1      86.367  55.288  46.878  0.00  0.00    -0.055 A 
ENDBRANCH  16  17
ENDBRANCH   8  15
BRANCH   4  23
ATOM     23  O   UNL     1      87.208  48.926  40.930  0.00  0.00    -0.382 OA
ATOM     24  H   UNL     1      86.470  48.477  41.372  0.00  0.00    +0.000 HD
ENDBRANCH   4  23
TORSDOF 4
ENDMDL
MODEL 5
REMARK VINA RESULT:    -7.492      2.731      7.135
REMARK INTER + INTRA:          -9.119
REMARK INTER:                  -8.708
REMARK INTRA:                  -0.411
REMARK UNBOUND:                -0.314
REMARK  Name = 
REMARK  4 active torsions:
REMARK  status: ('A' for Active; 'I' for Inactive)
REMARK    1  A    between atoms: O_1  and  C_2
REMARK    2  A    between atoms: C_5  and  O_22
REMARK    3  A    between atoms: C_9  and  C_11
REMARK    4  A    between atoms: C_12  and  C_13
REMARK                            x       y       z     vdW  Elec       q    Type
REMARK                         _______ _______ _______ _____ _____    ______ ____
ROOT
ATOM      1  C   UNL     1      89.532  49.590  41.760  0.00  0.00    +0.075 C 
ATOM      2  C   UNL     1      88.801  48.276  42.080  0.00  0.00    -0.057 C 
ATOM      3  C   UNL     1      87.615  48.229  42.723  0.00  0.00    -0.052 C 
ATOM      4  C   UNL     1      87.049  49.499  43.295  0.00  0.00    +0.111 C 
ATOM      5  C   UNL     1      87.277  50.610  42.264  0.00  0.00    +0.069 C 
ATOM      6  C   UNL     1      88.774  50.903  42.153  0.00  0.00    -0.001 C 
ATOM      7  N   UNL     1      86.419  51.696  42.711  0.00  0.00    -0.232 N 
ATOM      8  C   UNL     1      86.338  52.983  42.078  0.00  0.00    +0.246 C 
ATOM      9  O   UNL     1      86.646  53.098  40.863  0.00  0.00    -0.270 OA
ATOM     10  C   UNL     1      85.313  51.044  43.342  0.00  0.00    +0.225 C 
ATOM     11  O   UNL     1      84.236  51.630  43.628  0.00  0.00    -0.275 OA
ATOM     12  C   UNL     1      85.536  49.580  43.540  0.00  0.00    +0.059 C 
ENDROOT
BRANCH   1  13
ATOM     13  O   UNL     1      90.816  49.580  42.324  0.00  0.00    -0.388 OA
ATOM     14  H   UNL     1      91.378  50.220  41.859  0.00  0.00    +0.000 HD
ENDBRANCH   1  13
BRANCH   8  15
ATOM     15  C   UNL     1      85.907  54.184  42.818  0.00  0.00    +0.001 C 
ATOM     16  C   UNL     1      86.517  54.594  43.940  0.00  0.00    -0.050 C 
BRANCH  16  17
ATOM     17  C   UNL     1      86.111  55.795  44.711  0.00  0.00    -0.025 A 
ATOM     18  C   UNL     1      86.019  55.696  46.110  0.00  0.00    -0.055 A 
ATOM     19  C   UNL     1      85.648  56.802  46.879  0.00  0.00    -0.061 A 
ATOM     20  C   UNL     1      85.375  58.024  46.262  0.00  0.00    -0.062 A 
ATOM     21  C   UNL     1      85.477  58.143  44.874  0.00  0.00    -0.061 A 
ATOM     22  C   UNL     1      85.848  57.039  44.099  0.00  0.00    -0.055 A 
ENDBRANCH  16  17
ENDBRANCH   8  15
BRANCH   4  23
ATOM     23  O   UNL     1      87.723  49.808  44.497  0.00  0.00    -0.382 OA
ATOM     24  H   UNL     1      88.240  50.620  44.378  0.00  0.00    +0.000 HD
ENDBRANCH   4  23
TORSDOF 4
ENDMDL
MODEL 6
REMARK VINA RESULT:    -7.473      4.619      7.928
REMARK INTER + INTRA:          -9.098
REMARK INTER:                  -8.805
REMARK INTRA:                  -0.293
REMARK UNBOUND:                -0.314
REMARK  Name = 
REMARK  4 active torsions:
REMARK  status: ('A' for Active; 'I' for Inactive)
REMARK    1  A    between atoms: O_1  and  C_2
REMARK    2  A    between atoms: C_5  and  O_22
REMARK    3  A    between atoms: C_9  and  C_11
REMARK    4  A    between atoms: C_12  and  C_13
REMARK                            x       y       z     vdW  Elec       q    Type
REMARK                         _______ _______ _______ _____ _____    ______ ____
ROOT
ATOM      1  C   UNL     1      87.164  44.876  43.066  0.00  0.00    +0.075 C 
ATOM      2  C   UNL     1      85.938  44.076  42.595  0.00  0.00    -0.057 C 
ATOM      3  C   UNL     1      84.667  44.476  42.814  0.00  0.00    -0.052 C 
ATOM      4  C   UNL     1      84.425  45.673  43.693  0.00  0.00    +0.111 C 
ATOM      5  C   UNL     1      85.471  46.732  43.327  0.00  0.00    +0.069 C 
ATOM      6  C   UNL     1      86.857  46.248  43.755  0.00  0.00    -0.001 C 
ATOM      7  N   UNL     1      84.974  47.953  43.941  0.00  0.00    -0.232 N 
ATOM      8  C   UNL     1      85.659  49.216  43.912  0.00  0.00    +0.246 C 
ATOM      9  O   UNL     1      86.483  49.455  42.989  0.00  0.00    -0.270 OA
ATOM     10  C   UNL     1      83.551  47.815  43.917  0.00  0.00    +0.225 C 
ATOM     11  O   UNL     1      82.759  48.772  44.122  0.00  0.00    -0.275 OA
ATOM     12  C   UNL     1      83.106  46.441  43.532  0.00  0.00    +0.059 C 
ENDROOT
BRANCH   1  13
ATOM     13  O   UNL     1      87.970  44.081  43.895  0.00  0.00    -0.388 OA
ATOM     14  H   UNL     1      87.410  43.601  44.526  0.00  0.00    +0.000 HD
ENDBRANCH   1  13
BRANCH   8  15
ATOM     15  C   UNL     1      85.429  50.245  44.942  0.00  0.00    +0.001 C 
ATOM     16  C   UNL     1      86.409  51.044  45.391  0.00  0.00    -0.050 C 
BRANCH  16  17
ATOM     17  C   UNL     1      86.216  52.090  46.426  0.00  0.00    -0.025 A 
ATOM     18  C   UNL     1      86.212  53.437  46.025  0.00  0.00    -0.055 A 
ATOM     19  C   UNL     1      86.026  54.457  46.962  0.00  0.00    -0.061 A 
ATOM     20  C   UNL     1      85.832  54.144  48.309  0.00  0.00    -0.062 A 
ATOM     21  C   UNL     1      85.818  52.810  48.720  0.00  0.00    -0.061 A 
ATOM     22  C   UNL     1      86.004  51.784  47.786  0.00  0.00    -0.055 A 
ENDBRANCH  16  17
ENDBRANCH   8  15
BRANCH   4  23
ATOM     23  O   UNL     1      84.571  45.294  45.045  0.00  0.00    -0.382 OA
ATOM     24  H   UNL     1      83.702  45.080  45.417  0.00  0.00    +0.000 HD
ENDBRANCH   4  23
TORSDOF 4
ENDMDL
MODEL 7
REMARK VINA RESULT:    -7.417      3.809      7.526
REMARK INTER + INTRA:          -9.031
REMARK INTER:                  -8.685
REMARK INTRA:                  -0.346
REMARK UNBOUND:                -0.314
REMARK  Name = 
REMARK  4 active torsions:
REMARK  status: ('A' for Active; 'I' for Inactive)
REMARK    1  A    between atoms: O_1  and  C_2
REMARK    2  A    between atoms: C_5  and  O_22
REMARK    3  A    between atoms: C_9  and  C_11
REMARK    4  A    between atoms: C_12  and  C_13
REMARK                            x       y       z     vdW  Elec       q    Type
REMARK                         _______ _______ _______ _____ _____    ______ ____
ROOT
ATOM      1  C   UNL     1      84.823  47.918  43.923  0.00  0.00    +0.075 C 
ATOM      2  C   UNL     1      83.493  47.233  43.567  0.00  0.00    -0.057 C 
ATOM      3  C   UNL     1      82.352  47.916  43.330  0.00  0.00    -0.052 C 
ATOM      4  C   UNL     1      82.329  49.399  43.577  0.00  0.00    +0.111 C 
ATOM      5  C   UNL     1      83.647  49.974  43.045  0.00  0.00    +0.069 C 
ATOM      6  C   UNL     1      84.805  49.483  43.916  0.00  0.00    -0.001 C 
ATOM      7  N   UNL     1      83.417  51.409  42.993  0.00  0.00    -0.232 N 
ATOM      8  C   UNL     1      84.403  52.378  42.602  0.00  0.00    +0.246 C 
ATOM      9  O   UNL     1      85.358  52.028  41.859  0.00  0.00    -0.270 OA
ATOM     10  C   UNL     1      82.018  51.539  42.725  0.00  0.00    +0.225 C 
ATOM     11  O   UNL     1      81.482  52.616  42.353  0.00  0.00    -0.275 OA
ATOM     12  C   UNL     1      81.279  50.245  42.843  0.00  0.00    +0.059 C 
ENDROOT
BRANCH   1  13
ATOM     13  O   UNL     1      85.299  47.439  45.152  0.00  0.00    -0.388 OA
ATOM     14  H   UNL     1      84.591  47.487  45.814  0.00  0.00    +0.000 HD
ENDBRANCH   1  13
BRANCH   8  15
ATOM     15  C   UNL     1      84.332  53.780  43.054  0.00  0.00    +0.001 C 
ATOM     16  C   UNL     1      85.000  54.222  44.130  0.00  0.00    -0.050 C 
BRANCH  16  17
ATOM     17  C   UNL     1      84.953  55.624  44.614  0.00  0.00    -0.025 A 
ATOM     18  C   UNL     1      84.530  55.864  45.933  0.00  0.00    -0.055 A 
ATOM     19  C   UNL     1      84.476  57.167  46.436  0.00  0.00    -0.061 A 
ATOM     20  C   UNL     1      84.854  58.244  45.633  0.00  0.00    -0.062 A 
ATOM     21  C   UNL     1      85.292  58.020  44.327  0.00  0.00    -0.061 A 
ATOM     22  C   UNL     1      85.348  56.719  43.816  0.00  0.00    -0.055 A 
ENDBRANCH  16  17
ENDBRANCH   8  15
BRANCH   4  23
ATOM     23  O   UNL     1      82.221  49.638  44.964  0.00  0.00    -0.382 OA
ATOM     24  H   UNL     1      82.426  48.824  45.449  0.00  0.00    +0.000 HD
ENDBRANCH   4  23
TORSDOF 4
ENDMDL
MODEL 8
REMARK VINA RESULT:    -7.377      2.157      7.425
REMARK INTER + INTRA:          -8.984
REMARK INTER:                  -8.619
REMARK INTRA:                  -0.365
REMARK UNBOUND:                -0.314
REMARK  Name = 
REMARK  4 active torsions:
REMARK  status: ('A' for Active; 'I' for Inactive)
REMARK    1  A    between atoms: O_1  and  C_2
REMARK    2  A    between atoms: C_5  and  O_22
REMARK    3  A    between atoms: C_9  and  C_11
REMARK    4  A    between atoms: C_12  and  C_13
REMARK                            x       y       z     vdW  Elec       q    Type
REMARK                         _______ _______ _______ _____ _____    ______ ____
ROOT
ATOM      1  C   UNL     1      88.736  47.868  43.135  0.00  0.00    +0.075 C 
ATOM      2  C   UNL     1      90.179  48.156  42.686  0.00  0.00    -0.057 C 
ATOM      3  C   UNL     1      90.556  49.321  42.117  0.00  0.00    -0.052 C 
ATOM      4  C   UNL     1      89.498  50.328  41.757  0.00  0.00    +0.111 C 
ATOM      5  C   UNL     1      88.493  50.372  42.913  0.00  0.00    +0.069 C 
ATOM      6  C   UNL     1      87.724  49.051  42.970  0.00  0.00    -0.001 C 
ATOM      7  N   UNL     1      87.721  51.581  42.670  0.00  0.00    -0.232 N 
ATOM      8  C   UNL     1      86.612  52.014  43.474  0.00  0.00    +0.246 C 
ATOM      9  O   UNL     1      86.529  51.636  44.673  0.00  0.00    -0.270 OA
ATOM     10  C   UNL     1      88.637  52.470  42.027  0.00  0.00    +0.225 C 
ATOM     11  O   UNL     1      88.424  53.704  41.889  0.00  0.00    -0.275 OA
ATOM     12  C   UNL     1      89.910  51.801  41.620  0.00  0.00    +0.059 C 
ENDROOT
BRANCH   1  13
ATOM     13  O   UNL     1      88.251  46.717  42.496  0.00  0.00    -0.388 OA
ATOM     14  H   UNL     1      88.996  46.213  42.129  0.00  0.00    +0.000 HD
ENDBRANCH   1  13
BRANCH   8  15
ATOM     15  C   UNL     1      85.556  52.889  42.931  0.00  0.00    +0.001 C 
ATOM     16  C   UNL     1      84.509  52.410  42.244  0.00  0.00    -0.050 C 
BRANCH  16  17
ATOM     17  C   UNL     1      83.429  53.259  41.683  0.00  0.00    -0.025 A 
ATOM     18  C   UNL     1      83.768  54.231  40.726  0.00  0.00    -0.055 A 
ATOM     19  C   UNL     1      82.785  55.049  40.163  0.00  0.00    -0.061 A 
ATOM     20  C   UNL     1      81.450  54.901  40.542  0.00  0.00    -0.062 A 
ATOM     21  C   UNL     1      81.094  53.929  41.480  0.00  0.00    -0.061 A 
ATOM     22  C   UNL     1      82.074  53.107  42.047  0.00  0.00    -0.055 A 
ENDBRANCH  16  17
ENDBRANCH   8  15
BRANCH   4  23
ATOM     23  O   UNL     1      88.854  49.921  40.569  0.00  0.00    -0.382 OA
ATOM     24  H   UNL     1      87.996  50.368  40.497  0.00  0.00    +0.000 HD
ENDBRANCH   4  23
TORSDOF 4
ENDMDL
MODEL 9
REMARK VINA RESULT:    -7.166      2.086      2.264
REMARK INTER + INTRA:          -8.737
REMARK INTER:                  -8.423
REMARK INTRA:                  -0.314
REMARK UNBOUND:                -0.314
REMARK  Name = 
REMARK  4 active torsions:
REMARK  status: ('A' for Active; 'I' for Inactive)
REMARK    1  A    between atoms: O_1  and  C_2
REMARK    2  A    between atoms: C_5  and  O_22
REMARK    3  A    between atoms: C_9  and  C_11
REMARK    4  A    between atoms: C_12  and  C_13
REMARK                            x       y       z     vdW  Elec       q    Type
REMARK                         _______ _______ _______ _____ _____    ______ ____
ROOT
ATOM      1  C   UNL     1      82.492  54.649  40.919  0.00  0.00    +0.075 C 
ATOM      2  C   UNL     1      81.211  54.287  41.689  0.00  0.00    -0.057 C 
ATOM      3  C   UNL     1      81.057  53.125  42.359  0.00  0.00    -0.052 C 
ATOM      4  C   UNL     1      82.114  52.063  42.224  0.00  0.00    +0.111 C 
ATOM      5  C   UNL     1      83.477  52.762  42.278  0.00  0.00    +0.069 C 
ATOM      6  C   UNL     1      83.663  53.614  41.022  0.00  0.00    -0.001 C 
ATOM      7  N   UNL     1      84.425  51.680  42.494  0.00  0.00    -0.232 N 
ATOM      8  C   UNL     1      85.850  51.847  42.559  0.00  0.00    +0.246 C 
ATOM      9  O   UNL     1      86.330  52.965  42.887  0.00  0.00    -0.270 OA
ATOM     10  C   UNL     1      83.698  50.711  43.253  0.00  0.00    +0.225 C 
ATOM     11  O   UNL     1      84.247  49.750  43.856  0.00  0.00    -0.275 OA
ATOM     12  C   UNL     1      82.236  51.010  43.334  0.00  0.00    +0.059 C 
ENDROOT
BRANCH   1  13
ATOM     13  O   UNL     1      82.190  54.913  39.574  0.00  0.00    -0.388 OA
ATOM     14  H   UNL     1      82.894  55.456  39.186  0.00  0.00    +0.000 HD
ENDBRANCH   1  13
BRANCH   8  15
ATOM     15  C   UNL     1      86.775  50.743  42.246  0.00  0.00    +0.001 C 
ATOM     16  C   UNL     1      87.571  50.187  43.172  0.00  0.00    -0.050 C 
BRANCH  16  17
ATOM     17  C   UNL     1      88.514  49.075  42.894  0.00  0.00    -0.025 A 
ATOM     18  C   UNL     1      89.721  49.024  43.612  0.00  0.00    -0.055 A 
ATOM     19  C   UNL     1      90.638  47.992  43.390  0.00  0.00    -0.061 A 
ATOM     20  C   UNL     1      90.355  46.994  42.456  0.00  0.00    -0.062 A 
ATOM     21  C   UNL     1      89.153  47.023  41.746  0.00  0.00    -0.061 A 
ATOM     22  C   UNL     1      88.232  48.053  41.963  0.00  0.00    -0.055 A 
ENDBRANCH  16  17
ENDBRANCH   8  15
BRANCH   4  23
ATOM     23  O   UNL     1      81.955  51.405  40.985  0.00  0.00    -0.382 OA
ATOM     24  H   UNL     1      82.776  51.477  40.473  0.00  0.00    +0.000 HD
ENDBRANCH   4  23
TORSDOF 4
ENDMDL
