MODEL 1
REMARK VINA RESULT:    -8.389      0.000      0.000
REMARK INTER + INTRA:         -10.007
REMARK INTER:                  -9.517
REMARK INTRA:                  -0.490
REMARK UNBOUND:                -0.393
REMARK  Name = 
REMARK  3 active torsions:
REMARK  status: ('A' for Active; 'I' for Inactive)
REMARK    1  A    between atoms: C_5  and  O_21
REMARK    2  A    between atoms: C_11  and  C_13
REMARK    3  A    between atoms: C_14  and  C_15
REMARK                            x       y       z     vdW  Elec       q    Type
REMARK                         _______ _______ _______ _____ _____    ______ ____
ROOT
ATOM      1  O   UNL     1      88.690  53.590  41.652  0.00  0.00    -0.293 OA
ATOM      2  C   UNL     1      88.752  52.348  41.849  0.00  0.00    +0.158 C 
ATOM      3  C   UNL     1      89.865  51.573  41.301  0.00  0.00    -0.020 C 
ATOM      4  C   UNL     1      90.048  50.298  41.646  0.00  0.00    -0.048 C 
ATOM      5  C   UNL     1      89.210  49.589  42.691  0.00  0.00    +0.105 C 
ATOM      6  C   UNL     1      88.170  50.483  43.416  0.00  0.00    +0.066 C 
ATOM      7  C   UNL     1      87.636  51.640  42.545  0.00  0.00    +0.031 C 
ATOM      8  N   UNL     1      87.071  49.572  43.729  0.00  0.00    -0.291 N 
ATOM      9  C   UNL     1      87.150  48.330  42.969  0.00  0.00    +0.018 C 
ATOM     10  C   UNL     1      88.367  48.470  42.060  0.00  0.00    -0.003 C 
ATOM     11  C   UNL     1      86.006  49.830  44.667  0.00  0.00    +0.240 C 
ATOM     12  O   UNL     1      85.062  48.998  44.764  0.00  0.00    -0.271 OA
ENDROOT
BRANCH  11  13
ATOM     13  C   UNL     1      86.000  51.040  45.521  0.00  0.00    +0.001 C 
ATOM     14  C   UNL     1      85.116  52.032  45.344  0.00  0.00    -0.050 C 
BRANCH  14  15
ATOM     15  C   UNL     1      85.075  53.256  46.181  0.00  0.00    -0.025 A 
ATOM     16  C   UNL     1      84.105  53.456  47.186  0.00  0.00    -0.055 A 
ATOM     17  C   UNL     1      84.117  54.622  47.958  0.00  0.00    -0.061 A 
ATOM     18  C   UNL     1      85.096  55.595  47.745  0.00  0.00    -0.062 A 
ATOM     19  C   UNL     1      86.072  55.400  46.765  0.00  0.00    -0.061 A 
ATOM     20  C   UNL     1      86.065  54.236  45.991  0.00  0.00    -0.055 A 
ENDBRANCH  14  15
ENDBRANCH  11  13
BRANCH   5  21
ATOM     21  O   UNL     1      90.105  49.038  43.633  0.00  0.00    -0.383 OA
ATOM     22  H   UNL     1      90.079  48.070  43.578  0.00  0.00    +0.000 HD
ENDBRANCH   5  21
TORSDOF 3
ENDMDL
MODEL 2
REMARK VINA RESULT:    -8.075      2.840      7.077
REMARK INTER + INTRA:          -9.648
REMARK INTER:                  -9.206
REMARK INTRA:                  -0.442
REMARK UNBOUND:                -0.393
REMARK  Name = 
REMARK  3 active torsions:
REMARK  status: ('A' for Active; 'I' for Inactive)
REMARK    1  A    between atoms: C_5  and  O_21
REMARK    2  A    between atoms: C_11  and  C_13
REMARK    3  A    between atoms: C_14  and  C_15
REMARK                            x       y       z     vdW  Elec       q    Type
REMARK                         _______ _______ _______ _____ _____    ______ ____
ROOT
ATOM      1  O   UNL     1      84.910  53.220  47.071  0.00  0.00    -0.293 OA
ATOM      2  C   UNL     1      84.964  54.124  46.194  0.00  0.00    +0.158 C 
ATOM      3  C   UNL     1      85.034  55.529  46.593  0.00  0.00    -0.020 C 
ATOM      4  C   UNL     1      85.274  56.486  45.696  0.00  0.00    -0.048 C 
ATOM      5  C   UNL     1      85.598  56.203  44.243  0.00  0.00    +0.105 C 
ATOM      6  C   UNL     1      85.728  54.700  43.880  0.00  0.00    +0.066 C 
ATOM      7  C   UNL     1      84.847  53.776  44.746  0.00  0.00    +0.031 C 
ATOM      8  N   UNL     1      85.278  54.626  42.491  0.00  0.00    -0.291 N 
ATOM      9  C   UNL     1      84.551  55.822  42.082  0.00  0.00    +0.018 C 
ATOM     10  C   UNL     1      84.484  56.716  43.317  0.00  0.00    -0.003 C 
ATOM     11  C   UNL     1      85.499  53.520  41.593  0.00  0.00    +0.240 C 
ATOM     12  O   UNL     1      84.965  53.544  40.450  0.00  0.00    -0.271 OA
ENDROOT
BRANCH  11  13
ATOM     13  C   UNL     1      86.341  52.364  41.979  0.00  0.00    +0.001 C 
ATOM     14  C   UNL     1      87.660  52.332  41.741  0.00  0.00    -0.050 C 
BRANCH  14  15
ATOM     15  C   UNL     1      88.536  51.195  42.116  0.00  0.00    -0.025 A 
ATOM     16  C   UNL     1      89.664  50.824  41.353  0.00  0.00    -0.055 A 
ATOM     17  C   UNL     1      90.467  49.752  41.756  0.00  0.00    -0.061 A 
ATOM     18  C   UNL     1      90.163  49.045  42.921  0.00  0.00    -0.062 A 
ATOM     19  C   UNL     1      89.059  49.414  43.692  0.00  0.00    -0.061 A 
ATOM     20  C   UNL     1      88.253  50.485  43.296  0.00  0.00    -0.055 A 
ENDBRANCH  14  15
ENDBRANCH  11  13
BRANCH   5  21
ATOM     21  O   UNL     1      86.806  56.871  43.952  0.00  0.00    -0.383 OA
ATOM     22  H   UNL     1      87.376  56.867  44.737  0.00  0.00    +0.000 HD
ENDBRANCH   5  21
TORSDOF 3
ENDMDL
MODEL 3
REMARK VINA RESULT:    -8.025      1.708      2.275
REMARK INTER + INTRA:          -9.591
REMARK INTER:                  -9.227
REMARK INTRA:                  -0.364
REMARK UNBOUND:                -0.393
REMARK  Name = 
REMARK  3 active torsions:
REMARK  status: ('A' for Active; 'I' for Inactive)
REMARK    1  A    between atoms: C_5  and  O_21
REMARK    2  A    between atoms: C_11  and  C_13
REMARK    3  A    between atoms: C_14  and  C_15
REMARK                            x       y       z     vdW  Elec       q    Type
REMARK                         _______ _______ _______ _____ _____    ______ ____
ROOT
ATOM      1  O   UNL     1      86.060  53.543  39.685  0.00  0.00    -0.293 OA
ATOM      2  C   UNL     1      87.058  52.851  40.019  0.00  0.00    +0.158 C 
ATOM      3  C   UNL     1      88.186  52.701  39.100  0.00  0.00    -0.020 C 
ATOM      4  C   UNL     1      89.323  52.128  39.499  0.00  0.00    -0.048 C 
ATOM      5  C   UNL     1      89.581  51.695  40.928  0.00  0.00    +0.105 C 
ATOM      6  C   UNL     1      88.457  52.052  41.936  0.00  0.00    +0.066 C 
ATOM      7  C   UNL     1      87.050  52.090  41.304  0.00  0.00    +0.031 C 
ATOM      8  N   UNL     1      88.509  50.978  42.925  0.00  0.00    -0.291 N 
ATOM      9  C   UNL     1      89.271  49.828  42.453  0.00  0.00    +0.018 C 
ATOM     10  C   UNL     1      89.704  50.167  41.029  0.00  0.00    -0.003 C 
ATOM     11  C   UNL     1      87.890  51.003  44.227  0.00  0.00    +0.240 C 
ATOM     12  O   UNL     1      87.926  49.964  44.943  0.00  0.00    -0.271 OA
ENDROOT
BRANCH  11  13
ATOM     13  C   UNL     1      87.221  52.219  44.745  0.00  0.00    +0.001 C 
ATOM     14  C   UNL     1      86.871  52.346  46.033  0.00  0.00    -0.050 C 
BRANCH  14  15
ATOM     15  C   UNL     1      86.204  53.549  46.589  0.00  0.00    -0.025 A 
ATOM     16  C   UNL     1      85.190  53.470  47.567  0.00  0.00    -0.055 A 
ATOM     17  C   UNL     1      84.601  54.634  48.070  0.00  0.00    -0.061 A 
ATOM     18  C   UNL     1      85.019  55.886  47.614  0.00  0.00    -0.062 A 
ATOM     19  C   UNL     1      86.033  55.977  46.658  0.00  0.00    -0.061 A 
ATOM     20  C   UNL     1      86.626  54.817  46.152  0.00  0.00    -0.055 A 
ENDBRANCH  14  15
ENDBRANCH  11  13
BRANCH   5  21
ATOM     21  O   UNL     1      90.792  52.299  41.329  0.00  0.00    -0.383 OA
ATOM     22  H   UNL     1      90.720  52.586  42.253  0.00  0.00    +0.000 HD
ENDBRANCH   5  21
TORSDOF 3
ENDMDL
MODEL 4
REMARK VINA RESULT:    -7.920      4.537      6.784
REMARK INTER + INTRA:          -9.471
REMARK INTER:                  -9.006
REMARK INTRA:                  -0.465
REMARK UNBOUND:                -0.393
REMARK  Name = 
REMARK  3 active torsions:
REMARK  status: ('A' for Active; 'I' for Inactive)
REMARK    1  A    between atoms: C_5  and  O_21
REMARK    2  A    between atoms: C_11  and  C_13
REMARK    3  A    between atoms: C_14  and  C_15
REMARK                            x       y       z     vdW  Elec       q    Type
REMARK                         _______ _______ _______ _____ _____    ______ ____
ROOT
ATOM      1  O   UNL     1      85.725  51.758  45.815  0.00  0.00    -0.293 OA
ATOM      2  C   UNL     1      85.634  52.515  44.812  0.00  0.00    +0.158 C 
ATOM      3  C   UNL     1      86.762  53.365  44.431  0.00  0.00    -0.020 C 
ATOM      4  C   UNL     1      86.757  54.035  43.278  0.00  0.00    -0.048 C 
ATOM      5  C   UNL     1      85.665  53.893  42.237  0.00  0.00    +0.105 C 
ATOM      6  C   UNL     1      84.582  52.830  42.561  0.00  0.00    +0.066 C 
ATOM      7  C   UNL     1      84.342  52.634  44.073  0.00  0.00    +0.031 C 
ATOM      8  N   UNL     1      83.367  53.358  41.947  0.00  0.00    -0.291 N 
ATOM      9  C   UNL     1      83.487  54.770  41.607  0.00  0.00    +0.018 C 
ATOM     10  C   UNL     1      84.872  55.200  42.085  0.00  0.00    -0.003 C 
ATOM     11  C   UNL     1      82.161  52.609  41.690  0.00  0.00    +0.240 C 
ATOM     12  O   UNL     1      81.146  53.216  41.248  0.00  0.00    -0.271 OA
ENDROOT
BRANCH  11  13
ATOM     13  C   UNL     1      82.089  51.149  41.927  0.00  0.00    +0.001 C 
ATOM     14  C   UNL     1      81.223  50.610  42.797  0.00  0.00    -0.050 C 
BRANCH  14  15
ATOM     15  C   UNL     1      81.119  49.153  43.058  0.00  0.00    -0.025 A 
ATOM     16  C   UNL     1      82.202  48.269  42.866  0.00  0.00    -0.055 A 
ATOM     17  C   UNL     1      82.058  46.905  43.139  0.00  0.00    -0.061 A 
ATOM     18  C   UNL     1      80.841  46.408  43.611  0.00  0.00    -0.062 A 
ATOM     19  C   UNL     1      79.767  47.276  43.820  0.00  0.00    -0.061 A 
ATOM     20  C   UNL     1      79.906  48.641  43.550  0.00  0.00    -0.055 A 
ENDBRANCH  14  15
ENDBRANCH  11  13
BRANCH   5  21
ATOM     21  O   UNL     1      86.297  53.574  41.017  0.00  0.00    -0.383 OA
ATOM     22  H   UNL     1      86.994  54.223  40.833  0.00  0.00    +0.000 HD
ENDBRANCH   5  21
TORSDOF 3
ENDMDL
MODEL 5
REMARK VINA RESULT:    -7.872      2.526      7.200
REMARK INTER + INTRA:          -9.415
REMARK INTER:                  -8.926
REMARK INTRA:                  -0.489
REMARK UNBOUND:                -0.393
REMARK  Name = 
REMARK  3 active torsions:
REMARK  status: ('A' for Active; 'I' for Inactive)
REMARK    1  A    between atoms: C_5  and  O_21
REMARK    2  A    between atoms: C_11  and  C_13
REMARK    3  A    between atoms: C_14  and  C_15
REMARK                            x       y       z     vdW  Elec       q    Type
REMARK                         _______ _______ _______ _____ _____    ______ ____
ROOT
ATOM      1  O   UNL     1      85.976  51.179  47.825  0.00  0.00    -0.293 OA
ATOM      2  C   UNL     1      85.733  52.390  47.578  0.00  0.00    +0.158 C 
ATOM      3  C   UNL     1      85.452  53.319  48.672  0.00  0.00    -0.020 C 
ATOM      4  C   UNL     1      85.372  54.633  48.454  0.00  0.00    -0.048 C 
ATOM      5  C   UNL     1      85.666  55.273  47.112  0.00  0.00    +0.105 C 
ATOM      6  C   UNL     1      86.167  54.297  46.014  0.00  0.00    +0.066 C 
ATOM      7  C   UNL     1      85.619  52.863  46.166  0.00  0.00    +0.031 C 
ATOM      8  N   UNL     1      85.665  54.872  44.768  0.00  0.00    -0.291 N 
ATOM      9  C   UNL     1      84.623  55.865  44.998  0.00  0.00    +0.018 C 
ATOM     10  C   UNL     1      84.399  55.898  46.507  0.00  0.00    -0.003 C 
ATOM     11  C   UNL     1      86.114  54.526  43.442  0.00  0.00    +0.240 C 
ATOM     12  O   UNL     1      85.521  55.025  42.445  0.00  0.00    -0.271 OA
ENDROOT
BRANCH  11  13
ATOM     13  C   UNL     1      87.255  53.607  43.223  0.00  0.00    +0.001 C 
ATOM     14  C   UNL     1      87.089  52.367  42.742  0.00  0.00    -0.050 C 
BRANCH  14  15
ATOM     15  C   UNL     1      88.207  51.420  42.506  0.00  0.00    -0.025 A 
ATOM     16  C   UNL     1      89.102  51.559  41.425  0.00  0.00    -0.055 A 
ATOM     17  C   UNL     1      90.149  50.648  41.253  0.00  0.00    -0.061 A 
ATOM     18  C   UNL     1      90.321  49.596  42.156  0.00  0.00    -0.062 A 
ATOM     19  C   UNL     1      89.450  49.459  43.239  0.00  0.00    -0.061 A 
ATOM     20  C   UNL     1      88.403  50.367  43.417  0.00  0.00    -0.055 A 
ENDBRANCH  14  15
ENDBRANCH  11  13
BRANCH   5  21
ATOM     21  O   UNL     1      86.633  56.276  47.336  0.00  0.00    -0.383 OA
ATOM     22  H   UNL     1      86.697  56.845  46.553  0.00  0.00    +0.000 HD
ENDBRANCH   5  21
TORSDOF 3
ENDMDL
MODEL 6
REMARK VINA RESULT:    -7.822      4.732      6.806
REMARK INTER + INTRA:          -9.358
REMARK INTER:                  -8.882
REMARK INTRA:                  -0.476
REMARK UNBOUND:                -0.393
REMARK  Name = 
REMARK  3 active torsions:
REMARK  status: ('A' for Active; 'I' for Inactive)
REMARK    1  A    between atoms: C_5  and  O_21
REMARK    2  A    between atoms: C_11  and  C_13
REMARK    3  A    between atoms: C_14  and  C_15
REMARK                            x       y       z     vdW  Elec       q    Type
REMARK                         _______ _______ _______ _____ _____    ______ ____
ROOT
ATOM      1  O   UNL     1      83.883  48.251  43.986  0.00  0.00    -0.293 OA
ATOM      2  C   UNL     1      84.405  47.127  43.762  0.00  0.00    +0.158 C 
ATOM      3  C   UNL     1      83.586  45.916  43.808  0.00  0.00    -0.020 C 
ATOM      4  C   UNL     1      84.072  44.743  43.399  0.00  0.00    -0.048 C 
ATOM      5  C   UNL     1      85.439  44.584  42.763  0.00  0.00    +0.105 C 
ATOM      6  C   UNL     1      86.212  45.909  42.527  0.00  0.00    +0.066 C 
ATOM      7  C   UNL     1      85.880  47.009  43.557  0.00  0.00    +0.031 C 
ATOM      8  N   UNL     1      87.617  45.532  42.665  0.00  0.00    -0.291 N 
ATOM      9  C   UNL     1      87.781  44.235  43.310  0.00  0.00    +0.018 C 
ATOM     10  C   UNL     1      86.374  43.759  43.660  0.00  0.00    -0.003 C 
ATOM     11  C   UNL     1      88.745  46.321  42.233  0.00  0.00    +0.240 C 
ATOM     12  O   UNL     1      89.911  45.923  42.507  0.00  0.00    -0.271 OA
ENDROOT
BRANCH  11  13
ATOM     13  C   UNL     1      88.566  47.579  41.472  0.00  0.00    +0.001 C 
ATOM     14  C   UNL     1      88.728  48.783  42.038  0.00  0.00    -0.050 C 
BRANCH  14  15
ATOM     15  C   UNL     1      88.563  50.064  41.308  0.00  0.00    -0.025 A 
ATOM     16  C   UNL     1      87.347  50.781  41.301  0.00  0.00    -0.055 A 
ATOM     17  C   UNL     1      87.245  51.991  40.608  0.00  0.00    -0.061 A 
ATOM     18  C   UNL     1      88.349  52.505  39.924  0.00  0.00    -0.062 A 
ATOM     19  C   UNL     1      89.561  51.812  39.938  0.00  0.00    -0.061 A 
ATOM     20  C   UNL     1      89.670  50.602  40.629  0.00  0.00    -0.055 A 
ENDBRANCH  14  15
ENDBRANCH  11  13
BRANCH   5  21
ATOM     21  O   UNL     1      85.247  43.918  41.533  0.00  0.00    -0.383 OA
ATOM     22  H   UNL     1      84.457  43.357  41.589  0.00  0.00    +0.000 HD
ENDBRANCH   5  21
TORSDOF 3
ENDMDL
MODEL 7
REMARK VINA RESULT:    -7.502      3.646      6.086
REMARK INTER + INTRA:          -8.991
REMARK INTER:                  -8.597
REMARK INTRA:                  -0.394
REMARK UNBOUND:                -0.393
REMARK  Name = 
REMARK  3 active torsions:
REMARK  status: ('A' for Active; 'I' for Inactive)
REMARK    1  A    between atoms: C_5  and  O_21
REMARK    2  A    between atoms: C_11  and  C_13
REMARK    3  A    between atoms: C_14  and  C_15
REMARK                            x       y       z     vdW  Elec       q    Type
REMARK                         _______ _______ _______ _____ _____    ______ ____
ROOT
ATOM      1  O   UNL     1      83.709  53.782  47.356  0.00  0.00    -0.293 OA
ATOM      2  C   UNL     1      84.681  52.985  47.262  0.00  0.00    +0.158 C 
ATOM      3  C   UNL     1      85.494  52.678  48.438  0.00  0.00    -0.020 C 
ATOM      4  C   UNL     1      86.407  51.706  48.406  0.00  0.00    -0.048 C 
ATOM      5  C   UNL     1      86.602  50.786  47.218  0.00  0.00    +0.105 C 
ATOM      6  C   UNL     1      85.591  50.987  46.058  0.00  0.00    +0.066 C 
ATOM      7  C   UNL     1      85.077  52.436  45.931  0.00  0.00    +0.031 C 
ATOM      8  N   UNL     1      86.349  50.640  44.858  0.00  0.00    -0.291 N 
ATOM      9  C   UNL     1      87.786  50.607  45.103  0.00  0.00    +0.018 C 
ATOM     10  C   UNL     1      87.974  51.011  46.562  0.00  0.00    -0.003 C 
ATOM     11  C   UNL     1      85.787  50.360  43.560  0.00  0.00    +0.240 C 
ATOM     12  O   UNL     1      86.565  50.176  42.583  0.00  0.00    -0.271 OA
ENDROOT
BRANCH  11  13
ATOM     13  C   UNL     1      84.323  50.278  43.350  0.00  0.00    +0.001 C 
ATOM     14  C   UNL     1      83.597  49.242  43.794  0.00  0.00    -0.050 C 
BRANCH  14  15
ATOM     15  C   UNL     1      82.130  49.126  43.607  0.00  0.00    -0.025 A 
ATOM     16  C   UNL     1      81.403  47.983  44.003  0.00  0.00    -0.055 A 
ATOM     17  C   UNL     1      80.018  47.928  43.817  0.00  0.00    -0.061 A 
ATOM     18  C   UNL     1      79.342  49.008  43.245  0.00  0.00    -0.062 A 
ATOM     19  C   UNL     1      80.048  50.150  42.865  0.00  0.00    -0.061 A 
ATOM     20  C   UNL     1      81.433  50.213  43.049  0.00  0.00    -0.055 A 
ENDBRANCH  14  15
ENDBRANCH  11  13
BRANCH   5  21
ATOM     21  O   UNL     1      86.517  49.463  47.702  0.00  0.00    -0.383 OA
ATOM     22  H   UNL     1      85.869  48.967  47.177  0.00  0.00    +0.000 HD
ENDBRANCH   5  21
TORSDOF 3
ENDMDL
MODEL 8
REMARK VINA RESULT:    -7.502      3.084      5.298
REMARK INTER + INTRA:          -8.991
REMARK INTER:                  -8.625
REMARK INTRA:                  -0.366
REMARK UNBOUND:                -0.393
REMARK  Name = 
REMARK  3 active torsions:
REMARK  status: ('A' for Active; 'I' for Inactive)
REMARK    1  A    between atoms: C_5  and  O_21
REMARK    2  A    between atoms: C_11  and  C_13
REMARK    3  A    between atoms: C_14  and  C_15
REMARK                            x       y       z     vdW  Elec       q    Type
REMARK                         _______ _______ _______ _____ _____    ______ ____
ROOT
ATOM      1  O   UNL     1      89.337  47.968  42.847  0.00  0.00    -0.293 OA
ATOM      2  C   UNL     1      89.124  49.136  42.424  0.00  0.00    +0.158 C 
ATOM      3  C   UNL     1      90.023  49.732  41.437  0.00  0.00    -0.020 C 
ATOM      4  C   UNL     1      89.720  50.887  40.843  0.00  0.00    -0.048 C 
ATOM      5  C   UNL     1      88.404  51.609  41.048  0.00  0.00    +0.105 C 
ATOM      6  C   UNL     1      87.374  50.859  41.934  0.00  0.00    +0.066 C 
ATOM      7  C   UNL     1      88.023  49.959  43.007  0.00  0.00    +0.031 C 
ATOM      8  N   UNL     1      86.624  51.925  42.594  0.00  0.00    -0.291 N 
ATOM      9  C   UNL     1      87.301  53.214  42.503  0.00  0.00    +0.018 C 
ATOM     10  C   UNL     1      88.614  52.949  41.771  0.00  0.00    -0.003 C 
ATOM     11  C   UNL     1      85.361  51.770  43.272  0.00  0.00    +0.240 C 
ATOM     12  O   UNL     1      84.873  52.757  43.889  0.00  0.00    -0.271 OA
ENDROOT
BRANCH  11  13
ATOM     13  C   UNL     1      84.624  50.485  43.255  0.00  0.00    +0.001 C 
ATOM     14  C   UNL     1      83.343  50.394  43.639  0.00  0.00    -0.050 C 
BRANCH  14  15
ATOM     15  C   UNL     1      82.571  49.127  43.632  0.00  0.00    -0.025 A 
ATOM     16  C   UNL     1      81.194  49.077  43.938  0.00  0.00    -0.055 A 
ATOM     17  C   UNL     1      80.507  47.860  43.905  0.00  0.00    -0.061 A 
ATOM     18  C   UNL     1      81.177  46.684  43.559  0.00  0.00    -0.062 A 
ATOM     19  C   UNL     1      82.535  46.725  43.237  0.00  0.00    -0.061 A 
ATOM     20  C   UNL     1      83.228  47.939  43.268  0.00  0.00    -0.055 A 
ENDBRANCH  14  15
ENDBRANCH  11  13
BRANCH   5  21
ATOM     21  O   UNL     1      87.855  51.838  39.768  0.00  0.00    -0.383 OA
ATOM     22  H   UNL     1      87.031  52.343  39.855  0.00  0.00    +0.000 HD
ENDBRANCH   5  21
TORSDOF 3
ENDMDL
MODEL 9
REMARK VINA RESULT:    -7.406      4.463      7.065
REMARK INTER + INTRA:          -8.881
REMARK INTER:                  -8.489
REMARK INTRA:                  -0.393
REMARK UNBOUND:                -0.393
REMARK  Name = 
REMARK  3 active torsions:
REMARK  status: ('A' for Active; 'I' for Inactive)
REMARK    1  A    between atoms: C_5  and  O_21
REMARK    2  A    between atoms: C_11  and  C_13
REMARK    3  A    between atoms: C_14  and  C_15
REMARK                            x       y       z     vdW  Elec       q    Type
REMARK                         _______ _______ _______ _____ _____    ______ ____
ROOT
ATOM      1  O   UNL     1      83.259  45.665  43.666  0.00  0.00    -0.293 OA
ATOM      2  C   UNL     1      82.272  46.439  43.779  0.00  0.00    +0.158 C 
ATOM      3  C   UNL     1      81.043  45.971  44.418  0.00  0.00    -0.020 C 
ATOM      4  C   UNL     1      80.056  46.820  44.711  0.00  0.00    -0.048 C 
ATOM      5  C   UNL     1      80.162  48.319  44.516  0.00  0.00    +0.105 C 
ATOM      6  C   UNL     1      81.548  48.823  44.035  0.00  0.00    +0.066 C 
ATOM      7  C   UNL     1      82.309  47.801  43.166  0.00  0.00    +0.031 C 
ATOM      8  N   UNL     1      81.241  50.002  43.229  0.00  0.00    -0.291 N 
ATOM      9  C   UNL     1      79.832  50.067  42.860  0.00  0.00    +0.018 C 
ATOM     10  C   UNL     1      79.189  48.806  43.430  0.00  0.00    -0.003 C 
ATOM     11  C   UNL     1      82.187  51.010  42.817  0.00  0.00    +0.240 C 
ATOM     12  O   UNL     1      81.807  51.923  42.034  0.00  0.00    -0.271 OA
ENDROOT
BRANCH  11  13
ATOM     13  C   UNL     1      83.589  51.000  43.297  0.00  0.00    +0.001 C 
ATOM     14  C   UNL     1      83.917  51.364  44.545  0.00  0.00    -0.050 C 
BRANCH  14  15
ATOM     15  C   UNL     1      85.307  51.364  45.062  0.00  0.00    -0.025 A 
ATOM     16  C   UNL     1      85.886  52.492  45.681  0.00  0.00    -0.055 A 
ATOM     17  C   UNL     1      87.197  52.438  46.165  0.00  0.00    -0.061 A 
ATOM     18  C   UNL     1      87.941  51.261  46.047  0.00  0.00    -0.062 A 
ATOM     19  C   UNL     1      87.373  50.134  45.452  0.00  0.00    -0.061 A 
ATOM     20  C   UNL     1      86.063  50.182  44.967  0.00  0.00    -0.055 A 
ENDBRANCH  14  15
ENDBRANCH  11  13
BRANCH   5  21
ATOM     21  O   UNL     1      79.838  48.919  45.751  0.00  0.00    -0.383 OA
ATOM     22  H   UNL     1      79.296  49.709  45.595  0.00  0.00    +0.000 HD
ENDBRANCH   5  21
TORSDOF 3
ENDMDL
