MODEL 1
REMARK VINA RESULT:    -9.075      0.000      0.000
REMARK INTER + INTRA:         -12.835
REMARK INTER:                 -11.745
REMARK INTRA:                  -1.090
REMARK UNBOUND:                -1.106
REMARK  Name = 
REMARK  12 active torsions:
REMARK  status: ('A' for Active; 'I' for Inactive)
REMARK    1  A    between atoms: C_1  and  O_2
REMARK    2  A    between atoms: O_2  and  C_3
REMARK    3  A    between atoms: C_7  and  C_8
REMARK    4  A    between atoms: C_10  and  C_31
REMARK    5  A    between atoms: C_12  and  O_29
REMARK    6  A    between atoms: C_13  and  C_14
REMARK    7  A    between atoms: C_15  and  C_16
REMARK    8  A    between atoms: C_18  and  O_27
REMARK    9  A    between atoms: C_24  and  O_25
REMARK   10  A    between atoms: O_25  and  C_26
REMARK   11  A    between atoms: O_27  and  C_28
REMARK   12  A    between atoms: O_29  and  C_30
REMARK                            x       y       z     vdW  Elec       q    Type
REMARK                         _______ _______ _______ _____ _____    ______ ____
ROOT
ATOM      1  C   UNL     1      88.125  49.323  43.168  0.00  0.00    +0.132 A 
ATOM      2  C   UNL     1      88.385  47.999  42.788  0.00  0.00    -0.016 A 
ATOM      3  C   UNL     1      87.481  46.974  43.085  0.00  0.00    -0.034 A 
ATOM      4  C   UNL     1      87.873  45.555  42.766  0.00  0.00    -0.012 C 
ATOM      5  C   UNL     1      86.673  44.600  42.789  0.00  0.00    +0.009 C 
ATOM      6  C   UNL     1      87.155  43.146  42.736  0.00  0.00    -0.049 C 
ATOM      7  N   UNL     1      85.886  44.827  44.011  0.00  0.00    -0.307 N 
ATOM      8  C   UNL     1      85.271  46.169  44.046  0.00  0.00    +0.034 C 
ATOM      9  C   UNL     1      86.290  47.269  43.780  0.00  0.00    +0.015 A 
ATOM     10  C   UNL     1      86.002  48.601  44.155  0.00  0.00    +0.136 A 
ATOM     11  C   UNL     1      86.937  49.628  43.858  0.00  0.00    +0.067 A 
ATOM     12  C   UNL     1      84.079  46.281  43.075  0.00  0.00    -0.045 C 
ATOM     13  H   UNL     1      86.502  44.727  44.819  0.00  0.00    +0.000 HD
ATOM     14  H   UNL     1      85.134  44.140  44.028  0.00  0.00    +0.000 HD
ENDROOT
BRANCH  11  15
ATOM     15  C   UNL     1      86.751  51.023  44.335  0.00  0.00    +0.000 A 
ATOM     16  C   UNL     1      87.144  51.360  45.648  0.00  0.00    -0.038 A 
ATOM     17  C   UNL     1      87.717  50.325  46.583  0.00  0.00    -0.039 C 
ATOM     18  C   UNL     1      86.975  52.670  46.106  0.00  0.00    -0.016 A 
ATOM     19  C   UNL     1      86.448  53.675  45.279  0.00  0.00    +0.132 A 
ATOM     20  C   UNL     1      86.074  53.363  43.947  0.00  0.00    +0.066 A 
ATOM     21  C   UNL     1      86.229  52.025  43.475  0.00  0.00    -0.003 A 
ATOM     22  C   UNL     1      85.843  51.711  42.156  0.00  0.00    -0.053 A 
ATOM     23  C   UNL     1      85.326  52.687  41.313  0.00  0.00    -0.058 A 
ATOM     24  C   UNL     1      85.178  53.993  41.760  0.00  0.00    -0.019 A 
ATOM     25  C   UNL     1      85.544  54.353  43.070  0.00  0.00    +0.131 A 
BRANCH  25  26
ATOM     26  O   UNL     1      85.390  55.677  43.516  0.00  0.00    -0.494 OA
ATOM     27  C   UNL     1      84.230  56.479  43.316  0.00  0.00    +0.079 C 
ENDBRANCH  25  26
BRANCH  19  28
ATOM     28  O   UNL     1      86.290  54.987  45.762  0.00  0.00    -0.494 OA
ATOM     29  C   UNL     1      86.092  55.342  47.127  0.00  0.00    +0.079 C 
ENDBRANCH  19  28
ENDBRANCH  11  15
BRANCH   1  31
ATOM     30  C   UNL     1      89.453  50.748  41.589  0.00  0.00    +0.079 C 
ATOM     31  O   UNL     1      89.033  50.361  42.893  0.00  0.00    -0.494 OA
ENDBRANCH   1  31
BRANCH  10  32
ATOM     32  O   UNL     1      84.793  48.839  44.836  0.00  0.00    -0.494 OA
ATOM     33  C   UNL     1      83.649  49.491  44.295  0.00  0.00    +0.079 C 
ENDBRANCH  10  32
TORSDOF 5
ENDMDL
MODEL 2
REMARK VINA RESULT:    -8.957      2.980      7.557
REMARK INTER + INTRA:         -12.682
REMARK INTER:                 -11.692
REMARK INTRA:                  -0.990
REMARK UNBOUND:                -1.106
REMARK  Name = 
REMARK  12 active torsions:
REMARK  status: ('A' for Active; 'I' for Inactive)
REMARK    1  A    between atoms: C_1  and  O_2
REMARK    2  A    between atoms: O_2  and  C_3
REMARK    3  A    between atoms: C_7  and  C_8
REMARK    4  A    between atoms: C_10  and  C_31
REMARK    5  A    between atoms: C_12  and  O_29
REMARK    6  A    between atoms: C_13  and  C_14
REMARK    7  A    between atoms: C_15  and  C_16
REMARK    8  A    between atoms: C_18  and  O_27
REMARK    9  A    between atoms: C_24  and  O_25
REMARK   10  A    between atoms: O_25  and  C_26
REMARK   11  A    between atoms: O_27  and  C_28
REMARK   12  A    between atoms: O_29  and  C_30
REMARK                            x       y       z     vdW  Elec       q    Type
REMARK                         _______ _______ _______ _____ _____    ______ ____
ROOT
ATOM      1  C   UNL     1      85.685  52.739  43.000  0.00  0.00    +0.132 A 
ATOM      2  C   UNL     1      85.791  54.133  42.894  0.00  0.00    -0.016 A 
ATOM      3  C   UNL     1      85.533  54.960  43.991  0.00  0.00    -0.034 A 
ATOM      4  C   UNL     1      85.537  56.452  43.784  0.00  0.00    -0.012 C 
ATOM      5  C   UNL     1      85.618  57.225  45.107  0.00  0.00    +0.009 C 
ATOM      6  C   UNL     1      85.341  58.713  44.866  0.00  0.00    -0.049 C 
ATOM      7  N   UNL     1      84.639  56.676  46.057  0.00  0.00    -0.307 N 
ATOM      8  C   UNL     1      84.944  55.284  46.442  0.00  0.00    +0.034 C 
ATOM      9  C   UNL     1      85.159  54.392  45.227  0.00  0.00    +0.015 A 
ATOM     10  C   UNL     1      85.066  52.988  45.358  0.00  0.00    +0.136 A 
ATOM     11  C   UNL     1      85.316  52.162  44.230  0.00  0.00    +0.067 A 
ATOM     12  C   UNL     1      86.149  55.201  47.400  0.00  0.00    -0.045 C 
ATOM     13  H   UNL     1      83.715  56.703  45.626  0.00  0.00    +0.000 HD
ATOM     14  H   UNL     1      84.673  57.246  46.902  0.00  0.00    +0.000 HD
ENDROOT
BRANCH  11  15
ATOM     15  C   UNL     1      85.113  50.691  44.271  0.00  0.00    +0.000 A 
ATOM     16  C   UNL     1      86.186  49.857  44.651  0.00  0.00    -0.038 A 
ATOM     17  C   UNL     1      87.541  50.429  44.985  0.00  0.00    -0.039 C 
ATOM     18  C   UNL     1      86.004  48.472  44.695  0.00  0.00    -0.016 A 
ATOM     19  C   UNL     1      84.764  47.884  44.397  0.00  0.00    +0.132 A 
ATOM     20  C   UNL     1      83.666  48.707  44.040  0.00  0.00    +0.066 A 
ATOM     21  C   UNL     1      83.845  50.120  43.978  0.00  0.00    -0.003 A 
ATOM     22  C   UNL     1      82.757  50.938  43.608  0.00  0.00    -0.053 A 
ATOM     23  C   UNL     1      81.517  50.384  43.315  0.00  0.00    -0.058 A 
ATOM     24  C   UNL     1      81.330  49.010  43.380  0.00  0.00    -0.019 A 
ATOM     25  C   UNL     1      82.388  48.154  43.738  0.00  0.00    +0.131 A 
BRANCH  25  26
ATOM     26  O   UNL     1      82.191  46.763  43.800  0.00  0.00    -0.494 OA
ATOM     27  C   UNL     1      81.108  46.118  44.465  0.00  0.00    +0.079 C 
ENDBRANCH  25  26
BRANCH  19  28
ATOM     28  O   UNL     1      84.606  46.487  44.450  0.00  0.00    -0.494 OA
ATOM     29  C   UNL     1      85.668  45.539  44.472  0.00  0.00    +0.079 C 
ENDBRANCH  19  28
ENDBRANCH  11  15
BRANCH   1  31
ATOM     30  C   UNL     1      87.205  51.629  41.344  0.00  0.00    +0.079 C 
ATOM     31  O   UNL     1      85.923  51.896  41.901  0.00  0.00    -0.494 OA
ENDBRANCH   1  31
BRANCH  10  32
ATOM     32  O   UNL     1      84.699  52.474  46.617  0.00  0.00    -0.494 OA
ATOM     33  C   UNL     1      85.597  52.005  47.617  0.00  0.00    +0.079 C 
ENDBRANCH  10  32
TORSDOF 5
ENDMDL
MODEL 3
REMARK VINA RESULT:    -8.588      2.834      7.721
REMARK INTER + INTRA:         -12.204
REMARK INTER:                 -11.079
REMARK INTRA:                  -1.126
REMARK UNBOUND:                -1.106
REMARK  Name = 
REMARK  12 active torsions:
REMARK  status: ('A' for Active; 'I' for Inactive)
REMARK    1  A    between atoms: C_1  and  O_2
REMARK    2  A    between atoms: O_2  and  C_3
REMARK    3  A    between atoms: C_7  and  C_8
REMARK    4  A    between atoms: C_10  and  C_31
REMARK    5  A    between atoms: C_12  and  O_29
REMARK    6  A    between atoms: C_13  and  C_14
REMARK    7  A    between atoms: C_15  and  C_16
REMARK    8  A    between atoms: C_18  and  O_27
REMARK    9  A    between atoms: C_24  and  O_25
REMARK   10  A    between atoms: O_25  and  C_26
REMARK   11  A    between atoms: O_27  and  C_28
REMARK   12  A    between atoms: O_29  and  C_30
REMARK                            x       y       z     vdW  Elec       q    Type
REMARK                         _______ _______ _______ _____ _____    ______ ____
ROOT
ATOM      1  C   UNL     1      85.734  52.090  45.821  0.00  0.00    +0.132 A 
ATOM      2  C   UNL     1      85.604  53.414  46.264  0.00  0.00    -0.016 A 
ATOM      3  C   UNL     1      85.360  54.454  45.360  0.00  0.00    -0.034 A 
ATOM      4  C   UNL     1      85.358  55.869  45.877  0.00  0.00    -0.012 C 
ATOM      5  C   UNL     1      84.717  56.850  44.887  0.00  0.00    +0.009 C 
ATOM      6  C   UNL     1      84.986  58.293  45.326  0.00  0.00    -0.049 C 
ATOM      7  N   UNL     1      85.267  56.621  43.542  0.00  0.00    -0.307 N 
ATOM      8  C   UNL     1      84.910  55.292  43.004  0.00  0.00    +0.034 C 
ATOM      9  C   UNL     1      85.243  54.174  43.983  0.00  0.00    +0.015 A 
ATOM     10  C   UNL     1      85.352  52.844  43.521  0.00  0.00    +0.136 A 
ATOM     11  C   UNL     1      85.615  51.801  44.449  0.00  0.00    +0.067 A 
ATOM     12  C   UNL     1      83.430  55.222  42.578  0.00  0.00    -0.045 C 
ATOM     13  H   UNL     1      86.283  56.694  43.588  0.00  0.00    +0.000 HD
ATOM     14  H   UNL     1      84.869  57.324  42.920  0.00  0.00    +0.000 HD
ENDROOT
BRANCH  11  15
ATOM     15  C   UNL     1      85.865  50.403  44.012  0.00  0.00    +0.000 A 
ATOM     16  C   UNL     1      87.179  50.007  43.686  0.00  0.00    -0.038 A 
ATOM     17  C   UNL     1      88.327  50.984  43.742  0.00  0.00    -0.039 C 
ATOM     18  C   UNL     1      87.425  48.694  43.275  0.00  0.00    -0.016 A 
ATOM     19  C   UNL     1      86.396  47.741  43.206  0.00  0.00    +0.132 A 
ATOM     20  C   UNL     1      85.073  48.112  43.557  0.00  0.00    +0.066 A 
ATOM     21  C   UNL     1      84.810  49.453  43.963  0.00  0.00    -0.003 A 
ATOM     22  C   UNL     1      83.491  49.826  44.298  0.00  0.00    -0.053 A 
ATOM     23  C   UNL     1      82.455  48.902  44.245  0.00  0.00    -0.058 A 
ATOM     24  C   UNL     1      82.702  47.592  43.859  0.00  0.00    -0.019 A 
ATOM     25  C   UNL     1      84.000  47.176  43.510  0.00  0.00    +0.131 A 
BRANCH  25  26
ATOM     26  O   UNL     1      84.242  45.847  43.118  0.00  0.00    -0.494 OA
ATOM     27  C   UNL     1      84.169  44.713  43.977  0.00  0.00    +0.079 C 
ENDBRANCH  25  26
BRANCH  19  28
ATOM     28  O   UNL     1      86.669  46.425  42.792  0.00  0.00    -0.494 OA
ATOM     29  C   UNL     1      87.956  45.920  42.450  0.00  0.00    +0.079 C 
ENDBRANCH  19  28
ENDBRANCH  11  15
BRANCH   1  31
ATOM     30  C   UNL     1      87.227  50.847  47.407  0.00  0.00    +0.079 C 
ATOM     31  O   UNL     1      85.997  51.037  46.714  0.00  0.00    -0.494 OA
ENDBRANCH   1  31
BRANCH  10  32
ATOM     32  O   UNL     1      85.217  52.621  42.137  0.00  0.00    -0.494 OA
ATOM     33  C   UNL     1      86.269  52.673  41.180  0.00  0.00    +0.079 C 
ENDBRANCH  10  32
TORSDOF 5
ENDMDL
MODEL 4
REMARK VINA RESULT:    -8.390      2.790      7.716
REMARK INTER + INTRA:         -11.949
REMARK INTER:                 -10.711
REMARK INTRA:                  -1.238
REMARK UNBOUND:                -1.106
REMARK  Name = 
REMARK  12 active torsions:
REMARK  status: ('A' for Active; 'I' for Inactive)
REMARK    1  A    between atoms: C_1  and  O_2
REMARK    2  A    between atoms: O_2  and  C_3
REMARK    3  A    between atoms: C_7  and  C_8
REMARK    4  A    between atoms: C_10  and  C_31
REMARK    5  A    between atoms: C_12  and  O_29
REMARK    6  A    between atoms: C_13  and  C_14
REMARK    7  A    between atoms: C_15  and  C_16
REMARK    8  A    between atoms: C_18  and  O_27
REMARK    9  A    between atoms: C_24  and  O_25
REMARK   10  A    between atoms: O_25  and  C_26
REMARK   11  A    between atoms: O_27  and  C_28
REMARK   12  A    between atoms: O_29  and  C_30
REMARK                            x       y       z     vdW  Elec       q    Type
REMARK                         _______ _______ _______ _____ _____    ______ ____
ROOT
ATOM      1  C   UNL     1      85.805  52.044  45.915  0.00  0.00    +0.132 A 
ATOM      2  C   UNL     1      85.866  53.382  46.330  0.00  0.00    -0.016 A 
ATOM      3  C   UNL     1      85.635  54.426  45.429  0.00  0.00    -0.034 A 
ATOM      4  C   UNL     1      85.840  55.841  45.901  0.00  0.00    -0.012 C 
ATOM      5  C   UNL     1      85.202  56.868  44.957  0.00  0.00    +0.009 C 
ATOM      6  C   UNL     1      85.669  58.282  45.323  0.00  0.00    -0.049 C 
ATOM      7  N   UNL     1      85.574  56.558  43.568  0.00  0.00    -0.307 N 
ATOM      8  C   UNL     1      85.021  55.267  43.111  0.00  0.00    +0.034 C 
ATOM      9  C   UNL     1      85.340  54.137  44.080  0.00  0.00    +0.015 A 
ATOM     10  C   UNL     1      85.256  52.794  43.649  0.00  0.00    +0.136 A 
ATOM     11  C   UNL     1      85.507  51.745  44.573  0.00  0.00    +0.067 A 
ATOM     12  C   UNL     1      83.505  55.350  42.847  0.00  0.00    -0.045 C 
ATOM     13  H   UNL     1      86.591  56.521  43.503  0.00  0.00    +0.000 HD
ATOM     14  H   UNL     1      85.187  57.289  42.972  0.00  0.00    +0.000 HD
ENDROOT
BRANCH  11  15
ATOM     15  C   UNL     1      85.557  50.321  44.152  0.00  0.00    +0.000 A 
ATOM     16  C   UNL     1      84.375  49.550  44.183  0.00  0.00    -0.038 A 
ATOM     17  C   UNL     1      83.072  50.137  44.665  0.00  0.00    -0.039 C 
ATOM     18  C   UNL     1      84.412  48.210  43.788  0.00  0.00    -0.016 A 
ATOM     19  C   UNL     1      85.596  47.612  43.328  0.00  0.00    +0.132 A 
ATOM     20  C   UNL     1      86.789  48.377  43.264  0.00  0.00    +0.066 A 
ATOM     21  C   UNL     1      86.764  49.742  43.679  0.00  0.00    -0.003 A 
ATOM     22  C   UNL     1      87.953  50.499  43.628  0.00  0.00    -0.053 A 
ATOM     23  C   UNL     1      89.138  49.935  43.172  0.00  0.00    -0.058 A 
ATOM     24  C   UNL     1      89.171  48.610  42.758  0.00  0.00    -0.019 A 
ATOM     25  C   UNL     1      88.011  47.814  42.796  0.00  0.00    +0.131 A 
BRANCH  25  26
ATOM     26  O   UNL     1      88.052  46.472  42.376  0.00  0.00    -0.494 OA
ATOM     27  C   UNL     1      89.055  45.530  42.744  0.00  0.00    +0.079 C 
ENDBRANCH  25  26
BRANCH  19  28
ATOM     28  O   UNL     1      85.607  46.262  42.934  0.00  0.00    -0.494 OA
ATOM     29  C   UNL     1      84.535  45.343  43.117  0.00  0.00    +0.079 C 
ENDBRANCH  19  28
ENDBRANCH  11  15
BRANCH   1  31
ATOM     30  C   UNL     1      87.319  50.686  47.382  0.00  0.00    +0.079 C 
ATOM     31  O   UNL     1      86.052  50.984  46.805  0.00  0.00    -0.494 OA
ENDBRANCH   1  31
BRANCH  10  32
ATOM     32  O   UNL     1      84.947  52.563  42.294  0.00  0.00    -0.494 OA
ATOM     33  C   UNL     1      85.880  52.548  41.219  0.00  0.00    +0.079 C 
ENDBRANCH  10  32
TORSDOF 5
ENDMDL
MODEL 5
REMARK VINA RESULT:    -8.263      2.824      7.770
REMARK INTER + INTRA:         -11.784
REMARK INTER:                 -10.710
REMARK INTRA:                  -1.075
REMARK UNBOUND:                -1.106
REMARK  Name = 
REMARK  12 active torsions:
REMARK  status: ('A' for Active; 'I' for Inactive)
REMARK    1  A    between atoms: C_1  and  O_2
REMARK    2  A    between atoms: O_2  and  C_3
REMARK    3  A    between atoms: C_7  and  C_8
REMARK    4  A    between atoms: C_10  and  C_31
REMARK    5  A    between atoms: C_12  and  O_29
REMARK    6  A    between atoms: C_13  and  C_14
REMARK    7  A    between atoms: C_15  and  C_16
REMARK    8  A    between atoms: C_18  and  O_27
REMARK    9  A    between atoms: C_24  and  O_25
REMARK   10  A    between atoms: O_25  and  C_26
REMARK   11  A    between atoms: O_27  and  C_28
REMARK   12  A    between atoms: O_29  and  C_30
REMARK                            x       y       z     vdW  Elec       q    Type
REMARK                         _______ _______ _______ _____ _____    ______ ____
ROOT
ATOM      1  C   UNL     1      85.000  53.175  42.984  0.00  0.00    +0.132 A 
ATOM      2  C   UNL     1      84.850  54.565  43.092  0.00  0.00    -0.016 A 
ATOM      3  C   UNL     1      84.775  55.185  44.343  0.00  0.00    -0.034 A 
ATOM      4  C   UNL     1      84.485  56.663  44.395  0.00  0.00    -0.012 C 
ATOM      5  C   UNL     1      84.801  57.270  45.768  0.00  0.00    +0.009 C 
ATOM      6  C   UNL     1      84.236  58.692  45.858  0.00  0.00    -0.049 C 
ATOM      7  N   UNL     1      84.218  56.427  46.824  0.00  0.00    -0.307 N 
ATOM      8  C   UNL     1      84.833  55.086  46.881  0.00  0.00    +0.034 C 
ATOM      9  C   UNL     1      84.846  54.408  45.518  0.00  0.00    +0.015 A 
ATOM     10  C   UNL     1      85.016  53.009  45.429  0.00  0.00    +0.136 A 
ATOM     11  C   UNL     1      85.077  52.391  44.151  0.00  0.00    +0.067 A 
ATOM     12  C   UNL     1      86.250  55.127  47.485  0.00  0.00    -0.045 C 
ATOM     13  H   UNL     1      83.219  56.323  46.645  0.00  0.00    +0.000 HD
ATOM     14  H   UNL     1      84.391  56.887  47.718  0.00  0.00    +0.000 HD
ENDROOT
BRANCH  11  15
ATOM     15  C   UNL     1      85.128  50.915  43.992  0.00  0.00    +0.000 A 
ATOM     16  C   UNL     1      83.928  50.174  44.050  0.00  0.00    -0.038 A 
ATOM     17  C   UNL     1      82.603  50.848  44.302  0.00  0.00    -0.039 C 
ATOM     18  C   UNL     1      83.965  48.784  43.899  0.00  0.00    -0.016 A 
ATOM     19  C   UNL     1      85.170  48.103  43.660  0.00  0.00    +0.132 A 
ATOM     20  C   UNL     1      86.382  48.833  43.571  0.00  0.00    +0.066 A 
ATOM     21  C   UNL     1      86.357  50.250  43.737  0.00  0.00    -0.003 A 
ATOM     22  C   UNL     1      87.564  50.974  43.663  0.00  0.00    -0.053 A 
ATOM     23  C   UNL     1      88.770  50.327  43.421  0.00  0.00    -0.058 A 
ATOM     24  C   UNL     1      88.804  48.950  43.250  0.00  0.00    -0.019 A 
ATOM     25  C   UNL     1      87.626  48.184  43.321  0.00  0.00    +0.131 A 
BRANCH  25  26
ATOM     26  O   UNL     1      87.669  46.790  43.148  0.00  0.00    -0.494 OA
ATOM     27  C   UNL     1      88.673  46.085  42.423  0.00  0.00    +0.079 C 
ENDBRANCH  25  26
BRANCH  19  28
ATOM     28  O   UNL     1      85.181  46.704  43.511  0.00  0.00    -0.494 OA
ATOM     29  C   UNL     1      84.218  45.947  42.783  0.00  0.00    +0.079 C 
ENDBRANCH  19  28
ENDBRANCH  11  15
BRANCH   1  31
ATOM     30  C   UNL     1      86.055  52.773  40.745  0.00  0.00    +0.079 C 
ATOM     31  O   UNL     1      85.059  52.534  41.734  0.00  0.00    -0.494 OA
ENDBRANCH   1  31
BRANCH  10  32
ATOM     32  O   UNL     1      85.093  52.284  46.633  0.00  0.00    -0.494 OA
ATOM     33  C   UNL     1      86.266  51.680  47.167  0.00  0.00    +0.079 C 
ENDBRANCH  10  32
TORSDOF 5
ENDMDL
MODEL 6
REMARK VINA RESULT:    -8.257      1.618      4.144
REMARK INTER + INTRA:         -11.777
REMARK INTER:                 -10.825
REMARK INTRA:                  -0.951
REMARK UNBOUND:                -1.106
REMARK  Name = 
REMARK  12 active torsions:
REMARK  status: ('A' for Active; 'I' for Inactive)
REMARK    1  A    between atoms: C_1  and  O_2
REMARK    2  A    between atoms: O_2  and  C_3
REMARK    3  A    between atoms: C_7  and  C_8
REMARK    4  A    between atoms: C_10  and  C_31
REMARK    5  A    between atoms: C_12  and  O_29
REMARK    6  A    between atoms: C_13  and  C_14
REMARK    7  A    between atoms: C_15  and  C_16
REMARK    8  A    between atoms: C_18  and  O_27
REMARK    9  A    between atoms: C_24  and  O_25
REMARK   10  A    between atoms: O_25  and  C_26
REMARK   11  A    between atoms: O_27  and  C_28
REMARK   12  A    between atoms: O_29  and  C_30
REMARK                            x       y       z     vdW  Elec       q    Type
REMARK                         _______ _______ _______ _____ _____    ______ ____
ROOT
ATOM      1  C   UNL     1      84.777  49.796  44.200  0.00  0.00    +0.132 A 
ATOM      2  C   UNL     1      85.065  48.450  43.933  0.00  0.00    -0.016 A 
ATOM      3  C   UNL     1      86.311  48.067  43.426  0.00  0.00    -0.034 A 
ATOM      4  C   UNL     1      86.517  46.626  43.039  0.00  0.00    -0.012 C 
ATOM      5  C   UNL     1      88.000  46.276  42.865  0.00  0.00    +0.009 C 
ATOM      6  C   UNL     1      88.143  44.898  42.208  0.00  0.00    -0.049 C 
ATOM      7  N   UNL     1      88.653  47.300  42.035  0.00  0.00    -0.307 N 
ATOM      8  C   UNL     1      88.677  48.624  42.687  0.00  0.00    +0.034 C 
ATOM      9  C   UNL     1      87.297  49.043  43.175  0.00  0.00    +0.015 A 
ATOM     10  C   UNL     1      87.031  50.402  43.455  0.00  0.00    +0.136 A 
ATOM     11  C   UNL     1      85.756  50.777  43.956  0.00  0.00    +0.067 A 
ATOM     12  C   UNL     1      89.703  48.682  43.836  0.00  0.00    -0.045 C 
ATOM     13  H   UNL     1      88.147  47.378  41.153  0.00  0.00    +0.000 HD
ATOM     14  H   UNL     1      89.619  47.009  41.887  0.00  0.00    +0.000 HD
ENDROOT
BRANCH  11  15
ATOM     15  C   UNL     1      85.374  52.200  44.152  0.00  0.00    +0.000 A 
ATOM     16  C   UNL     1      84.858  52.931  43.061  0.00  0.00    -0.038 A 
ATOM     17  C   UNL     1      84.717  52.305  41.696  0.00  0.00    -0.039 C 
ATOM     18  C   UNL     1      84.494  54.269  43.235  0.00  0.00    -0.016 A 
ATOM     19  C   UNL     1      84.601  54.904  44.483  0.00  0.00    +0.132 A 
ATOM     20  C   UNL     1      85.092  54.178  45.598  0.00  0.00    +0.066 A 
ATOM     21  C   UNL     1      85.480  52.816  45.427  0.00  0.00    -0.003 A 
ATOM     22  C   UNL     1      85.982  52.098  46.533  0.00  0.00    -0.053 A 
ATOM     23  C   UNL     1      86.092  52.698  47.781  0.00  0.00    -0.058 A 
ATOM     24  C   UNL     1      85.710  54.021  47.960  0.00  0.00    -0.019 A 
ATOM     25  C   UNL     1      85.210  54.779  46.884  0.00  0.00    +0.131 A 
BRANCH  25  26
ATOM     26  O   UNL     1      84.826  56.118  47.073  0.00  0.00    -0.494 OA
ATOM     27  C   UNL     1      83.619  56.545  47.698  0.00  0.00    +0.079 C 
ENDBRANCH  25  26
BRANCH  19  28
ATOM     28  O   UNL     1      84.227  56.251  44.633  0.00  0.00    -0.494 OA
ATOM     29  C   UNL     1      84.614  57.314  43.767  0.00  0.00    +0.079 C 
ENDBRANCH  19  28
ENDBRANCH  11  15
BRANCH   1  31
ATOM     30  C   UNL     1      82.277  49.634  44.300  0.00  0.00    +0.079 C 
ATOM     31  O   UNL     1      83.524  50.198  44.692  0.00  0.00    -0.494 OA
ENDBRANCH   1  31
BRANCH  10  32
ATOM     32  O   UNL     1      88.056  51.333  43.196  0.00  0.00    -0.494 OA
ATOM     33  C   UNL     1      88.308  51.965  41.945  0.00  0.00    +0.079 C 
ENDBRANCH  10  32
TORSDOF 5
ENDMDL
MODEL 7
REMARK VINA RESULT:    -8.039      1.119      2.811
REMARK INTER + INTRA:         -11.496
REMARK INTER:                 -10.351
REMARK INTRA:                  -1.145
REMARK UNBOUND:                -1.106
REMARK  Name = 
REMARK  12 active torsions:
REMARK  status: ('A' for Active; 'I' for Inactive)
REMARK    1  A    between atoms: C_1  and  O_2
REMARK    2  A    between atoms: O_2  and  C_3
REMARK    3  A    between atoms: C_7  and  C_8
REMARK    4  A    between atoms: C_10  and  C_31
REMARK    5  A    between atoms: C_12  and  O_29
REMARK    6  A    between atoms: C_13  and  C_14
REMARK    7  A    between atoms: C_15  and  C_16
REMARK    8  A    between atoms: C_18  and  O_27
REMARK    9  A    between atoms: C_24  and  O_25
REMARK   10  A    between atoms: O_25  and  C_26
REMARK   11  A    between atoms: O_27  and  C_28
REMARK   12  A    between atoms: O_29  and  C_30
REMARK                            x       y       z     vdW  Elec       q    Type
REMARK                         _______ _______ _______ _____ _____    ______ ____
ROOT
ATOM      1  C   UNL     1      85.431  49.350  44.454  0.00  0.00    +0.132 A 
ATOM      2  C   UNL     1      85.429  47.993  44.100  0.00  0.00    -0.016 A 
ATOM      3  C   UNL     1      86.527  47.418  43.452  0.00  0.00    -0.034 A 
ATOM      4  C   UNL     1      86.417  45.991  42.983  0.00  0.00    -0.012 C 
ATOM      5  C   UNL     1      87.783  45.382  42.643  0.00  0.00    +0.009 C 
ATOM      6  C   UNL     1      87.599  44.046  41.915  0.00  0.00    -0.049 C 
ATOM      7  N   UNL     1      88.541  46.317  41.797  0.00  0.00    -0.307 N 
ATOM      8  C   UNL     1      88.878  47.570  42.501  0.00  0.00    +0.034 C 
ATOM      9  C   UNL     1      87.654  48.208  43.145  0.00  0.00    +0.015 A 
ATOM     10  C   UNL     1      87.681  49.572  43.511  0.00  0.00    +0.136 A 
ATOM     11  C   UNL     1      86.553  50.145  44.156  0.00  0.00    +0.067 A 
ATOM     12  C   UNL     1      89.998  47.364  43.541  0.00  0.00    -0.045 C 
ATOM     13  H   UNL     1      87.980  46.543  40.975  0.00  0.00    +0.000 HD
ATOM     14  H   UNL     1      89.416  45.861  41.538  0.00  0.00    +0.000 HD
ENDROOT
BRANCH  11  15
ATOM     15  C   UNL     1      86.470  51.599  44.452  0.00  0.00    +0.000 A 
ATOM     16  C   UNL     1      86.935  52.077  45.696  0.00  0.00    -0.038 A 
ATOM     17  C   UNL     1      87.483  51.136  46.740  0.00  0.00    -0.039 C 
ATOM     18  C   UNL     1      86.864  53.442  45.984  0.00  0.00    -0.016 A 
ATOM     19  C   UNL     1      86.365  54.365  45.049  0.00  0.00    +0.132 A 
ATOM     20  C   UNL     1      85.919  53.908  43.783  0.00  0.00    +0.066 A 
ATOM     21  C   UNL     1      85.975  52.514  43.486  0.00  0.00    -0.003 A 
ATOM     22  C   UNL     1      85.517  52.058  42.232  0.00  0.00    -0.053 A 
ATOM     23  C   UNL     1      85.026  52.949  41.286  0.00  0.00    -0.058 A 
ATOM     24  C   UNL     1      84.975  54.309  41.562  0.00  0.00    -0.019 A 
ATOM     25  C   UNL     1      85.414  54.809  42.802  0.00  0.00    +0.131 A 
BRANCH  25  26
ATOM     26  O   UNL     1      85.358  56.188  43.075  0.00  0.00    -0.494 OA
ATOM     27  C   UNL     1      84.166  56.925  43.326  0.00  0.00    +0.079 C 
ENDBRANCH  25  26
BRANCH  19  28
ATOM     28  O   UNL     1      86.305  55.735  45.362  0.00  0.00    -0.494 OA
ATOM     29  C   UNL     1      86.059  56.274  46.657  0.00  0.00    +0.079 C 
ENDBRANCH  19  28
ENDBRANCH  11  15
BRANCH   1  31
ATOM     30  C   UNL     1      83.027  50.062  44.522  0.00  0.00    +0.079 C 
ATOM     31  O   UNL     1      84.328  49.947  45.089  0.00  0.00    -0.494 OA
ENDBRANCH   1  31
BRANCH  10  32
ATOM     32  O   UNL     1      88.837  50.310  43.190  0.00  0.00    -0.494 OA
ATOM     33  C   UNL     1      89.073  50.992  41.963  0.00  0.00    +0.079 C 
ENDBRANCH  10  32
TORSDOF 5
ENDMDL
MODEL 8
REMARK VINA RESULT:    -6.538     18.363     20.433
REMARK INTER + INTRA:          -9.555
REMARK INTER:                  -9.010
REMARK INTRA:                  -0.545
REMARK UNBOUND:                -1.106
REMARK  Name = 
REMARK  12 active torsions:
REMARK  status: ('A' for Active; 'I' for Inactive)
REMARK    1  A    between atoms: C_1  and  O_2
REMARK    2  A    between atoms: O_2  and  C_3
REMARK    3  A    between atoms: C_7  and  C_8
REMARK    4  A    between atoms: C_10  and  C_31
REMARK    5  A    between atoms: C_12  and  O_29
REMARK    6  A    between atoms: C_13  and  C_14
REMARK    7  A    between atoms: C_15  and  C_16
REMARK    8  A    between atoms: C_18  and  O_27
REMARK    9  A    between atoms: C_24  and  O_25
REMARK   10  A    between atoms: O_25  and  C_26
REMARK   11  A    between atoms: O_27  and  C_28
REMARK   12  A    between atoms: O_29  and  C_30
REMARK                            x       y       z     vdW  Elec       q    Type
REMARK                         _______ _______ _______ _____ _____    ______ ____
ROOT
ATOM      1  C   UNL     1      95.999  66.000  43.886  0.00  0.00    +0.132 A 
ATOM      2  C   UNL     1      96.049  65.397  42.621  0.00  0.00    -0.016 A 
ATOM      3  C   UNL     1      96.219  66.165  41.465  0.00  0.00    -0.034 A 
ATOM      4  C   UNL     1      96.137  65.478  40.127  0.00  0.00    -0.012 C 
ATOM      5  C   UNL     1      96.705  66.340  38.993  0.00  0.00    +0.009 C 
ATOM      6  C   UNL     1      96.349  65.726  37.634  0.00  0.00    -0.049 C 
ATOM      7  N   UNL     1      96.159  67.703  39.089  0.00  0.00    -0.307 N 
ATOM      8  C   UNL     1      96.594  68.400  40.315  0.00  0.00    +0.034 C 
ATOM      9  C   UNL     1      96.340  67.567  41.564  0.00  0.00    +0.015 A 
ATOM     10  C   UNL     1      96.311  68.189  42.832  0.00  0.00    +0.136 A 
ATOM     11  C   UNL     1      96.124  67.397  43.996  0.00  0.00    +0.067 A 
ATOM     12  C   UNL     1      98.071  68.834  40.238  0.00  0.00    -0.045 C 
ATOM     13  H   UNL     1      95.140  67.647  39.087  0.00  0.00    +0.000 HD
ATOM     14  H   UNL     1      96.505  68.233  38.290  0.00  0.00    +0.000 HD
ENDROOT
BRANCH  11  15
ATOM     15  C   UNL     1      95.959  68.003  45.343  0.00  0.00    +0.000 A 
ATOM     16  C   UNL     1      97.105  68.379  46.074  0.00  0.00    -0.038 A 
ATOM     17  C   UNL     1      98.492  68.148  45.529  0.00  0.00    -0.039 C 
ATOM     18  C   UNL     1      96.961  68.952  47.341  0.00  0.00    -0.016 A 
ATOM     19  C   UNL     1      95.695  69.193  47.898  0.00  0.00    +0.132 A 
ATOM     20  C   UNL     1      94.530  68.848  47.167  0.00  0.00    +0.066 A 
ATOM     21  C   UNL     1      94.667  68.249  45.880  0.00  0.00    -0.003 A 
ATOM     22  C   UNL     1      93.509  67.892  45.159  0.00  0.00    -0.053 A 
ATOM     23  C   UNL     1      92.243  68.125  45.682  0.00  0.00    -0.058 A 
ATOM     24  C   UNL     1      92.099  68.714  46.932  0.00  0.00    -0.019 A 
ATOM     25  C   UNL     1      93.225  69.082  47.690  0.00  0.00    +0.131 A 
BRANCH  25  26
ATOM     26  O   UNL     1      93.071  69.677  48.955  0.00  0.00    -0.494 OA
ATOM     27  C   UNL     1      92.295  69.142  50.022  0.00  0.00    +0.079 C 
ENDBRANCH  25  26
BRANCH  19  28
ATOM     28  O   UNL     1      95.576  69.773  49.175  0.00  0.00    -0.494 OA
ATOM     29  C   UNL     1      96.152  69.256  50.370  0.00  0.00    +0.079 C 
ENDBRANCH  19  28
ENDBRANCH  11  15
BRANCH   1  31
ATOM     30  C   UNL     1      96.860  64.717  45.861  0.00  0.00    +0.079 C 
ATOM     31  O   UNL     1      95.811  65.243  45.056  0.00  0.00    -0.494 OA
ENDBRANCH   1  31
BRANCH  10  32
ATOM     32  O   UNL     1      96.448  69.590  42.874  0.00  0.00    -0.494 OA
ATOM     33  C   UNL     1      97.660  70.301  43.103  0.00  0.00    +0.079 C 
ENDBRANCH  10  32
TORSDOF 5
ENDMDL
MODEL 9
REMARK VINA RESULT:    -6.132     17.551     20.561
REMARK INTER + INTRA:          -9.031
REMARK INTER:                  -7.924
REMARK INTRA:                  -1.106
REMARK UNBOUND:                -1.106
REMARK  Name = 
REMARK  12 active torsions:
REMARK  status: ('A' for Active; 'I' for Inactive)
REMARK    1  A    between atoms: C_1  and  O_2
REMARK    2  A    between atoms: O_2  and  C_3
REMARK    3  A    between atoms: C_7  and  C_8
REMARK    4  A    between atoms: C_10  and  C_31
REMARK    5  A    between atoms: C_12  and  O_29
REMARK    6  A    between atoms: C_13  and  C_14
REMARK    7  A    between atoms: C_15  and  C_16
REMARK    8  A    between atoms: C_18  and  O_27
REMARK    9  A    between atoms: C_24  and  O_25
REMARK   10  A    between atoms: O_25  and  C_26
REMARK   11  A    between atoms: O_27  and  C_28
REMARK   12  A    between atoms: O_29  and  C_30
REMARK                            x       y       z     vdW  Elec       q    Type
REMARK                         _______ _______ _______ _____ _____    ______ ____
ROOT
ATOM      1  C   UNL     1      97.825  65.135  43.082  0.00  0.00    +0.132 A 
ATOM      2  C   UNL     1      98.648  64.516  42.130  0.00  0.00    -0.016 A 
ATOM      3  C   UNL     1      99.039  65.191  40.970  0.00  0.00    -0.034 A 
ATOM      4  C   UNL     1      99.815  64.433  39.924  0.00  0.00    -0.012 C 
ATOM      5  C   UNL     1     100.491  65.366  38.911  0.00  0.00    +0.009 C 
ATOM      6  C   UNL     1     101.027  64.555  37.725  0.00  0.00    -0.049 C 
ATOM      7  N   UNL     1      99.522  66.367  38.441  0.00  0.00    -0.307 N 
ATOM      8  C   UNL     1      99.082  67.276  39.518  0.00  0.00    +0.034 C 
ATOM      9  C   UNL     1      98.603  66.513  40.745  0.00  0.00    +0.015 A 
ATOM     10  C   UNL     1      97.789  67.160  41.703  0.00  0.00    +0.136 A 
ATOM     11  C   UNL     1      97.388  66.455  42.869  0.00  0.00    +0.067 A 
ATOM     12  C   UNL     1     100.177  68.292  39.898  0.00  0.00    -0.045 C 
ATOM     13  H   UNL     1      98.706  65.882  38.067  0.00  0.00    +0.000 HD
ATOM     14  H   UNL     1      99.981  66.931  37.726  0.00  0.00    +0.000 HD
ENDROOT
BRANCH  11  15
ATOM     15  C   UNL     1      96.433  67.035  43.849  0.00  0.00    +0.000 A 
ATOM     16  C   UNL     1      95.064  66.704  43.757  0.00  0.00    -0.038 A 
ATOM     17  C   UNL     1      94.551  65.800  42.664  0.00  0.00    -0.039 C 
ATOM     18  C   UNL     1      94.158  67.242  44.674  0.00  0.00    -0.016 A 
ATOM     19  C   UNL     1      94.580  68.087  45.714  0.00  0.00    +0.132 A 
ATOM     20  C   UNL     1      95.955  68.410  45.841  0.00  0.00    +0.066 A 
ATOM     21  C   UNL     1      96.886  67.877  44.900  0.00  0.00    -0.003 A 
ATOM     22  C   UNL     1      98.251  68.209  45.017  0.00  0.00    -0.053 A 
ATOM     23  C   UNL     1      98.698  69.037  46.039  0.00  0.00    -0.058 A 
ATOM     24  C   UNL     1      97.802  69.555  46.965  0.00  0.00    -0.019 A 
ATOM     25  C   UNL     1      96.429  69.256  46.884  0.00  0.00    +0.131 A 
BRANCH  25  26
ATOM     26  O   UNL     1      95.527  69.785  47.825  0.00  0.00    -0.494 OA
ATOM     27  C   UNL     1      95.751  69.847  49.230  0.00  0.00    +0.079 C 
ENDBRANCH  25  26
BRANCH  19  28
ATOM     28  O   UNL     1      93.649  68.615  46.626  0.00  0.00    -0.494 OA
ATOM     29  C   UNL     1      92.233  68.502  46.516  0.00  0.00    +0.079 C 
ENDBRANCH  19  28
ENDBRANCH  11  15
BRANCH   1  31
ATOM     30  C   UNL     1      97.286  63.049  44.366  0.00  0.00    +0.079 C 
ATOM     31  O   UNL     1      97.408  64.463  44.244  0.00  0.00    -0.494 OA
ENDBRANCH   1  31
BRANCH  10  32
ATOM     32  O   UNL     1      97.392  68.483  41.433  0.00  0.00    -0.494 OA
ATOM     33  C   UNL     1      96.236  68.871  40.699  0.00  0.00    +0.079 C 
ENDBRANCH  10  32
TORSDOF 5
ENDMDL
