MODEL 1
REMARK VINA RESULT:    -9.276      0.000      0.000
REMARK INTER + INTRA:         -12.864
REMARK INTER:                 -11.753
REMARK INTRA:                  -1.111
REMARK UNBOUND:                -0.877
REMARK  Name = 
REMARK  12 active torsions:
REMARK  status: ('A' for Active; 'I' for Inactive)
REMARK    1  A    between atoms: C_1  and  O_2
REMARK    2  A    between atoms: O_2  and  C_3
REMARK    3  A    between atoms: C_7  and  C_8
REMARK    4  A    between atoms: C_10  and  C_31
REMARK    5  A    between atoms: C_12  and  O_29
REMARK    6  A    between atoms: C_13  and  C_14
REMARK    7  A    between atoms: C_15  and  C_16
REMARK    8  A    between atoms: C_18  and  O_27
REMARK    9  A    between atoms: C_24  and  O_25
REMARK   10  A    between atoms: O_25  and  C_26
REMARK   11  A    between atoms: O_27  and  C_28
REMARK   12  A    between atoms: O_29  and  C_30
REMARK                            x       y       z     vdW  Elec       q    Type
REMARK                         _______ _______ _______ _____ _____    ______ ____
ROOT
ATOM      1  C   UNL     1      88.162  49.434  42.877  0.00  0.00    +0.132 A 
ATOM      2  C   UNL     1      88.401  48.109  42.486  0.00  0.00    -0.016 A 
ATOM      3  C   UNL     1      87.482  47.096  42.776  0.00  0.00    -0.034 A 
ATOM      4  C   UNL     1      87.851  45.674  42.445  0.00  0.00    -0.012 C 
ATOM      5  C   UNL     1      86.636  44.738  42.461  0.00  0.00    +0.009 C 
ATOM      6  C   UNL     1      87.096  43.277  42.397  0.00  0.00    -0.049 C 
ATOM      7  N   UNL     1      85.855  44.967  43.686  0.00  0.00    -0.307 N 
ATOM      8  C   UNL     1      85.260  46.317  43.732  0.00  0.00    +0.034 C 
ATOM      9  C   UNL     1      86.295  47.404  43.474  0.00  0.00    +0.015 A 
ATOM     10  C   UNL     1      86.029  48.737  43.859  0.00  0.00    +0.136 A 
ATOM     11  C   UNL     1      86.979  49.752  43.570  0.00  0.00    +0.067 A 
ATOM     12  C   UNL     1      84.069  46.456  42.763  0.00  0.00    -0.045 C 
ATOM     13  H   UNL     1      86.469  44.851  44.492  0.00  0.00    +0.000 HD
ATOM     14  H   UNL     1      85.091  44.291  43.698  0.00  0.00    +0.000 HD
ENDROOT
BRANCH  11  15
ATOM     15  C   UNL     1      86.815  51.146  44.058  0.00  0.00    +0.000 A 
ATOM     16  C   UNL     1      87.242  51.473  45.363  0.00  0.00    -0.038 A 
ATOM     17  C   UNL     1      87.830  50.430  46.279  0.00  0.00    -0.039 C 
ATOM     18  C   UNL     1      87.094  52.782  45.831  0.00  0.00    -0.016 A 
ATOM     19  C   UNL     1      86.555  53.795  45.022  0.00  0.00    +0.132 A 
ATOM     20  C   UNL     1      86.146  53.492  43.698  0.00  0.00    +0.066 A 
ATOM     21  C   UNL     1      86.280  52.156  43.216  0.00  0.00    -0.003 A 
ATOM     22  C   UNL     1      85.860  51.851  41.905  0.00  0.00    -0.053 A 
ATOM     23  C   UNL     1      85.329  52.835  41.080  0.00  0.00    -0.058 A 
ATOM     24  C   UNL     1      85.202  54.140  41.536  0.00  0.00    -0.019 A 
ATOM     25  C   UNL     1      85.602  54.490  42.839  0.00  0.00    +0.131 A 
BRANCH  25  26
ATOM     26  O   UNL     1      85.469  55.814  43.295  0.00  0.00    -0.494 OA
ATOM     27  C   UNL     1      84.278  56.591  43.217  0.00  0.00    +0.079 C 
ENDBRANCH  25  26
BRANCH  19  28
ATOM     28  O   UNL     1      86.418  55.105  45.516  0.00  0.00    -0.494 OA
ATOM     29  C   UNL     1      85.968  55.449  46.822  0.00  0.00    +0.079 C 
ENDBRANCH  19  28
ENDBRANCH  11  15
BRANCH   1  31
ATOM     30  C   UNL     1      89.495  50.865  41.307  0.00  0.00    +0.079 C 
ATOM     31  O   UNL     1      89.085  50.460  42.609  0.00  0.00    -0.494 OA
ENDBRANCH   1  31
BRANCH  10  32
ATOM     32  O   UNL     1      84.824  48.988  44.543  0.00  0.00    -0.494 OA
ATOM     33  C   UNL     1      83.681  49.641  44.001  0.00  0.00    +0.079 C 
ENDBRANCH  10  32
TORSDOF 5
ENDMDL
MODEL 2
REMARK VINA RESULT:    -9.222      2.995      7.606
REMARK INTER + INTRA:         -12.795
REMARK INTER:                 -11.869
REMARK INTRA:                  -0.926
REMARK UNBOUND:                -0.877
REMARK  Name = 
REMARK  12 active torsions:
REMARK  status: ('A' for Active; 'I' for Inactive)
REMARK    1  A    between atoms: C_1  and  O_2
REMARK    2  A    between atoms: O_2  and  C_3
REMARK    3  A    between atoms: C_7  and  C_8
REMARK    4  A    between atoms: C_10  and  C_31
REMARK    5  A    between atoms: C_12  and  O_29
REMARK    6  A    between atoms: C_13  and  C_14
REMARK    7  A    between atoms: C_15  and  C_16
REMARK    8  A    between atoms: C_18  and  O_27
REMARK    9  A    between atoms: C_24  and  O_25
REMARK   10  A    between atoms: O_25  and  C_26
REMARK   11  A    between atoms: O_27  and  C_28
REMARK   12  A    between atoms: O_29  and  C_30
REMARK                            x       y       z     vdW  Elec       q    Type
REMARK                         _______ _______ _______ _____ _____    ______ ____
ROOT
ATOM      1  C   UNL     1      85.527  53.036  42.820  0.00  0.00    +0.132 A 
ATOM      2  C   UNL     1      85.585  54.436  42.803  0.00  0.00    -0.016 A 
ATOM      3  C   UNL     1      85.337  55.180  43.961  0.00  0.00    -0.034 A 
ATOM      4  C   UNL     1      85.288  56.682  43.854  0.00  0.00    -0.012 C 
ATOM      5  C   UNL     1      85.387  57.367  45.223  0.00  0.00    +0.009 C 
ATOM      6  C   UNL     1      85.056  58.858  45.091  0.00  0.00    -0.049 C 
ATOM      7  N   UNL     1      84.456  56.725  46.163  0.00  0.00    -0.307 N 
ATOM      8  C   UNL     1      84.816  55.321  46.444  0.00  0.00    +0.034 C 
ATOM      9  C   UNL     1      85.020  54.519  45.166  0.00  0.00    +0.015 A 
ATOM     10  C   UNL     1      84.975  53.107  45.206  0.00  0.00    +0.136 A 
ATOM     11  C   UNL     1      85.215  52.367  44.018  0.00  0.00    +0.067 A 
ATOM     12  C   UNL     1      86.053  55.216  47.359  0.00  0.00    -0.045 C 
ATOM     13  H   UNL     1      83.518  56.749  45.762  0.00  0.00    +0.000 HD
ATOM     14  H   UNL     1      84.499  57.239  47.043  0.00  0.00    +0.000 HD
ENDROOT
BRANCH  11  15
ATOM     15  C   UNL     1      85.059  50.890  43.966  0.00  0.00    +0.000 A 
ATOM     16  C   UNL     1      86.157  50.068  44.301  0.00  0.00    -0.038 A 
ATOM     17  C   UNL     1      87.491  50.661  44.677  0.00  0.00    -0.039 C 
ATOM     18  C   UNL     1      86.019  48.678  44.257  0.00  0.00    -0.016 A 
ATOM     19  C   UNL     1      84.800  48.071  43.916  0.00  0.00    +0.132 A 
ATOM     20  C   UNL     1      83.678  48.879  43.604  0.00  0.00    +0.066 A 
ATOM     21  C   UNL     1      83.812  50.299  43.631  0.00  0.00    -0.003 A 
ATOM     22  C   UNL     1      82.700  51.102  43.306  0.00  0.00    -0.053 A 
ATOM     23  C   UNL     1      81.479  50.528  42.971  0.00  0.00    -0.058 A 
ATOM     24  C   UNL     1      81.336  49.147  42.950  0.00  0.00    -0.019 A 
ATOM     25  C   UNL     1      82.420  48.305  43.260  0.00  0.00    +0.131 A 
BRANCH  25  26
ATOM     26  O   UNL     1      82.267  46.908  43.235  0.00  0.00    -0.494 OA
ATOM     27  C   UNL     1      81.281  46.178  43.959  0.00  0.00    +0.079 C 
ENDBRANCH  25  26
BRANCH  19  28
ATOM     28  O   UNL     1      84.687  46.669  43.881  0.00  0.00    -0.494 OA
ATOM     29  C   UNL     1      85.766  45.752  44.034  0.00  0.00    +0.079 C 
ENDBRANCH  19  28
ENDBRANCH  11  15
BRANCH   1  31
ATOM     30  C   UNL     1      87.004  52.183  40.981  0.00  0.00    +0.079 C 
ATOM     31  O   UNL     1      85.755  52.275  41.660  0.00  0.00    -0.494 OA
ENDBRANCH   1  31
BRANCH  10  32
ATOM     32  O   UNL     1      84.664  52.500  46.438  0.00  0.00    -0.494 OA
ATOM     33  C   UNL     1      85.607  51.979  47.369  0.00  0.00    +0.079 C 
ENDBRANCH  10  32
TORSDOF 5
ENDMDL
MODEL 3
REMARK VINA RESULT:    -9.122      2.840      7.713
REMARK INTER + INTRA:         -12.665
REMARK INTER:                 -11.541
REMARK INTRA:                  -1.124
REMARK UNBOUND:                -0.877
REMARK  Name = 
REMARK  12 active torsions:
REMARK  status: ('A' for Active; 'I' for Inactive)
REMARK    1  A    between atoms: C_1  and  O_2
REMARK    2  A    between atoms: O_2  and  C_3
REMARK    3  A    between atoms: C_7  and  C_8
REMARK    4  A    between atoms: C_10  and  C_31
REMARK    5  A    between atoms: C_12  and  O_29
REMARK    6  A    between atoms: C_13  and  C_14
REMARK    7  A    between atoms: C_15  and  C_16
REMARK    8  A    between atoms: C_18  and  O_27
REMARK    9  A    between atoms: C_24  and  O_25
REMARK   10  A    between atoms: O_25  and  C_26
REMARK   11  A    between atoms: O_27  and  C_28
REMARK   12  A    between atoms: O_29  and  C_30
REMARK                            x       y       z     vdW  Elec       q    Type
REMARK                         _______ _______ _______ _____ _____    ______ ____
ROOT
ATOM      1  C   UNL     1      85.759  52.140  45.729  0.00  0.00    +0.132 A 
ATOM      2  C   UNL     1      85.658  53.455  46.204  0.00  0.00    -0.016 A 
ATOM      3  C   UNL     1      85.491  54.528  45.322  0.00  0.00    -0.034 A 
ATOM      4  C   UNL     1      85.518  55.927  45.879  0.00  0.00    -0.012 C 
ATOM      5  C   UNL     1      84.956  56.958  44.891  0.00  0.00    +0.009 C 
ATOM      6  C   UNL     1      85.258  58.378  45.383  0.00  0.00    -0.049 C 
ATOM      7  N   UNL     1      85.555  56.745  43.565  0.00  0.00    -0.307 N 
ATOM      8  C   UNL     1      85.174  55.447  42.974  0.00  0.00    +0.034 C 
ATOM      9  C   UNL     1      85.424  54.291  43.933  0.00  0.00    +0.015 A 
ATOM     10  C   UNL     1      85.505  52.970  43.438  0.00  0.00    +0.136 A 
ATOM     11  C   UNL     1      85.689  51.893  44.346  0.00  0.00    +0.067 A 
ATOM     12  C   UNL     1      83.712  55.444  42.484  0.00  0.00    -0.045 C 
ATOM     13  H   UNL     1      86.570  56.779  43.655  0.00  0.00    +0.000 HD
ATOM     14  H   UNL     1      85.210  57.480  42.947  0.00  0.00    +0.000 HD
ENDROOT
BRANCH  11  15
ATOM     15  C   UNL     1      85.907  50.499  43.879  0.00  0.00    +0.000 A 
ATOM     16  C   UNL     1      87.220  50.060  43.608  0.00  0.00    -0.038 A 
ATOM     17  C   UNL     1      88.400  50.988  43.752  0.00  0.00    -0.039 C 
ATOM     18  C   UNL     1      87.436  48.750  43.170  0.00  0.00    -0.016 A 
ATOM     19  C   UNL     1      86.375  47.842  43.020  0.00  0.00    +0.132 A 
ATOM     20  C   UNL     1      85.051  48.256  43.314  0.00  0.00    +0.066 A 
ATOM     21  C   UNL     1      84.820  49.595  43.747  0.00  0.00    -0.003 A 
ATOM     22  C   UNL     1      83.501  50.010  44.026  0.00  0.00    -0.053 A 
ATOM     23  C   UNL     1      82.434  49.131  43.893  0.00  0.00    -0.058 A 
ATOM     24  C   UNL     1      82.649  47.823  43.479  0.00  0.00    -0.019 A 
ATOM     25  C   UNL     1      83.947  47.365  43.184  0.00  0.00    +0.131 A 
BRANCH  25  26
ATOM     26  O   UNL     1      84.157  46.040  42.764  0.00  0.00    -0.494 OA
ATOM     27  C   UNL     1      84.026  44.888  43.592  0.00  0.00    +0.079 C 
ENDBRANCH  25  26
BRANCH  19  28
ATOM     28  O   UNL     1      86.618  46.528  42.579  0.00  0.00    -0.494 OA
ATOM     29  C   UNL     1      87.882  46.021  42.161  0.00  0.00    +0.079 C 
ENDBRANCH  19  28
ENDBRANCH  11  15
BRANCH   1  31
ATOM     30  C   UNL     1      87.079  50.874  47.444  0.00  0.00    +0.079 C 
ATOM     31  O   UNL     1      85.946  51.054  46.602  0.00  0.00    -0.494 OA
ENDBRANCH   1  31
BRANCH  10  32
ATOM     32  O   UNL     1      85.421  52.791  42.044  0.00  0.00    -0.494 OA
ATOM     33  C   UNL     1      86.521  52.775  41.140  0.00  0.00    +0.079 C 
ENDBRANCH  10  32
TORSDOF 5
ENDMDL
MODEL 4
REMARK VINA RESULT:    -9.071      1.452      3.077
REMARK INTER + INTRA:         -12.600
REMARK INTER:                 -11.515
REMARK INTRA:                  -1.085
REMARK UNBOUND:                -0.877
REMARK  Name = 
REMARK  12 active torsions:
REMARK  status: ('A' for Active; 'I' for Inactive)
REMARK    1  A    between atoms: C_1  and  O_2
REMARK    2  A    between atoms: O_2  and  C_3
REMARK    3  A    between atoms: C_7  and  C_8
REMARK    4  A    between atoms: C_10  and  C_31
REMARK    5  A    between atoms: C_12  and  O_29
REMARK    6  A    between atoms: C_13  and  C_14
REMARK    7  A    between atoms: C_15  and  C_16
REMARK    8  A    between atoms: C_18  and  O_27
REMARK    9  A    between atoms: C_24  and  O_25
REMARK   10  A    between atoms: O_25  and  C_26
REMARK   11  A    between atoms: O_27  and  C_28
REMARK   12  A    between atoms: O_29  and  C_30
REMARK                            x       y       z     vdW  Elec       q    Type
REMARK                         _______ _______ _______ _____ _____    ______ ____
ROOT
ATOM      1  C   UNL     1      87.298  49.768  43.159  0.00  0.00    +0.132 A 
ATOM      2  C   UNL     1      87.733  48.498  42.756  0.00  0.00    -0.016 A 
ATOM      3  C   UNL     1      86.905  47.378  42.889  0.00  0.00    -0.034 A 
ATOM      4  C   UNL     1      87.473  46.022  42.560  0.00  0.00    -0.012 C 
ATOM      5  C   UNL     1      86.380  44.960  42.386  0.00  0.00    +0.009 C 
ATOM      6  C   UNL     1      87.007  43.563  42.331  0.00  0.00    -0.049 C 
ATOM      7  N   UNL     1      85.430  45.043  43.506  0.00  0.00    -0.307 N 
ATOM      8  C   UNL     1      84.685  46.318  43.522  0.00  0.00    +0.034 C 
ATOM      9  C   UNL     1      85.614  47.521  43.438  0.00  0.00    +0.015 A 
ATOM     10  C   UNL     1      85.152  48.797  43.831  0.00  0.00    +0.136 A 
ATOM     11  C   UNL     1      86.009  49.922  43.703  0.00  0.00    +0.067 A 
ATOM     12  C   UNL     1      83.616  46.374  42.412  0.00  0.00    -0.045 C 
ATOM     13  H   UNL     1      85.948  44.955  44.381  0.00  0.00    +0.000 HD
ATOM     14  H   UNL     1      84.753  44.289  43.395  0.00  0.00    +0.000 HD
ENDROOT
BRANCH  11  15
ATOM     15  C   UNL     1      85.628  51.264  44.214  0.00  0.00    +0.000 A 
ATOM     16  C   UNL     1      85.059  52.203  43.327  0.00  0.00    -0.038 A 
ATOM     17  C   UNL     1      84.860  51.880  41.868  0.00  0.00    -0.039 C 
ATOM     18  C   UNL     1      84.695  53.467  43.799  0.00  0.00    -0.016 A 
ATOM     19  C   UNL     1      84.855  53.823  45.148  0.00  0.00    +0.132 A 
ATOM     20  C   UNL     1      85.400  52.883  46.060  0.00  0.00    +0.066 A 
ATOM     21  C   UNL     1      85.787  51.595  45.586  0.00  0.00    -0.003 A 
ATOM     22  C   UNL     1      86.343  50.667  46.490  0.00  0.00    -0.053 A 
ATOM     23  C   UNL     1      86.507  50.988  47.831  0.00  0.00    -0.058 A 
ATOM     24  C   UNL     1      86.125  52.237  48.305  0.00  0.00    -0.019 A 
ATOM     25  C   UNL     1      85.572  53.198  47.439  0.00  0.00    +0.131 A 
BRANCH  25  26
ATOM     26  O   UNL     1      85.189  54.461  47.926  0.00  0.00    -0.494 OA
ATOM     27  C   UNL     1      84.223  54.686  48.948  0.00  0.00    +0.079 C 
ENDBRANCH  25  26
BRANCH  19  28
ATOM     28  O   UNL     1      84.479  55.101  45.598  0.00  0.00    -0.494 OA
ATOM     29  C   UNL     1      84.616  56.309  44.855  0.00  0.00    +0.079 C 
ENDBRANCH  19  28
ENDBRANCH  11  15
BRANCH   1  31
ATOM     30  C   UNL     1      88.693  51.375  41.833  0.00  0.00    +0.079 C 
ATOM     31  O   UNL     1      88.125  50.900  43.048  0.00  0.00    -0.494 OA
ENDBRANCH   1  31
BRANCH  10  32
ATOM     32  O   UNL     1      83.850  48.883  44.362  0.00  0.00    -0.494 OA
ATOM     33  C   UNL     1      82.725  49.467  43.714  0.00  0.00    +0.079 C 
ENDBRANCH  10  32
TORSDOF 5
ENDMDL
MODEL 5
REMARK VINA RESULT:    -8.804      2.766      7.700
REMARK INTER + INTRA:         -12.254
REMARK INTER:                 -11.026
REMARK INTRA:                  -1.228
REMARK UNBOUND:                -0.877
REMARK  Name = 
REMARK  12 active torsions:
REMARK  status: ('A' for Active; 'I' for Inactive)
REMARK    1  A    between atoms: C_1  and  O_2
REMARK    2  A    between atoms: O_2  and  C_3
REMARK    3  A    between atoms: C_7  and  C_8
REMARK    4  A    between atoms: C_10  and  C_31
REMARK    5  A    between atoms: C_12  and  O_29
REMARK    6  A    between atoms: C_13  and  C_14
REMARK    7  A    between atoms: C_15  and  C_16
REMARK    8  A    between atoms: C_18  and  O_27
REMARK    9  A    between atoms: C_24  and  O_25
REMARK   10  A    between atoms: O_25  and  C_26
REMARK   11  A    between atoms: O_27  and  C_28
REMARK   12  A    between atoms: O_29  and  C_30
REMARK                            x       y       z     vdW  Elec       q    Type
REMARK                         _______ _______ _______ _____ _____    ______ ____
ROOT
ATOM      1  C   UNL     1      85.776  51.762  45.607  0.00  0.00    +0.132 A 
ATOM      2  C   UNL     1      85.777  53.083  46.078  0.00  0.00    -0.016 A 
ATOM      3  C   UNL     1      85.611  54.159  45.201  0.00  0.00    -0.034 A 
ATOM      4  C   UNL     1      85.749  55.557  45.745  0.00  0.00    -0.012 C 
ATOM      5  C   UNL     1      85.181  56.613  44.789  0.00  0.00    +0.009 C 
ATOM      6  C   UNL     1      85.590  58.017  45.250  0.00  0.00    -0.049 C 
ATOM      7  N   UNL     1      85.681  56.364  43.428  0.00  0.00    -0.307 N 
ATOM      8  C   UNL     1      85.193  55.086  42.872  0.00  0.00    +0.034 C 
ATOM      9  C   UNL     1      85.442  53.922  43.821  0.00  0.00    +0.015 A 
ATOM     10  C   UNL     1      85.420  52.597  43.331  0.00  0.00    +0.136 A 
ATOM     11  C   UNL     1      85.604  51.514  44.232  0.00  0.00    +0.067 A 
ATOM     12  C   UNL     1      83.705  55.160  42.477  0.00  0.00    -0.045 C 
ATOM     13  H   UNL     1      86.700  56.344  43.453  0.00  0.00    +0.000 HD
ATOM     14  H   UNL     1      85.337  57.115  42.829  0.00  0.00    +0.000 HD
ENDROOT
BRANCH  11  15
ATOM     15  C   UNL     1      85.716  50.109  43.762  0.00  0.00    +0.000 A 
ATOM     16  C   UNL     1      84.554  49.312  43.690  0.00  0.00    -0.038 A 
ATOM     17  C   UNL     1      83.209  49.849  44.112  0.00  0.00    -0.039 C 
ATOM     18  C   UNL     1      84.648  47.989  43.248  0.00  0.00    -0.016 A 
ATOM     19  C   UNL     1      85.873  47.437  42.840  0.00  0.00    +0.132 A 
ATOM     20  C   UNL     1      87.047  48.230  42.878  0.00  0.00    +0.066 A 
ATOM     21  C   UNL     1      86.964  49.577  43.342  0.00  0.00    -0.003 A 
ATOM     22  C   UNL     1      88.134  50.362  43.395  0.00  0.00    -0.053 A 
ATOM     23  C   UNL     1      89.358  49.843  42.991  0.00  0.00    -0.058 A 
ATOM     24  C   UNL     1      89.449  48.536  42.530  0.00  0.00    -0.019 A 
ATOM     25  C   UNL     1      88.309  47.714  42.466  0.00  0.00    +0.131 A 
BRANCH  25  26
ATOM     26  O   UNL     1      88.410  46.391  42.000  0.00  0.00    -0.494 OA
ATOM     27  C   UNL     1      89.347  45.426  42.468  0.00  0.00    +0.079 C 
ENDBRANCH  25  26
BRANCH  19  28
ATOM     28  O   UNL     1      85.941  46.103  42.397  0.00  0.00    -0.494 OA
ATOM     29  C   UNL     1      84.880  45.157  42.469  0.00  0.00    +0.079 C 
ENDBRANCH  19  28
ENDBRANCH  11  15
BRANCH   1  31
ATOM     30  C   UNL     1      87.138  50.427  47.234  0.00  0.00    +0.079 C 
ATOM     31  O   UNL     1      85.960  50.670  46.473  0.00  0.00    -0.494 OA
ENDBRANCH   1  31
BRANCH  10  32
ATOM     32  O   UNL     1      85.236  52.417  41.946  0.00  0.00    -0.494 OA
ATOM     33  C   UNL     1      86.262  52.457  40.960  0.00  0.00    +0.079 C 
ENDBRANCH  10  32
TORSDOF 5
ENDMDL
MODEL 6
REMARK VINA RESULT:    -8.426      2.815      7.740
REMARK INTER + INTRA:         -11.766
REMARK INTER:                 -10.750
REMARK INTRA:                  -1.016
REMARK UNBOUND:                -0.877
REMARK  Name = 
REMARK  12 active torsions:
REMARK  status: ('A' for Active; 'I' for Inactive)
REMARK    1  A    between atoms: C_1  and  O_2
REMARK    2  A    between atoms: O_2  and  C_3
REMARK    3  A    between atoms: C_7  and  C_8
REMARK    4  A    between atoms: C_10  and  C_31
REMARK    5  A    between atoms: C_12  and  O_29
REMARK    6  A    between atoms: C_13  and  C_14
REMARK    7  A    between atoms: C_15  and  C_16
REMARK    8  A    between atoms: C_18  and  O_27
REMARK    9  A    between atoms: C_24  and  O_25
REMARK   10  A    between atoms: O_25  and  C_26
REMARK   11  A    between atoms: O_27  and  C_28
REMARK   12  A    between atoms: O_29  and  C_30
REMARK                            x       y       z     vdW  Elec       q    Type
REMARK                         _______ _______ _______ _____ _____    ______ ____
ROOT
ATOM      1  C   UNL     1      85.238  53.259  42.635  0.00  0.00    +0.132 A 
ATOM      2  C   UNL     1      85.124  54.652  42.747  0.00  0.00    -0.016 A 
ATOM      3  C   UNL     1      85.013  55.266  43.999  0.00  0.00    -0.034 A 
ATOM      4  C   UNL     1      84.764  56.750  44.051  0.00  0.00    -0.012 C 
ATOM      5  C   UNL     1      85.039  57.339  45.441  0.00  0.00    +0.009 C 
ATOM      6  C   UNL     1      84.512  58.776  45.518  0.00  0.00    -0.049 C 
ATOM      7  N   UNL     1      84.388  56.507  46.464  0.00  0.00    -0.307 N 
ATOM      8  C   UNL     1      84.961  55.148  46.536  0.00  0.00    +0.034 C 
ATOM      9  C   UNL     1      85.013  54.479  45.169  0.00  0.00    +0.015 A 
ATOM     10  C   UNL     1      85.146  53.076  45.076  0.00  0.00    +0.136 A 
ATOM     11  C   UNL     1      85.243  52.466  43.797  0.00  0.00    +0.067 A 
ATOM     12  C   UNL     1      86.353  55.144  47.200  0.00  0.00    -0.045 C 
ATOM     13  H   UNL     1      83.395  56.432  46.242  0.00  0.00    +0.000 HD
ATOM     14  H   UNL     1      84.536  56.955  47.368  0.00  0.00    +0.000 HD
ENDROOT
BRANCH  11  15
ATOM     15  C   UNL     1      85.259  50.989  43.629  0.00  0.00    +0.000 A 
ATOM     16  C   UNL     1      84.041  50.278  43.672  0.00  0.00    -0.038 A 
ATOM     17  C   UNL     1      82.731  50.984  43.918  0.00  0.00    -0.039 C 
ATOM     18  C   UNL     1      84.045  48.889  43.513  0.00  0.00    -0.016 A 
ATOM     19  C   UNL     1      85.234  48.180  43.279  0.00  0.00    +0.132 A 
ATOM     20  C   UNL     1      86.465  48.880  43.204  0.00  0.00    +0.066 A 
ATOM     21  C   UNL     1      86.473  50.295  43.380  0.00  0.00    -0.003 A 
ATOM     22  C   UNL     1      87.699  50.990  43.320  0.00  0.00    -0.053 A 
ATOM     23  C   UNL     1      88.890  50.315  43.084  0.00  0.00    -0.058 A 
ATOM     24  C   UNL     1      88.891  48.938  42.903  0.00  0.00    -0.019 A 
ATOM     25  C   UNL     1      87.694  48.202  42.961  0.00  0.00    +0.131 A 
BRANCH  25  26
ATOM     26  O   UNL     1      87.704  46.808  42.778  0.00  0.00    -0.494 OA
ATOM     27  C   UNL     1      88.686  46.085  42.043  0.00  0.00    +0.079 C 
ENDBRANCH  25  26
BRANCH  19  28
ATOM     28  O   UNL     1      85.211  46.782  43.121  0.00  0.00    -0.494 OA
ATOM     29  C   UNL     1      84.235  46.054  42.381  0.00  0.00    +0.079 C 
ENDBRANCH  19  28
ENDBRANCH  11  15
BRANCH   1  31
ATOM     30  C   UNL     1      86.381  52.834  40.444  0.00  0.00    +0.079 C 
ATOM     31  O   UNL     1      85.332  52.625  41.384  0.00  0.00    -0.494 OA
ENDBRANCH   1  31
BRANCH  10  32
ATOM     32  O   UNL     1      85.152  52.341  46.278  0.00  0.00    -0.494 OA
ATOM     33  C   UNL     1      86.275  51.667  46.835  0.00  0.00    +0.079 C 
ENDBRANCH  10  32
TORSDOF 5
ENDMDL
MODEL 7
REMARK VINA RESULT:    -7.930      1.680      4.132
REMARK INTER + INTRA:         -11.125
REMARK INTER:                 -10.346
REMARK INTRA:                  -0.779
REMARK UNBOUND:                -0.877
REMARK  Name = 
REMARK  12 active torsions:
REMARK  status: ('A' for Active; 'I' for Inactive)
REMARK    1  A    between atoms: C_1  and  O_2
REMARK    2  A    between atoms: O_2  and  C_3
REMARK    3  A    between atoms: C_7  and  C_8
REMARK    4  A    between atoms: C_10  and  C_31
REMARK    5  A    between atoms: C_12  and  O_29
REMARK    6  A    between atoms: C_13  and  C_14
REMARK    7  A    between atoms: C_15  and  C_16
REMARK    8  A    between atoms: C_18  and  O_27
REMARK    9  A    between atoms: C_24  and  O_25
REMARK   10  A    between atoms: O_25  and  C_26
REMARK   11  A    between atoms: O_27  and  C_28
REMARK   12  A    between atoms: O_29  and  C_30
REMARK                            x       y       z     vdW  Elec       q    Type
REMARK                         _______ _______ _______ _____ _____    ______ ____
ROOT
ATOM      1  C   UNL     1      85.014  50.264  43.603  0.00  0.00    +0.132 A 
ATOM      2  C   UNL     1      85.271  48.908  43.354  0.00  0.00    -0.016 A 
ATOM      3  C   UNL     1      86.542  48.478  42.960  0.00  0.00    -0.034 A 
ATOM      4  C   UNL     1      86.725  47.031  42.584  0.00  0.00    -0.012 C 
ATOM      5  C   UNL     1      88.204  46.623  42.543  0.00  0.00    +0.009 C 
ATOM      6  C   UNL     1      88.351  45.242  41.893  0.00  0.00    -0.049 C 
ATOM      7  N   UNL     1      88.969  47.623  41.783  0.00  0.00    -0.307 N 
ATOM      8  C   UNL     1      88.986  48.943  42.444  0.00  0.00    +0.034 C 
ATOM      9  C   UNL     1      87.584  49.415  42.806  0.00  0.00    +0.015 A 
ATOM     10  C   UNL     1      87.348  50.783  43.071  0.00  0.00    +0.136 A 
ATOM     11  C   UNL     1      86.048  51.206  43.456  0.00  0.00    +0.067 A 
ATOM     12  C   UNL     1      89.904  48.956  43.682  0.00  0.00    -0.045 C 
ATOM     13  H   UNL     1      88.549  47.723  40.859  0.00  0.00    +0.000 HD
ATOM     14  H   UNL     1      89.933  47.294  41.722  0.00  0.00    +0.000 HD
ENDROOT
BRANCH  11  15
ATOM     15  C   UNL     1      85.707  52.643  43.626  0.00  0.00    +0.000 A 
ATOM     16  C   UNL     1      85.347  53.404  42.493  0.00  0.00    -0.038 A 
ATOM     17  C   UNL     1      85.335  52.795  41.113  0.00  0.00    -0.039 C 
ATOM     18  C   UNL     1      85.022  54.755  42.642  0.00  0.00    -0.016 A 
ATOM     19  C   UNL     1      85.015  55.374  43.903  0.00  0.00    +0.132 A 
ATOM     20  C   UNL     1      85.346  54.619  45.057  0.00  0.00    +0.066 A 
ATOM     21  C   UNL     1      85.693  53.243  44.913  0.00  0.00    -0.003 A 
ATOM     22  C   UNL     1      86.037  52.496  46.059  0.00  0.00    -0.053 A 
ATOM     23  C   UNL     1      86.031  53.081  47.319  0.00  0.00    -0.058 A 
ATOM     24  C   UNL     1      85.687  54.417  47.470  0.00  0.00    -0.019 A 
ATOM     25  C   UNL     1      85.343  55.204  46.356  0.00  0.00    +0.131 A 
BRANCH  25  26
ATOM     26  O   UNL     1      84.997  56.557  46.517  0.00  0.00    -0.494 OA
ATOM     27  C   UNL     1      83.723  57.032  46.944  0.00  0.00    +0.079 C 
ENDBRANCH  25  26
BRANCH  19  28
ATOM     28  O   UNL     1      84.682  56.735  44.027  0.00  0.00    -0.494 OA
ATOM     29  C   UNL     1      85.497  57.823  43.602  0.00  0.00    +0.079 C 
ENDBRANCH  19  28
ENDBRANCH  11  15
BRANCH   1  31
ATOM     30  C   UNL     1      82.564  50.599  43.183  0.00  0.00    +0.079 C 
ATOM     31  O   UNL     1      83.737  50.715  43.982  0.00  0.00    -0.494 OA
ENDBRANCH   1  31
BRANCH  10  32
ATOM     32  O   UNL     1      88.428  51.673  42.912  0.00  0.00    -0.494 OA
ATOM     33  C   UNL     1      88.845  52.263  41.686  0.00  0.00    +0.079 C 
ENDBRANCH  10  32
TORSDOF 5
ENDMDL
MODEL 8
REMARK VINA RESULT:    -7.813      1.122      2.814
REMARK INTER + INTRA:         -10.974
REMARK INTER:                  -9.879
REMARK INTRA:                  -1.096
REMARK UNBOUND:                -0.877
REMARK  Name = 
REMARK  12 active torsions:
REMARK  status: ('A' for Active; 'I' for Inactive)
REMARK    1  A    between atoms: C_1  and  O_2
REMARK    2  A    between atoms: O_2  and  C_3
REMARK    3  A    between atoms: C_7  and  C_8
REMARK    4  A    between atoms: C_10  and  C_31
REMARK    5  A    between atoms: C_12  and  O_29
REMARK    6  A    between atoms: C_13  and  C_14
REMARK    7  A    between atoms: C_15  and  C_16
REMARK    8  A    between atoms: C_18  and  O_27
REMARK    9  A    between atoms: C_24  and  O_25
REMARK   10  A    between atoms: O_25  and  C_26
REMARK   11  A    between atoms: O_27  and  C_28
REMARK   12  A    between atoms: O_29  and  C_30
REMARK                            x       y       z     vdW  Elec       q    Type
REMARK                         _______ _______ _______ _____ _____    ______ ____
ROOT
ATOM      1  C   UNL     1      85.553  49.398  44.244  0.00  0.00    +0.132 A 
ATOM      2  C   UNL     1      85.577  48.040  43.895  0.00  0.00    -0.016 A 
ATOM      3  C   UNL     1      86.679  47.487  43.235  0.00  0.00    -0.034 A 
ATOM      4  C   UNL     1      86.595  46.056  42.772  0.00  0.00    -0.012 C 
ATOM      5  C   UNL     1      87.971  45.477  42.417  0.00  0.00    +0.009 C 
ATOM      6  C   UNL     1      87.807  44.134  41.696  0.00  0.00    -0.049 C 
ATOM      7  N   UNL     1      88.696  46.425  41.557  0.00  0.00    -0.307 N 
ATOM      8  C   UNL     1      89.014  47.689  42.252  0.00  0.00    +0.034 C 
ATOM      9  C   UNL     1      87.784  48.301  42.909  0.00  0.00    +0.015 A 
ATOM     10  C   UNL     1      87.785  49.667  43.270  0.00  0.00    +0.136 A 
ATOM     11  C   UNL     1      86.652  50.217  43.928  0.00  0.00    +0.067 A 
ATOM     12  C   UNL     1      90.151  47.512  43.278  0.00  0.00    -0.045 C 
ATOM     13  H   UNL     1      88.119  46.635  40.742  0.00  0.00    +0.000 HD
ATOM     14  H   UNL     1      89.578  45.989  41.288  0.00  0.00    +0.000 HD
ENDROOT
BRANCH  11  15
ATOM     15  C   UNL     1      86.540  51.670  44.219  0.00  0.00    +0.000 A 
ATOM     16  C   UNL     1      87.007  52.162  45.457  0.00  0.00    -0.038 A 
ATOM     17  C   UNL     1      87.586  51.238  46.498  0.00  0.00    -0.039 C 
ATOM     18  C   UNL     1      86.908  53.527  45.740  0.00  0.00    -0.016 A 
ATOM     19  C   UNL     1      86.380  54.435  44.807  0.00  0.00    +0.132 A 
ATOM     20  C   UNL     1      85.931  53.963  43.547  0.00  0.00    +0.066 A 
ATOM     21  C   UNL     1      86.015  52.570  43.255  0.00  0.00    -0.003 A 
ATOM     22  C   UNL     1      85.554  52.099  42.007  0.00  0.00    -0.053 A 
ATOM     23  C   UNL     1      85.034  52.975  41.063  0.00  0.00    -0.058 A 
ATOM     24  C   UNL     1      84.956  54.334  41.335  0.00  0.00    -0.019 A 
ATOM     25  C   UNL     1      85.396  54.849  42.568  0.00  0.00    +0.131 A 
BRANCH  25  26
ATOM     26  O   UNL     1      85.313  56.227  42.837  0.00  0.00    -0.494 OA
ATOM     27  C   UNL     1      84.112  56.931  43.140  0.00  0.00    +0.079 C 
ENDBRANCH  25  26
BRANCH  19  28
ATOM     28  O   UNL     1      86.293  55.805  45.115  0.00  0.00    -0.494 OA
ATOM     29  C   UNL     1      85.878  56.342  46.368  0.00  0.00    +0.079 C 
ENDBRANCH  19  28
ENDBRANCH  11  15
BRANCH   1  31
ATOM     30  C   UNL     1      83.187  50.229  44.276  0.00  0.00    +0.079 C 
ATOM     31  O   UNL     1      84.445  49.972  44.891  0.00  0.00    -0.494 OA
ENDBRANCH   1  31
BRANCH  10  32
ATOM     32  O   UNL     1      88.919  50.430  42.931  0.00  0.00    -0.494 OA
ATOM     33  C   UNL     1      89.107  51.143  41.713  0.00  0.00    +0.079 C 
ENDBRANCH  10  32
TORSDOF 5
ENDMDL
MODEL 9
REMARK VINA RESULT:    -7.116      2.652      7.491
REMARK INTER + INTRA:         -10.073
REMARK INTER:                  -9.196
REMARK INTRA:                  -0.877
REMARK UNBOUND:                -0.877
REMARK  Name = 
REMARK  12 active torsions:
REMARK  status: ('A' for Active; 'I' for Inactive)
REMARK    1  A    between atoms: C_1  and  O_2
REMARK    2  A    between atoms: O_2  and  C_3
REMARK    3  A    between atoms: C_7  and  C_8
REMARK    4  A    between atoms: C_10  and  C_31
REMARK    5  A    between atoms: C_12  and  O_29
REMARK    6  A    between atoms: C_13  and  C_14
REMARK    7  A    between atoms: C_15  and  C_16
REMARK    8  A    between atoms: C_18  and  O_27
REMARK    9  A    between atoms: C_24  and  O_25
REMARK   10  A    between atoms: O_25  and  C_26
REMARK   11  A    between atoms: O_27  and  C_28
REMARK   12  A    between atoms: O_29  and  C_30
REMARK                            x       y       z     vdW  Elec       q    Type
REMARK                         _______ _______ _______ _____ _____    ______ ____
ROOT
ATOM      1  C   UNL     1      86.429  52.704  41.810  0.00  0.00    +0.132 A 
ATOM      2  C   UNL     1      85.851  53.973  41.956  0.00  0.00    -0.016 A 
ATOM      3  C   UNL     1      85.670  54.540  43.222  0.00  0.00    -0.034 A 
ATOM      4  C   UNL     1      84.928  55.847  43.324  0.00  0.00    -0.012 C 
ATOM      5  C   UNL     1      85.129  56.526  44.685  0.00  0.00    +0.009 C 
ATOM      6  C   UNL     1      84.148  57.692  44.842  0.00  0.00    -0.049 C 
ATOM      7  N   UNL     1      84.922  55.543  45.760  0.00  0.00    -0.307 N 
ATOM      8  C   UNL     1      85.935  54.470  45.748  0.00  0.00    +0.034 C 
ATOM      9  C   UNL     1      86.068  53.829  44.373  0.00  0.00    +0.015 A 
ATOM     10  C   UNL     1      86.670  52.557  44.244  0.00  0.00    +0.136 A 
ATOM     11  C   UNL     1      86.834  51.989  42.952  0.00  0.00    +0.067 A 
ATOM     12  C   UNL     1      87.304  54.964  46.256  0.00  0.00    -0.045 C 
ATOM     13  H   UNL     1      83.998  55.124  45.646  0.00  0.00    +0.000 HD
ATOM     14  H   UNL     1      85.001  56.035  46.650  0.00  0.00    +0.000 HD
ENDROOT
BRANCH  11  15
ATOM     15  C   UNL     1      87.343  50.606  42.759  0.00  0.00    +0.000 A 
ATOM     16  C   UNL     1      88.693  50.413  42.397  0.00  0.00    -0.038 A 
ATOM     17  C   UNL     1      89.618  51.583  42.170  0.00  0.00    -0.039 C 
ATOM     18  C   UNL     1      89.182  49.116  42.215  0.00  0.00    -0.016 A 
ATOM     19  C   UNL     1      88.368  47.989  42.414  0.00  0.00    +0.132 A 
ATOM     20  C   UNL     1      87.016  48.162  42.806  0.00  0.00    +0.066 A 
ATOM     21  C   UNL     1      86.504  49.482  42.980  0.00  0.00    -0.003 A 
ATOM     22  C   UNL     1      85.155  49.654  43.355  0.00  0.00    -0.053 A 
ATOM     23  C   UNL     1      84.329  48.558  43.566  0.00  0.00    -0.058 A 
ATOM     24  C   UNL     1      84.819  47.268  43.407  0.00  0.00    -0.019 A 
ATOM     25  C   UNL     1      86.156  47.048  43.028  0.00  0.00    +0.131 A 
BRANCH  25  26
ATOM     26  O   UNL     1      86.645  45.739  42.867  0.00  0.00    -0.494 OA
ATOM     27  C   UNL     1      86.404  44.659  43.764  0.00  0.00    +0.079 C 
ENDBRANCH  25  26
BRANCH  19  28
ATOM     28  O   UNL     1      88.884  46.694  42.227  0.00  0.00    -0.494 OA
ATOM     29  C   UNL     1      90.237  46.308  42.447  0.00  0.00    +0.079 C 
ENDBRANCH  19  28
ENDBRANCH  11  15
BRANCH   1  31
ATOM     30  C   UNL     1      87.503  52.580  39.547  0.00  0.00    +0.079 C 
ATOM     31  O   UNL     1      86.602  52.114  40.546  0.00  0.00    -0.494 OA
ENDBRANCH   1  31
BRANCH  10  32
ATOM     32  O   UNL     1      87.059  51.897  45.425  0.00  0.00    -0.494 OA
ATOM     33  C   UNL     1      86.194  51.181  46.301  0.00  0.00    +0.079 C 
ENDBRANCH  10  32
TORSDOF 5
ENDMDL
