MODEL 1
REMARK VINA RESULT:   -10.342      0.000      0.000
REMARK INTER + INTRA:         -21.384
REMARK INTER:                 -17.688
REMARK INTRA:                  -3.696
REMARK UNBOUND:                -2.880
REMARK  Name = 
REMARK  17 active torsions:
REMARK  status: ('A' for Active; 'I' for Inactive)
REMARK    1  A    between atoms: C_1  and  O_2
REMARK    2  A    between atoms: O_2  and  C_3
REMARK    3  A    between atoms: C_4  and  C_5
REMARK    4  A    between atoms: C_5  and  C_6
REMARK    5  A    between atoms: C_8  and  C_13
REMARK    6  A    between atoms: C_11  and  O_12
REMARK    7  A    between atoms: C_13  and  C_14
REMARK    8  A    between atoms: C_19  and  O_20
REMARK    9  A    between atoms: C_21  and  O_22
REMARK   10  A    between atoms: C_23  and  C_37
REMARK   11  A    between atoms: C_24  and  O_36
REMARK   12  A    between atoms: C_25  and  C_26
REMARK   13  A    between atoms: C_26  and  C_28
REMARK   14  A    between atoms: C_28  and  C_29
REMARK   15  A    between atoms: C_29  and  C_30
REMARK   16  A    between atoms: C_37  and  C_38
REMARK   17  A    between atoms: C_43  and  O_44
REMARK                            x       y       z     vdW  Elec       q    Type
REMARK                         _______ _______ _______ _____ _____    ______ ____
ROOT
ATOM      1  C   UNL     1      86.198  53.263  42.347  0.00  0.00    +0.141 A 
ATOM      2  C   UNL     1      86.961  52.975  43.499  0.00  0.00    +0.041 A 
ATOM      3  C   UNL     1      86.897  53.852  44.609  0.00  0.00    +0.131 A 
ATOM      4  C   UNL     1      86.158  55.048  44.524  0.00  0.00    +0.041 A 
ATOM      5  C   UNL     1      85.419  55.339  43.364  0.00  0.00    +0.138 A 
ATOM      6  C   UNL     1      85.418  54.435  42.282  0.00  0.00    +0.101 A 
ENDROOT
BRANCH   1   8
ATOM      7  C   UNL     1      87.190  52.417  40.247  0.00  0.00    +0.079 C 
ATOM      8  O   UNL     1      86.201  52.369  41.269  0.00  0.00    -0.494 OA
ENDBRANCH   1   8
BRANCH   5   9
ATOM      9  O   UNL     1      84.673  56.523  43.322  0.00  0.00    -0.506 OA
ATOM     10  H   UNL     1      84.588  57.051  44.092  0.00  0.00    +0.000 HD
ENDBRANCH   5   9
BRANCH   6  11
ATOM     11  C   UNL     1      84.588  54.696  41.088  0.00  0.00    +0.171 C 
ATOM     12  O   UNL     1      84.854  55.686  40.353  0.00  0.00    -0.292 OA
BRANCH  11  13
ATOM     13  C   UNL     1      83.387  53.839  40.791  0.00  0.00    +0.015 C 
BRANCH  13  14
ATOM     14  C   UNL     1      82.450  53.734  42.001  0.00  0.00    -0.021 C 
BRANCH  14  15
ATOM     15  C   UNL     1      82.523  52.359  42.608  0.00  0.00    -0.047 A 
ATOM     16  C   UNL     1      83.355  52.115  43.715  0.00  0.00    -0.059 A 
ATOM     17  C   UNL     1      83.399  50.843  44.295  0.00  0.00    -0.062 A 
ATOM     18  C   UNL     1      82.604  49.812  43.784  0.00  0.00    -0.062 A 
ATOM     19  C   UNL     1      81.762  50.051  42.693  0.00  0.00    -0.062 A 
ATOM     20  C   UNL     1      81.720  51.320  42.106  0.00  0.00    -0.059 A 
ENDBRANCH  14  15
ENDBRANCH  13  14
ENDBRANCH  11  13
ENDBRANCH   6  11
BRANCH   3  21
ATOM     21  O   UNL     1      87.557  53.558  45.806  0.00  0.00    -0.506 OA
ATOM     22  H   UNL     1      87.074  53.511  46.608  0.00  0.00    +0.000 HD
ENDBRANCH   3  21
BRANCH   4  23
ATOM     23  C   UNL     1      86.194  56.054  45.663  0.00  0.00    +0.008 C 
BRANCH  23  24
ATOM     24  C   UNL     1      85.293  55.690  46.834  0.00  0.00    -0.001 A 
ATOM     25  C   UNL     1      85.698  54.748  47.808  0.00  0.00    -0.055 A 
ATOM     26  C   UNL     1      84.869  54.435  48.887  0.00  0.00    -0.061 A 
ATOM     27  C   UNL     1      83.617  55.032  49.005  0.00  0.00    -0.058 A 
ATOM     28  C   UNL     1      83.182  55.933  48.035  0.00  0.00    -0.020 A 
ATOM     29  C   UNL     1      83.995  56.255  46.941  0.00  0.00    +0.120 A 
BRANCH  29  30
ATOM     30  O   UNL     1      83.477  57.123  45.977  0.00  0.00    -0.506 OA
ATOM     31  H   UNL     1      83.939  57.260  45.173  0.00  0.00    +0.000 HD
ENDBRANCH  29  30
ENDBRANCH  23  24
ENDBRANCH   4  23
BRANCH   2  32
ATOM     32  C   UNL     1      87.859  51.749  43.522  0.00  0.00    +0.008 C 
BRANCH  32  33
ATOM     33  C   UNL     1      87.185  50.520  44.104  0.00  0.00    -0.001 A 
ATOM     34  C   UNL     1      86.705  49.530  43.229  0.00  0.00    -0.051 A 
ATOM     35  C   UNL     1      86.099  48.364  43.720  0.00  0.00    -0.042 A 
ATOM     36  C   UNL     1      85.997  48.174  45.104  0.00  0.00    -0.055 A 
ATOM     37  C   UNL     1      86.483  49.141  45.984  0.00  0.00    -0.020 A 
ATOM     38  C   UNL     1      87.085  50.309  45.496  0.00  0.00    +0.120 A 
BRANCH  38  39
ATOM     39  O   UNL     1      87.580  51.253  46.396  0.00  0.00    -0.506 OA
ATOM     40  H   UNL     1      88.456  51.181  46.717  0.00  0.00    +0.000 HD
ENDBRANCH  38  39
BRANCH  35  41
ATOM     41  C   UNL     1      85.618  47.298  42.771  0.00  0.00    +0.001 C 
BRANCH  41  42
ATOM     42  C   UNL     1      86.401  46.025  42.977  0.00  0.00    -0.002 A 
ATOM     43  C   UNL     1      85.888  45.022  43.819  0.00  0.00    -0.055 A 
ATOM     44  C   UNL     1      86.614  43.852  44.050  0.00  0.00    -0.061 A 
ATOM     45  C   UNL     1      87.862  43.673  43.453  0.00  0.00    -0.058 A 
ATOM     46  C   UNL     1      88.390  44.665  42.624  0.00  0.00    -0.020 A 
ATOM     47  C   UNL     1      87.668  45.843  42.384  0.00  0.00    +0.120 A 
BRANCH  47  48
ATOM     48  O   UNL     1      88.207  46.831  41.559  0.00  0.00    -0.506 OA
ATOM     49  H   UNL     1      88.172  46.734  40.629  0.00  0.00    +0.000 HD
ENDBRANCH  47  48
ENDBRANCH  41  42
ENDBRANCH  35  41
ENDBRANCH  32  33
ENDBRANCH   2  32
TORSDOF 16
ENDMDL
MODEL 2
REMARK VINA RESULT:   -10.304      2.270      8.002
REMARK INTER + INTRA:         -21.315
REMARK INTER:                 -18.753
REMARK INTRA:                  -2.562
REMARK UNBOUND:                -2.880
REMARK  Name = 
REMARK  17 active torsions:
REMARK  status: ('A' for Active; 'I' for Inactive)
REMARK    1  A    between atoms: C_1  and  O_2
REMARK    2  A    between atoms: O_2  and  C_3
REMARK    3  A    between atoms: C_4  and  C_5
REMARK    4  A    between atoms: C_5  and  C_6
REMARK    5  A    between atoms: C_8  and  C_13
REMARK    6  A    between atoms: C_11  and  O_12
REMARK    7  A    between atoms: C_13  and  C_14
REMARK    8  A    between atoms: C_19  and  O_20
REMARK    9  A    between atoms: C_21  and  O_22
REMARK   10  A    between atoms: C_23  and  C_37
REMARK   11  A    between atoms: C_24  and  O_36
REMARK   12  A    between atoms: C_25  and  C_26
REMARK   13  A    between atoms: C_26  and  C_28
REMARK   14  A    between atoms: C_28  and  C_29
REMARK   15  A    between atoms: C_29  and  C_30
REMARK   16  A    between atoms: C_37  and  C_38
REMARK   17  A    between atoms: C_43  and  O_44
REMARK                            x       y       z     vdW  Elec       q    Type
REMARK                         _______ _______ _______ _____ _____    ______ ____
ROOT
ATOM      1  C   UNL     1      85.924  52.767  42.165  0.00  0.00    +0.141 A 
ATOM      2  C   UNL     1      84.891  52.872  43.121  0.00  0.00    +0.041 A 
ATOM      3  C   UNL     1      84.690  51.817  44.043  0.00  0.00    +0.131 A 
ATOM      4  C   UNL     1      85.450  50.635  43.942  0.00  0.00    +0.041 A 
ATOM      5  C   UNL     1      86.463  50.529  42.972  0.00  0.00    +0.138 A 
ATOM      6  C   UNL     1      86.718  51.605  42.097  0.00  0.00    +0.101 A 
ENDROOT
BRANCH   1   8
ATOM      7  C   UNL     1      85.389  54.060  40.128  0.00  0.00    +0.079 C 
ATOM      8  O   UNL     1      86.175  53.833  41.291  0.00  0.00    -0.494 OA
ENDBRANCH   1   8
BRANCH   5   9
ATOM      9  O   UNL     1      87.218  49.351  42.915  0.00  0.00    -0.506 OA
ATOM     10  H   UNL     1      88.138  49.393  42.742  0.00  0.00    +0.000 HD
ENDBRANCH   5   9
BRANCH   6  11
ATOM     11  C   UNL     1      87.827  51.532  41.123  0.00  0.00    +0.171 C 
ATOM     12  O   UNL     1      87.573  51.597  39.890  0.00  0.00    -0.292 OA
BRANCH  11  13
ATOM     13  C   UNL     1      89.238  51.302  41.590  0.00  0.00    +0.015 C 
BRANCH  13  14
ATOM     14  C   UNL     1      89.914  50.159  40.821  0.00  0.00    -0.021 C 
BRANCH  14  15
ATOM     15  C   UNL     1      90.296  49.046  41.758  0.00  0.00    -0.047 A 
ATOM     16  C   UNL     1      90.994  49.326  42.947  0.00  0.00    -0.059 A 
ATOM     17  C   UNL     1      91.321  48.294  43.831  0.00  0.00    -0.062 A 
ATOM     18  C   UNL     1      90.944  46.978  43.542  0.00  0.00    -0.062 A 
ATOM     19  C   UNL     1      90.237  46.694  42.370  0.00  0.00    -0.062 A 
ATOM     20  C   UNL     1      89.912  47.723  41.480  0.00  0.00    -0.059 A 
ENDBRANCH  14  15
ENDBRANCH  13  14
ENDBRANCH  11  13
ENDBRANCH   6  11
BRANCH   3  21
ATOM     21  O   UNL     1      83.745  51.917  45.068  0.00  0.00    -0.506 OA
ATOM     22  H   UNL     1      83.957  52.377  45.857  0.00  0.00    +0.000 HD
ENDBRANCH   3  21
BRANCH   4  23
ATOM     23  C   UNL     1      85.149  49.450  44.844  0.00  0.00    +0.008 C 
BRANCH  23  24
ATOM     24  C   UNL     1      84.160  48.459  44.249  0.00  0.00    -0.001 A 
ATOM     25  C   UNL     1      82.783  48.761  44.155  0.00  0.00    -0.055 A 
ATOM     26  C   UNL     1      81.887  47.849  43.592  0.00  0.00    -0.061 A 
ATOM     27  C   UNL     1      82.340  46.615  43.135  0.00  0.00    -0.058 A 
ATOM     28  C   UNL     1      83.688  46.280  43.253  0.00  0.00    -0.020 A 
ATOM     29  C   UNL     1      84.600  47.178  43.823  0.00  0.00    +0.120 A 
BRANCH  29  30
ATOM     30  O   UNL     1      85.926  46.760  43.961  0.00  0.00    -0.506 OA
ATOM     31  H   UNL     1      86.601  47.166  43.454  0.00  0.00    +0.000 HD
ENDBRANCH  29  30
ENDBRANCH  23  24
ENDBRANCH   4  23
BRANCH   2  32
ATOM     32  C   UNL     1      83.992  54.098  43.128  0.00  0.00    +0.008 C 
BRANCH  32  33
ATOM     33  C   UNL     1      84.609  55.292  43.832  0.00  0.00    -0.001 A 
ATOM     34  C   UNL     1      84.983  55.167  45.182  0.00  0.00    -0.051 A 
ATOM     35  C   UNL     1      85.581  56.235  45.867  0.00  0.00    -0.042 A 
ATOM     36  C   UNL     1      85.834  57.433  45.187  0.00  0.00    -0.055 A 
ATOM     37  C   UNL     1      85.483  57.566  43.843  0.00  0.00    -0.020 A 
ATOM     38  C   UNL     1      84.880  56.502  43.157  0.00  0.00    +0.120 A 
BRANCH  38  39
ATOM     39  O   UNL     1      84.554  56.653  41.809  0.00  0.00    -0.506 OA
ATOM     40  H   UNL     1      84.560  57.504  41.418  0.00  0.00    +0.000 HD
ENDBRANCH  38  39
BRANCH  35  41
ATOM     41  C   UNL     1      86.005  56.076  47.304  0.00  0.00    +0.001 C 
BRANCH  41  42
ATOM     42  C   UNL     1      85.312  54.888  47.924  0.00  0.00    -0.002 A 
ATOM     43  C   UNL     1      85.977  53.650  47.983  0.00  0.00    -0.055 A 
ATOM     44  C   UNL     1      85.339  52.529  48.520  0.00  0.00    -0.061 A 
ATOM     45  C   UNL     1      84.031  52.628  48.995  0.00  0.00    -0.058 A 
ATOM     46  C   UNL     1      83.355  53.849  48.933  0.00  0.00    -0.020 A 
ATOM     47  C   UNL     1      83.986  54.980  48.397  0.00  0.00    +0.120 A 
BRANCH  47  48
ATOM     48  O   UNL     1      83.299  56.192  48.333  0.00  0.00    -0.506 OA
ATOM     49  H   UNL     1      83.574  56.856  47.732  0.00  0.00    +0.000 HD
ENDBRANCH  47  48
ENDBRANCH  41  42
ENDBRANCH  35  41
ENDBRANCH  32  33
ENDBRANCH   2  32
TORSDOF 16
ENDMDL
MODEL 3
REMARK VINA RESULT:   -10.140      2.318      7.738
REMARK INTER + INTRA:         -21.022
REMARK INTER:                 -18.601
REMARK INTRA:                  -2.420
REMARK UNBOUND:                -2.880
REMARK  Name = 
REMARK  17 active torsions:
REMARK  status: ('A' for Active; 'I' for Inactive)
REMARK    1  A    between atoms: C_1  and  O_2
REMARK    2  A    between atoms: O_2  and  C_3
REMARK    3  A    between atoms: C_4  and  C_5
REMARK    4  A    between atoms: C_5  and  C_6
REMARK    5  A    between atoms: C_8  and  C_13
REMARK    6  A    between atoms: C_11  and  O_12
REMARK    7  A    between atoms: C_13  and  C_14
REMARK    8  A    between atoms: C_19  and  O_20
REMARK    9  A    between atoms: C_21  and  O_22
REMARK   10  A    between atoms: C_23  and  C_37
REMARK   11  A    between atoms: C_24  and  O_36
REMARK   12  A    between atoms: C_25  and  C_26
REMARK   13  A    between atoms: C_26  and  C_28
REMARK   14  A    between atoms: C_28  and  C_29
REMARK   15  A    between atoms: C_29  and  C_30
REMARK   16  A    between atoms: C_37  and  C_38
REMARK   17  A    between atoms: C_43  and  O_44
REMARK                            x       y       z     vdW  Elec       q    Type
REMARK                         _______ _______ _______ _____ _____    ______ ____
ROOT
ATOM      1  C   UNL     1      84.552  51.954  43.265  0.00  0.00    +0.141 A 
ATOM      2  C   UNL     1      85.860  52.420  43.009  0.00  0.00    +0.041 A 
ATOM      3  C   UNL     1      86.966  51.620  43.382  0.00  0.00    +0.131 A 
ATOM      4  C   UNL     1      86.764  50.418  44.087  0.00  0.00    +0.041 A 
ATOM      5  C   UNL     1      85.458  49.971  44.359  0.00  0.00    +0.138 A 
ATOM      6  C   UNL     1      84.349  50.727  43.926  0.00  0.00    +0.101 A 
ENDROOT
BRANCH   1   8
ATOM      7  C   UNL     1      83.006  52.706  41.490  0.00  0.00    +0.079 C 
ATOM      8  O   UNL     1      83.449  52.706  42.841  0.00  0.00    -0.494 OA
ENDBRANCH   1   8
BRANCH   5   9
ATOM      9  O   UNL     1      85.291  48.759  45.039  0.00  0.00    -0.506 OA
ATOM     10  H   UNL     1      85.072  48.759  45.950  0.00  0.00    +0.000 HD
ENDBRANCH   5   9
BRANCH   6  11
ATOM     11  C   UNL     1      82.974  50.230  44.143  0.00  0.00    +0.171 C 
ATOM     12  O   UNL     1      82.477  50.269  45.301  0.00  0.00    -0.292 OA
BRANCH  11  13
ATOM     13  C   UNL     1      82.200  49.610  43.011  0.00  0.00    +0.015 C 
BRANCH  13  14
ATOM     14  C   UNL     1      81.224  48.537  43.509  0.00  0.00    -0.021 C 
BRANCH  14  15
ATOM     15  C   UNL     1      79.964  49.172  44.032  0.00  0.00    -0.047 A 
ATOM     16  C   UNL     1      79.344  48.672  45.192  0.00  0.00    -0.059 A 
ATOM     17  C   UNL     1      78.191  49.283  45.692  0.00  0.00    -0.062 A 
ATOM     18  C   UNL     1      77.655  50.402  45.048  0.00  0.00    -0.062 A 
ATOM     19  C   UNL     1      78.274  50.916  43.904  0.00  0.00    -0.062 A 
ATOM     20  C   UNL     1      79.425  50.304  43.397  0.00  0.00    -0.059 A 
ENDBRANCH  14  15
ENDBRANCH  13  14
ENDBRANCH  11  13
ENDBRANCH   6  11
BRANCH   3  21
ATOM     21  O   UNL     1      88.275  51.994  43.062  0.00  0.00    -0.506 OA
ATOM     22  H   UNL     1      88.427  52.690  42.453  0.00  0.00    +0.000 HD
ENDBRANCH   3  21
BRANCH   4  23
ATOM     23  C   UNL     1      87.951  49.623  44.604  0.00  0.00    +0.008 C 
BRANCH  23  24
ATOM     24  C   UNL     1      88.686  48.841  43.525  0.00  0.00    -0.001 A 
ATOM     25  C   UNL     1      89.921  49.290  43.004  0.00  0.00    -0.055 A 
ATOM     26  C   UNL     1      90.593  48.556  42.025  0.00  0.00    -0.061 A 
ATOM     27  C   UNL     1      90.039  47.378  41.530  0.00  0.00    -0.058 A 
ATOM     28  C   UNL     1      88.803  46.938  42.001  0.00  0.00    -0.020 A 
ATOM     29  C   UNL     1      88.110  47.665  42.977  0.00  0.00    +0.120 A 
BRANCH  29  30
ATOM     30  O   UNL     1      86.853  47.198  43.366  0.00  0.00    -0.506 OA
ATOM     31  H   UNL     1      86.306  47.725  43.916  0.00  0.00    +0.000 HD
ENDBRANCH  29  30
ENDBRANCH  23  24
ENDBRANCH   4  23
BRANCH   2  32
ATOM     32  C   UNL     1      86.062  53.783  42.367  0.00  0.00    +0.008 C 
BRANCH  32  33
ATOM     33  C   UNL     1      85.606  54.935  43.243  0.00  0.00    -0.001 A 
ATOM     34  C   UNL     1      85.997  54.957  44.593  0.00  0.00    -0.051 A 
ATOM     35  C   UNL     1      85.622  56.014  45.437  0.00  0.00    -0.042 A 
ATOM     36  C   UNL     1      84.871  57.076  44.915  0.00  0.00    -0.055 A 
ATOM     37  C   UNL     1      84.489  57.074  43.574  0.00  0.00    -0.020 A 
ATOM     38  C   UNL     1      84.857  56.017  42.730  0.00  0.00    +0.120 A 
BRANCH  38  39
ATOM     39  O   UNL     1      84.479  56.046  41.387  0.00  0.00    -0.506 OA
ATOM     40  H   UNL     1      83.738  55.552  41.099  0.00  0.00    +0.000 HD
ENDBRANCH  38  39
BRANCH  35  41
ATOM     41  C   UNL     1      86.075  56.040  46.872  0.00  0.00    +0.001 C 
BRANCH  41  42
ATOM     42  C   UNL     1      85.366  54.970  47.664  0.00  0.00    -0.002 A 
ATOM     43  C   UNL     1      85.972  53.712  47.829  0.00  0.00    -0.055 A 
ATOM     44  C   UNL     1      85.316  52.696  48.528  0.00  0.00    -0.061 A 
ATOM     45  C   UNL     1      84.045  52.919  49.059  0.00  0.00    -0.058 A 
ATOM     46  C   UNL     1      83.426  54.160  48.893  0.00  0.00    -0.020 A 
ATOM     47  C   UNL     1      84.077  55.187  48.195  0.00  0.00    +0.120 A 
BRANCH  47  48
ATOM     48  O   UNL     1      83.446  56.420  48.028  0.00  0.00    -0.506 OA
ATOM     49  H   UNL     1      83.316  56.983  48.765  0.00  0.00    +0.000 HD
ENDBRANCH  47  48
ENDBRANCH  41  42
ENDBRANCH  35  41
ENDBRANCH  32  33
ENDBRANCH   2  32
TORSDOF 16
ENDMDL
MODEL 4
REMARK VINA RESULT:    -9.935      2.097      7.980
REMARK INTER + INTRA:         -20.656
REMARK INTER:                 -16.965
REMARK INTRA:                  -3.691
REMARK UNBOUND:                -2.880
REMARK  Name = 
REMARK  17 active torsions:
REMARK  status: ('A' for Active; 'I' for Inactive)
REMARK    1  A    between atoms: C_1  and  O_2
REMARK    2  A    between atoms: O_2  and  C_3
REMARK    3  A    between atoms: C_4  and  C_5
REMARK    4  A    between atoms: C_5  and  C_6
REMARK    5  A    between atoms: C_8  and  C_13
REMARK    6  A    between atoms: C_11  and  O_12
REMARK    7  A    between atoms: C_13  and  C_14
REMARK    8  A    between atoms: C_19  and  O_20
REMARK    9  A    between atoms: C_21  and  O_22
REMARK   10  A    between atoms: C_23  and  C_37
REMARK   11  A    between atoms: C_24  and  O_36
REMARK   12  A    between atoms: C_25  and  C_26
REMARK   13  A    between atoms: C_26  and  C_28
REMARK   14  A    between atoms: C_28  and  C_29
REMARK   15  A    between atoms: C_29  and  C_30
REMARK   16  A    between atoms: C_37  and  C_38
REMARK   17  A    between atoms: C_43  and  O_44
REMARK                            x       y       z     vdW  Elec       q    Type
REMARK                         _______ _______ _______ _____ _____    ______ ____
ROOT
ATOM      1  C   UNL     1      84.095  50.964  42.780  0.00  0.00    +0.141 A 
ATOM      2  C   UNL     1      85.287  51.632  42.424  0.00  0.00    +0.041 A 
ATOM      3  C   UNL     1      86.525  51.143  42.905  0.00  0.00    +0.131 A 
ATOM      4  C   UNL     1      86.557  50.061  43.806  0.00  0.00    +0.041 A 
ATOM      5  C   UNL     1      85.363  49.415  44.174  0.00  0.00    +0.138 A 
ATOM      6  C   UNL     1      84.132  49.850  43.642  0.00  0.00    +0.101 A 
ENDROOT
BRANCH   1   8
ATOM      7  C   UNL     1      82.080  52.389  42.904  0.00  0.00    +0.079 C 
ATOM      8  O   UNL     1      82.871  51.399  42.258  0.00  0.00    -0.494 OA
ENDBRANCH   1   8
BRANCH   5   9
ATOM      9  O   UNL     1      85.432  48.326  45.052  0.00  0.00    -0.506 OA
ATOM     10  H   UNL     1      85.580  47.463  44.717  0.00  0.00    +0.000 HD
ENDBRANCH   5   9
BRANCH   6  11
ATOM     11  C   UNL     1      82.881  49.133  43.966  0.00  0.00    +0.171 C 
ATOM     12  O   UNL     1      82.256  49.423  45.021  0.00  0.00    -0.292 OA
BRANCH  11  13
ATOM     13  C   UNL     1      82.396  48.012  43.087  0.00  0.00    +0.015 C 
BRANCH  13  14
ATOM     14  C   UNL     1      82.321  46.682  43.850  0.00  0.00    -0.021 C 
BRANCH  14  15
ATOM     15  C   UNL     1      83.616  45.926  43.720  0.00  0.00    -0.047 A 
ATOM     16  C   UNL     1      84.398  46.052  42.557  0.00  0.00    -0.059 A 
ATOM     17  C   UNL     1      85.615  45.372  42.452  0.00  0.00    -0.062 A 
ATOM     18  C   UNL     1      86.066  44.574  43.508  0.00  0.00    -0.062 A 
ATOM     19  C   UNL     1      85.302  44.457  44.673  0.00  0.00    -0.062 A 
ATOM     20  C   UNL     1      84.081  45.131  44.781  0.00  0.00    -0.059 A 
ENDBRANCH  14  15
ENDBRANCH  13  14
ENDBRANCH  11  13
ENDBRANCH   6  11
BRANCH   3  21
ATOM     21  O   UNL     1      87.737  51.711  42.501  0.00  0.00    -0.506 OA
ATOM     22  H   UNL     1      88.131  51.449  41.692  0.00  0.00    +0.000 HD
ENDBRANCH   3  21
BRANCH   4  23
ATOM     23  C   UNL     1      87.872  49.617  44.426  0.00  0.00    +0.008 C 
BRANCH  23  24
ATOM     24  C   UNL     1      88.671  48.660  43.555  0.00  0.00    -0.001 A 
ATOM     25  C   UNL     1      88.090  48.030  42.431  0.00  0.00    -0.055 A 
ATOM     26  C   UNL     1      88.838  47.165  41.630  0.00  0.00    -0.061 A 
ATOM     27  C   UNL     1      90.167  46.893  41.945  0.00  0.00    -0.058 A 
ATOM     28  C   UNL     1      90.748  47.472  43.071  0.00  0.00    -0.020 A 
ATOM     29  C   UNL     1      90.011  48.336  43.891  0.00  0.00    +0.120 A 
BRANCH  29  30
ATOM     30  O   UNL     1      90.637  48.840  45.034  0.00  0.00    -0.506 OA
ATOM     31  H   UNL     1      90.791  48.280  45.770  0.00  0.00    +0.000 HD
ENDBRANCH  29  30
ENDBRANCH  23  24
ENDBRANCH   4  23
BRANCH   2  32
ATOM     32  C   UNL     1      85.222  52.879  41.558  0.00  0.00    +0.008 C 
BRANCH  32  33
ATOM     33  C   UNL     1      85.074  54.160  42.359  0.00  0.00    -0.001 A 
ATOM     34  C   UNL     1      85.753  54.277  43.584  0.00  0.00    -0.051 A 
ATOM     35  C   UNL     1      85.668  55.451  44.347  0.00  0.00    -0.042 A 
ATOM     36  C   UNL     1      84.918  56.532  43.864  0.00  0.00    -0.055 A 
ATOM     37  C   UNL     1      84.253  56.435  42.642  0.00  0.00    -0.020 A 
ATOM     38  C   UNL     1      84.331  55.261  41.880  0.00  0.00    +0.120 A 
BRANCH  38  39
ATOM     39  O   UNL     1      83.671  55.195  40.653  0.00  0.00    -0.506 OA
ATOM     40  H   UNL     1      82.997  55.812  40.449  0.00  0.00    +0.000 HD
ENDBRANCH  38  39
BRANCH  35  41
ATOM     41  C   UNL     1      86.426  55.574  45.643  0.00  0.00    +0.001 C 
BRANCH  41  42
ATOM     42  C   UNL     1      85.622  54.987  46.776  0.00  0.00    -0.002 A 
ATOM     43  C   UNL     1      84.645  55.773  47.414  0.00  0.00    -0.055 A 
ATOM     44  C   UNL     1      83.915  55.259  48.489  0.00  0.00    -0.061 A 
ATOM     45  C   UNL     1      84.158  53.963  48.945  0.00  0.00    -0.058 A 
ATOM     46  C   UNL     1      85.133  53.175  48.328  0.00  0.00    -0.020 A 
ATOM     47  C   UNL     1      85.870  53.681  47.247  0.00  0.00    +0.120 A 
BRANCH  47  48
ATOM     48  O   UNL     1      86.846  52.888  46.643  0.00  0.00    -0.506 OA
ATOM     49  H   UNL     1      86.634  52.024  46.355  0.00  0.00    +0.000 HD
ENDBRANCH  47  48
ENDBRANCH  41  42
ENDBRANCH  35  41
ENDBRANCH  32  33
ENDBRANCH   2  32
TORSDOF 16
ENDMDL
MODEL 5
REMARK VINA RESULT:    -9.930      2.593      5.360
REMARK INTER + INTRA:         -20.647
REMARK INTER:                 -17.724
REMARK INTRA:                  -2.923
REMARK UNBOUND:                -2.880
REMARK  Name = 
REMARK  17 active torsions:
REMARK  status: ('A' for Active; 'I' for Inactive)
REMARK    1  A    between atoms: C_1  and  O_2
REMARK    2  A    between atoms: O_2  and  C_3
REMARK    3  A    between atoms: C_4  and  C_5
REMARK    4  A    between atoms: C_5  and  C_6
REMARK    5  A    between atoms: C_8  and  C_13
REMARK    6  A    between atoms: C_11  and  O_12
REMARK    7  A    between atoms: C_13  and  C_14
REMARK    8  A    between atoms: C_19  and  O_20
REMARK    9  A    between atoms: C_21  and  O_22
REMARK   10  A    between atoms: C_23  and  C_37
REMARK   11  A    between atoms: C_24  and  O_36
REMARK   12  A    between atoms: C_25  and  C_26
REMARK   13  A    between atoms: C_26  and  C_28
REMARK   14  A    between atoms: C_28  and  C_29
REMARK   15  A    between atoms: C_29  and  C_30
REMARK   16  A    between atoms: C_37  and  C_38
REMARK   17  A    between atoms: C_43  and  O_44
REMARK                            x       y       z     vdW  Elec       q    Type
REMARK                         _______ _______ _______ _____ _____    ______ ____
ROOT
ATOM      1  C   UNL     1      84.355  51.768  43.464  0.00  0.00    +0.141 A 
ATOM      2  C   UNL     1      84.252  50.517  44.109  0.00  0.00    +0.041 A 
ATOM      3  C   UNL     1      83.144  49.682  43.830  0.00  0.00    +0.131 A 
ATOM      4  C   UNL     1      82.108  50.139  42.992  0.00  0.00    +0.041 A 
ATOM      5  C   UNL     1      82.207  51.397  42.371  0.00  0.00    +0.138 A 
ATOM      6  C   UNL     1      83.343  52.204  42.586  0.00  0.00    +0.101 A 
ENDROOT
BRANCH   1   8
ATOM      7  C   UNL     1      86.497  52.737  42.701  0.00  0.00    +0.079 C 
ATOM      8  O   UNL     1      85.480  52.574  43.683  0.00  0.00    -0.494 OA
ENDBRANCH   1   8
BRANCH   5   9
ATOM      9  O   UNL     1      81.172  51.810  41.523  0.00  0.00    -0.506 OA
ATOM     10  H   UNL     1      80.874  52.698  41.546  0.00  0.00    +0.000 HD
ENDBRANCH   5   9
BRANCH   6  11
ATOM     11  C   UNL     1      83.490  53.495  41.882  0.00  0.00    +0.171 C 
ATOM     12  O   UNL     1      83.937  53.509  40.704  0.00  0.00    -0.292 OA
BRANCH  11  13
ATOM     13  C   UNL     1      83.184  54.787  42.588  0.00  0.00    +0.015 C 
BRANCH  13  14
ATOM     14  C   UNL     1      84.347  55.783  42.483  0.00  0.00    -0.021 C 
BRANCH  14  15
ATOM     15  C   UNL     1      84.640  56.396  43.825  0.00  0.00    -0.047 A 
ATOM     16  C   UNL     1      84.588  55.610  44.991  0.00  0.00    -0.059 A 
ATOM     17  C   UNL     1      84.890  56.176  46.233  0.00  0.00    -0.062 A 
ATOM     18  C   UNL     1      85.258  57.522  46.320  0.00  0.00    -0.062 A 
ATOM     19  C   UNL     1      85.327  58.305  45.164  0.00  0.00    -0.062 A 
ATOM     20  C   UNL     1      85.020  57.746  43.919  0.00  0.00    -0.059 A 
ENDBRANCH  14  15
ENDBRANCH  13  14
ENDBRANCH  11  13
ENDBRANCH   6  11
BRANCH   3  21
ATOM     21  O   UNL     1      83.048  48.395  44.369  0.00  0.00    -0.506 OA
ATOM     22  H   UNL     1      82.489  48.236  45.104  0.00  0.00    +0.000 HD
ENDBRANCH   3  21
BRANCH   4  23
ATOM     23  C   UNL     1      80.855  49.301  42.794  0.00  0.00    +0.008 C 
BRANCH  23  24
ATOM     24  C   UNL     1      79.721  49.655  43.744  0.00  0.00    -0.001 A 
ATOM     25  C   UNL     1      78.852  50.738  43.480  0.00  0.00    -0.055 A 
ATOM     26  C   UNL     1      77.805  51.043  44.352  0.00  0.00    -0.061 A 
ATOM     27  C   UNL     1      77.619  50.295  45.511  0.00  0.00    -0.058 A 
ATOM     28  C   UNL     1      78.488  49.247  45.811  0.00  0.00    -0.020 A 
ATOM     29  C   UNL     1      79.549  48.931  44.953  0.00  0.00    +0.120 A 
BRANCH  29  30
ATOM     30  O   UNL     1      80.416  47.906  45.339  0.00  0.00    -0.506 OA
ATOM     31  H   UNL     1      80.763  47.889  46.210  0.00  0.00    +0.000 HD
ENDBRANCH  29  30
ENDBRANCH  23  24
ENDBRANCH   4  23
BRANCH   2  32
ATOM     32  C   UNL     1      85.313  50.097  45.114  0.00  0.00    +0.008 C 
BRANCH  32  33
ATOM     33  C   UNL     1      86.569  49.544  44.468  0.00  0.00    -0.001 A 
ATOM     34  C   UNL     1      86.461  48.432  43.614  0.00  0.00    -0.051 A 
ATOM     35  C   UNL     1      87.590  47.901  42.973  0.00  0.00    -0.042 A 
ATOM     36  C   UNL     1      88.838  48.508  43.166  0.00  0.00    -0.055 A 
ATOM     37  C   UNL     1      88.958  49.621  43.997  0.00  0.00    -0.020 A 
ATOM     38  C   UNL     1      87.832  50.151  44.644  0.00  0.00    +0.120 A 
BRANCH  38  39
ATOM     39  O   UNL     1      87.974  51.275  45.457  0.00  0.00    -0.506 OA
ATOM     40  H   UNL     1      88.819  51.517  45.779  0.00  0.00    +0.000 HD
ENDBRANCH  38  39
BRANCH  35  41
ATOM     41  C   UNL     1      87.454  46.730  42.036  0.00  0.00    +0.001 C 
BRANCH  41  42
ATOM     42  C   UNL     1      87.434  45.438  42.815  0.00  0.00    -0.002 A 
ATOM     43  C   UNL     1      88.643  44.774  43.089  0.00  0.00    -0.055 A 
ATOM     44  C   UNL     1      88.643  43.559  43.778  0.00  0.00    -0.061 A 
ATOM     45  C   UNL     1      87.438  42.988  44.190  0.00  0.00    -0.058 A 
ATOM     46  C   UNL     1      86.229  43.630  43.915  0.00  0.00    -0.020 A 
ATOM     47  C   UNL     1      86.218  44.852  43.226  0.00  0.00    +0.120 A 
BRANCH  47  48
ATOM     48  O   UNL     1      85.005  45.481  42.949  0.00  0.00    -0.506 OA
ATOM     49  H   UNL     1      84.991  46.276  42.456  0.00  0.00    +0.000 HD
ENDBRANCH  47  48
ENDBRANCH  41  42
ENDBRANCH  35  41
ENDBRANCH  32  33
ENDBRANCH   2  32
TORSDOF 16
ENDMDL
MODEL 6
REMARK VINA RESULT:    -9.808      1.705      5.839
REMARK INTER + INTRA:         -20.429
REMARK INTER:                 -18.019
REMARK INTRA:                  -2.410
REMARK UNBOUND:                -2.880
REMARK  Name = 
REMARK  17 active torsions:
REMARK  status: ('A' for Active; 'I' for Inactive)
REMARK    1  A    between atoms: C_1  and  O_2
REMARK    2  A    between atoms: O_2  and  C_3
REMARK    3  A    between atoms: C_4  and  C_5
REMARK    4  A    between atoms: C_5  and  C_6
REMARK    5  A    between atoms: C_8  and  C_13
REMARK    6  A    between atoms: C_11  and  O_12
REMARK    7  A    between atoms: C_13  and  C_14
REMARK    8  A    between atoms: C_19  and  O_20
REMARK    9  A    between atoms: C_21  and  O_22
REMARK   10  A    between atoms: C_23  and  C_37
REMARK   11  A    between atoms: C_24  and  O_36
REMARK   12  A    between atoms: C_25  and  C_26
REMARK   13  A    between atoms: C_26  and  C_28
REMARK   14  A    between atoms: C_28  and  C_29
REMARK   15  A    between atoms: C_29  and  C_30
REMARK   16  A    between atoms: C_37  and  C_38
REMARK   17  A    between atoms: C_43  and  O_44
REMARK                            x       y       z     vdW  Elec       q    Type
REMARK                         _______ _______ _______ _____ _____    ______ ____
ROOT
ATOM      1  C   UNL     1      86.895  51.537  42.525  0.00  0.00    +0.141 A 
ATOM      2  C   UNL     1      86.535  52.853  42.163  0.00  0.00    +0.041 A 
ATOM      3  C   UNL     1      86.578  53.876  43.141  0.00  0.00    +0.131 A 
ATOM      4  C   UNL     1      86.883  53.563  44.480  0.00  0.00    +0.041 A 
ATOM      5  C   UNL     1      87.218  52.245  44.837  0.00  0.00    +0.138 A 
ATOM      6  C   UNL     1      87.249  51.233  43.855  0.00  0.00    +0.101 A 
ENDROOT
BRANCH   1   8
ATOM      7  C   UNL     1      88.125  50.124  40.914  0.00  0.00    +0.079 C 
ATOM      8  O   UNL     1      86.921  50.530  41.552  0.00  0.00    -0.494 OA
ENDBRANCH   1   8
BRANCH   5   9
ATOM      9  O   UNL     1      87.542  51.972  46.172  0.00  0.00    -0.506 OA
ATOM     10  H   UNL     1      88.125  52.539  46.637  0.00  0.00    +0.000 HD
ENDBRANCH   5   9
BRANCH   6  11
ATOM     11  C   UNL     1      87.671  49.861  44.205  0.00  0.00    +0.171 C 
ATOM     12  O   UNL     1      88.884  49.633  44.461  0.00  0.00    -0.292 OA
BRANCH  11  13
ATOM     13  C   UNL     1      86.680  48.730  44.181  0.00  0.00    +0.015 C 
BRANCH  13  14
ATOM     14  C   UNL     1      87.169  47.562  43.313  0.00  0.00    -0.021 C 
BRANCH  14  15
ATOM     15  C   UNL     1      86.238  46.387  43.436  0.00  0.00    -0.047 A 
ATOM     16  C   UNL     1      84.997  46.529  44.083  0.00  0.00    -0.059 A 
ATOM     17  C   UNL     1      84.121  45.443  44.170  0.00  0.00    -0.062 A 
ATOM     18  C   UNL     1      84.470  44.214  43.602  0.00  0.00    -0.062 A 
ATOM     19  C   UNL     1      85.695  44.069  42.943  0.00  0.00    -0.062 A 
ATOM     20  C   UNL     1      86.577  45.151  42.859  0.00  0.00    -0.059 A 
ENDBRANCH  14  15
ENDBRANCH  13  14
ENDBRANCH  11  13
ENDBRANCH   6  11
BRANCH   3  21
ATOM     21  O   UNL     1      86.325  55.211  42.808  0.00  0.00    -0.506 OA
ATOM     22  H   UNL     1      86.971  55.867  42.982  0.00  0.00    +0.000 HD
ENDBRANCH   3  21
BRANCH   4  23
ATOM     23  C   UNL     1      86.801  54.634  45.556  0.00  0.00    +0.008 C 
BRANCH  23  24
ATOM     24  C   UNL     1      85.579  54.512  46.454  0.00  0.00    -0.001 A 
ATOM     25  C   UNL     1      84.929  53.271  46.645  0.00  0.00    -0.055 A 
ATOM     26  C   UNL     1      83.818  53.169  47.485  0.00  0.00    -0.061 A 
ATOM     27  C   UNL     1      83.320  54.299  48.129  0.00  0.00    -0.058 A 
ATOM     28  C   UNL     1      83.922  55.539  47.923  0.00  0.00    -0.020 A 
ATOM     29  C   UNL     1      85.033  55.663  47.078  0.00  0.00    +0.120 A 
BRANCH  29  30
ATOM     30  O   UNL     1      85.555  56.943  46.873  0.00  0.00    -0.506 OA
ATOM     31  H   UNL     1      85.782  57.479  47.607  0.00  0.00    +0.000 HD
ENDBRANCH  29  30
ENDBRANCH  23  24
ENDBRANCH   4  23
BRANCH   2  32
ATOM     32  C   UNL     1      86.079  53.147  40.744  0.00  0.00    +0.008 C 
BRANCH  32  33
ATOM     33  C   UNL     1      84.660  53.678  40.665  0.00  0.00    -0.001 A 
ATOM     34  C   UNL     1      83.652  53.034  41.403  0.00  0.00    -0.051 A 
ATOM     35  C   UNL     1      82.330  53.503  41.383  0.00  0.00    -0.042 A 
ATOM     36  C   UNL     1      82.019  54.649  40.639  0.00  0.00    -0.055 A 
ATOM     37  C   UNL     1      83.013  55.308  39.916  0.00  0.00    -0.020 A 
ATOM     38  C   UNL     1      84.334  54.838  39.929  0.00  0.00    +0.120 A 
BRANCH  38  39
ATOM     39  O   UNL     1      85.314  55.524  39.211  0.00  0.00    -0.506 OA
ATOM     40  H   UNL     1      85.370  56.457  39.270  0.00  0.00    +0.000 HD
ENDBRANCH  38  39
BRANCH  35  41
ATOM     41  C   UNL     1      81.267  52.822  42.203  0.00  0.00    +0.001 C 
BRANCH  41  42
ATOM     42  C   UNL     1      81.860  51.666  42.971  0.00  0.00    -0.002 A 
ATOM     43  C   UNL     1      83.114  51.814  43.589  0.00  0.00    -0.055 A 
ATOM     44  C   UNL     1      83.697  50.744  44.273  0.00  0.00    -0.061 A 
ATOM     45  C   UNL     1      83.041  49.515  44.340  0.00  0.00    -0.058 A 
ATOM     46  C   UNL     1      81.799  49.350  43.721  0.00  0.00    -0.020 A 
ATOM     47  C   UNL     1      81.205  50.418  43.033  0.00  0.00    +0.120 A 
BRANCH  47  48
ATOM     48  O   UNL     1      79.969  50.240  42.412  0.00  0.00    -0.506 OA
ATOM     49  H   UNL     1      79.640  49.377  42.263  0.00  0.00    +0.000 HD
ENDBRANCH  47  48
ENDBRANCH  41  42
ENDBRANCH  35  41
ENDBRANCH  32  33
ENDBRANCH   2  32
TORSDOF 16
ENDMDL
MODEL 7
REMARK VINA RESULT:    -9.804      2.015      7.382
REMARK INTER + INTRA:         -20.420
REMARK INTER:                 -16.188
REMARK INTRA:                  -4.233
REMARK UNBOUND:                -2.880
REMARK  Name = 
REMARK  17 active torsions:
REMARK  status: ('A' for Active; 'I' for Inactive)
REMARK    1  A    between atoms: C_1  and  O_2
REMARK    2  A    between atoms: O_2  and  C_3
REMARK    3  A    between atoms: C_4  and  C_5
REMARK    4  A    between atoms: C_5  and  C_6
REMARK    5  A    between atoms: C_8  and  C_13
REMARK    6  A    between atoms: C_11  and  O_12
REMARK    7  A    between atoms: C_13  and  C_14
REMARK    8  A    between atoms: C_19  and  O_20
REMARK    9  A    between atoms: C_21  and  O_22
REMARK   10  A    between atoms: C_23  and  C_37
REMARK   11  A    between atoms: C_24  and  O_36
REMARK   12  A    between atoms: C_25  and  C_26
REMARK   13  A    between atoms: C_26  and  C_28
REMARK   14  A    between atoms: C_28  and  C_29
REMARK   15  A    between atoms: C_29  and  C_30
REMARK   16  A    between atoms: C_37  and  C_38
REMARK   17  A    between atoms: C_43  and  O_44
REMARK                            x       y       z     vdW  Elec       q    Type
REMARK                         _______ _______ _______ _____ _____    ______ ____
ROOT
ATOM      1  C   UNL     1      86.876  50.855  45.332  0.00  0.00    +0.141 A 
ATOM      2  C   UNL     1      86.892  52.267  45.325  0.00  0.00    +0.041 A 
ATOM      3  C   UNL     1      86.611  52.956  44.120  0.00  0.00    +0.131 A 
ATOM      4  C   UNL     1      86.415  52.239  42.924  0.00  0.00    +0.041 A 
ATOM      5  C   UNL     1      86.422  50.833  42.936  0.00  0.00    +0.138 A 
ATOM      6  C   UNL     1      86.628  50.138  44.145  0.00  0.00    +0.101 A 
ENDROOT
BRANCH   1   8
ATOM      7  C   UNL     1      88.376  50.039  47.118  0.00  0.00    +0.079 C 
ATOM      8  O   UNL     1      87.086  50.163  46.532  0.00  0.00    -0.494 OA
ENDBRANCH   1   8
BRANCH   5   9
ATOM      9  O   UNL     1      86.197  50.150  41.734  0.00  0.00    -0.506 OA
ATOM     10  H   UNL     1      86.492  50.518  40.924  0.00  0.00    +0.000 HD
ENDBRANCH   5   9
BRANCH   6  11
ATOM     11  C   UNL     1      86.566  48.662  44.181  0.00  0.00    +0.171 C 
ATOM     12  O   UNL     1      87.489  47.990  43.646  0.00  0.00    -0.292 OA
BRANCH  11  13
ATOM     13  C   UNL     1      85.375  47.963  44.779  0.00  0.00    +0.015 C 
BRANCH  13  14
ATOM     14  C   UNL     1      84.428  47.425  43.698  0.00  0.00    -0.021 C 
BRANCH  14  15
ATOM     15  C   UNL     1      83.091  48.108  43.780  0.00  0.00    -0.047 A 
ATOM     16  C   UNL     1      82.992  49.500  43.600  0.00  0.00    -0.059 A 
ATOM     17  C   UNL     1      81.744  50.128  43.648  0.00  0.00    -0.062 A 
ATOM     18  C   UNL     1      80.587  49.373  43.861  0.00  0.00    -0.062 A 
ATOM     19  C   UNL     1      80.675  47.987  44.024  0.00  0.00    -0.062 A 
ATOM     20  C   UNL     1      81.922  47.355  43.984  0.00  0.00    -0.059 A 
ENDBRANCH  14  15
ENDBRANCH  13  14
ENDBRANCH  11  13
ENDBRANCH   6  11
BRANCH   3  21
ATOM     21  O   UNL     1      86.521  54.351  44.085  0.00  0.00    -0.506 OA
ATOM     22  H   UNL     1      85.812  54.785  44.519  0.00  0.00    +0.000 HD
ENDBRANCH   3  21
BRANCH   4  23
ATOM     23  C   UNL     1      86.244  52.978  41.607  0.00  0.00    +0.008 C 
BRANCH  23  24
ATOM     24  C   UNL     1      84.831  53.487  41.365  0.00  0.00    -0.001 A 
ATOM     25  C   UNL     1      83.753  53.078  42.182  0.00  0.00    -0.055 A 
ATOM     26  C   UNL     1      82.463  53.564  41.960  0.00  0.00    -0.061 A 
ATOM     27  C   UNL     1      82.218  54.445  40.910  0.00  0.00    -0.058 A 
ATOM     28  C   UNL     1      83.260  54.831  40.067  0.00  0.00    -0.020 A 
ATOM     29  C   UNL     1      84.559  54.347  40.269  0.00  0.00    +0.120 A 
BRANCH  29  30
ATOM     30  O   UNL     1      85.545  54.729  39.357  0.00  0.00    -0.506 OA
ATOM     31  H   UNL     1      85.463  54.496  38.453  0.00  0.00    +0.000 HD
ENDBRANCH  29  30
ENDBRANCH  23  24
ENDBRANCH   4  23
BRANCH   2  32
ATOM     32  C   UNL     1      87.239  53.024  46.596  0.00  0.00    +0.008 C 
BRANCH  32  33
ATOM     33  C   UNL     1      86.021  53.518  47.354  0.00  0.00    -0.001 A 
ATOM     34  C   UNL     1      85.374  54.685  46.912  0.00  0.00    -0.051 A 
ATOM     35  C   UNL     1      84.229  55.167  47.564  0.00  0.00    -0.042 A 
ATOM     36  C   UNL     1      83.709  54.457  48.653  0.00  0.00    -0.055 A 
ATOM     37  C   UNL     1      84.332  53.289  49.093  0.00  0.00    -0.020 A 
ATOM     38  C   UNL     1      85.479  52.808  48.447  0.00  0.00    +0.120 A 
BRANCH  38  39
ATOM     39  O   UNL     1      86.074  51.628  48.894  0.00  0.00    -0.506 OA
ATOM     40  H   UNL     1      86.074  51.420  49.807  0.00  0.00    +0.000 HD
ENDBRANCH  38  39
BRANCH  35  41
ATOM     41  C   UNL     1      83.528  56.401  47.059  0.00  0.00    +0.001 C 
BRANCH  41  42
ATOM     42  C   UNL     1      84.109  56.827  45.734  0.00  0.00    -0.002 A 
ATOM     43  C   UNL     1      83.654  56.221  44.549  0.00  0.00    -0.055 A 
ATOM     44  C   UNL     1      84.205  56.576  43.316  0.00  0.00    -0.061 A 
ATOM     45  C   UNL     1      85.221  57.529  43.251  0.00  0.00    -0.058 A 
ATOM     46  C   UNL     1      85.690  58.132  44.420  0.00  0.00    -0.020 A 
ATOM     47  C   UNL     1      85.143  57.784  45.664  0.00  0.00    +0.120 A 
BRANCH  47  48
ATOM     48  O   UNL     1      85.624  58.386  46.826  0.00  0.00    -0.506 OA
ATOM     49  H   UNL     1      85.060  58.926  47.342  0.00  0.00    +0.000 HD
ENDBRANCH  47  48
ENDBRANCH  41  42
ENDBRANCH  35  41
ENDBRANCH  32  33
ENDBRANCH   2  32
TORSDOF 16
ENDMDL
MODEL 8
REMARK VINA RESULT:    -9.799      3.005      4.825
REMARK INTER + INTRA:         -20.412
REMARK INTER:                 -17.532
REMARK INTRA:                  -2.880
REMARK UNBOUND:                -2.880
REMARK  Name = 
REMARK  17 active torsions:
REMARK  status: ('A' for Active; 'I' for Inactive)
REMARK    1  A    between atoms: C_1  and  O_2
REMARK    2  A    between atoms: O_2  and  C_3
REMARK    3  A    between atoms: C_4  and  C_5
REMARK    4  A    between atoms: C_5  and  C_6
REMARK    5  A    between atoms: C_8  and  C_13
REMARK    6  A    between atoms: C_11  and  O_12
REMARK    7  A    between atoms: C_13  and  C_14
REMARK    8  A    between atoms: C_19  and  O_20
REMARK    9  A    between atoms: C_21  and  O_22
REMARK   10  A    between atoms: C_23  and  C_37
REMARK   11  A    between atoms: C_24  and  O_36
REMARK   12  A    between atoms: C_25  and  C_26
REMARK   13  A    between atoms: C_26  and  C_28
REMARK   14  A    between atoms: C_28  and  C_29
REMARK   15  A    between atoms: C_29  and  C_30
REMARK   16  A    between atoms: C_37  and  C_38
REMARK   17  A    between atoms: C_43  and  O_44
REMARK                            x       y       z     vdW  Elec       q    Type
REMARK                         _______ _______ _______ _____ _____    ______ ____
ROOT
ATOM      1  C   UNL     1      83.689  49.468  43.968  0.00  0.00    +0.141 A 
ATOM      2  C   UNL     1      85.008  49.444  44.471  0.00  0.00    +0.041 A 
ATOM      3  C   UNL     1      85.858  50.552  44.239  0.00  0.00    +0.131 A 
ATOM      4  C   UNL     1      85.423  51.621  43.433  0.00  0.00    +0.041 A 
ATOM      5  C   UNL     1      84.115  51.628  42.916  0.00  0.00    +0.138 A 
ATOM      6  C   UNL     1      83.237  50.562  43.203  0.00  0.00    +0.101 A 
ENDROOT
BRANCH   1   8
ATOM      7  C   UNL     1      82.533  47.390  43.295  0.00  0.00    +0.079 C 
ATOM      8  O   UNL     1      82.818  48.408  44.247  0.00  0.00    -0.494 OA
ENDBRANCH   1   8
BRANCH   5   9
ATOM      9  O   UNL     1      83.705  52.719  42.140  0.00  0.00    -0.506 OA
ATOM     10  H   UNL     1      84.034  52.824  41.270  0.00  0.00    +0.000 HD
ENDBRANCH   5   9
BRANCH   6  11
ATOM     11  C   UNL     1      81.839  50.594  42.726  0.00  0.00    +0.171 C 
ATOM     12  O   UNL     1      81.597  50.397  41.505  0.00  0.00    -0.292 OA
BRANCH  11  13
ATOM     13  C   UNL     1      80.719  50.938  43.670  0.00  0.00    +0.015 C 
BRANCH  13  14
ATOM     14  C   UNL     1      79.892  49.701  44.046  0.00  0.00    -0.021 C 
BRANCH  14  15
ATOM     15  C   UNL     1      78.489  50.098  44.420  0.00  0.00    -0.047 A 
ATOM     16  C   UNL     1      77.892  51.229  43.836  0.00  0.00    -0.059 A 
ATOM     17  C   UNL     1      76.578  51.578  44.163  0.00  0.00    -0.062 A 
ATOM     18  C   UNL     1      75.849  50.796  45.063  0.00  0.00    -0.062 A 
ATOM     19  C   UNL     1      76.430  49.661  45.636  0.00  0.00    -0.062 A 
ATOM     20  C   UNL     1      77.746  49.311  45.317  0.00  0.00    -0.059 A 
ENDBRANCH  14  15
ENDBRANCH  13  14
ENDBRANCH  11  13
ENDBRANCH   6  11
BRANCH   3  21
ATOM     21  O   UNL     1      87.138  50.615  44.799  0.00  0.00    -0.506 OA
ATOM     22  H   UNL     1      87.790  49.990  44.550  0.00  0.00    +0.000 HD
ENDBRANCH   3  21
BRANCH   4  23
ATOM     23  C   UNL     1      86.377  52.749  43.074  0.00  0.00    +0.008 C 
BRANCH  23  24
ATOM     24  C   UNL     1      86.226  53.985  43.948  0.00  0.00    -0.001 A 
ATOM     25  C   UNL     1      86.486  53.939  45.337  0.00  0.00    -0.055 A 
ATOM     26  C   UNL     1      86.360  55.084  46.126  0.00  0.00    -0.061 A 
ATOM     27  C   UNL     1      85.950  56.286  45.555  0.00  0.00    -0.058 A 
ATOM     28  C   UNL     1      85.649  56.344  44.194  0.00  0.00    -0.020 A 
ATOM     29  C   UNL     1      85.763  55.204  43.388  0.00  0.00    +0.120 A 
BRANCH  29  30
ATOM     30  O   UNL     1      85.395  55.317  42.045  0.00  0.00    -0.506 OA
ATOM     31  H   UNL     1      84.644  54.858  41.725  0.00  0.00    +0.000 HD
ENDBRANCH  29  30
ENDBRANCH  23  24
ENDBRANCH   4  23
BRANCH   2  32
ATOM     32  C   UNL     1      85.504  48.221  45.225  0.00  0.00    +0.008 C 
BRANCH  32  33
ATOM     33  C   UNL     1      85.976  47.103  44.314  0.00  0.00    -0.001 A 
ATOM     34  C   UNL     1      86.948  47.386  43.338  0.00  0.00    -0.051 A 
ATOM     35  C   UNL     1      87.434  46.380  42.490  0.00  0.00    -0.042 A 
ATOM     36  C   UNL     1      86.964  45.069  42.639  0.00  0.00    -0.055 A 
ATOM     37  C   UNL     1      86.012  44.771  43.614  0.00  0.00    -0.020 A 
ATOM     38  C   UNL     1      85.519  45.775  44.459  0.00  0.00    +0.120 A 
BRANCH  38  39
ATOM     39  O   UNL     1      84.580  45.449  45.438  0.00  0.00    -0.506 OA
ATOM     40  H   UNL     1      84.657  44.644  45.910  0.00  0.00    +0.000 HD
ENDBRANCH  38  39
BRANCH  35  41
ATOM     41  C   UNL     1      88.498  46.692  41.471  0.00  0.00    +0.001 C 
BRANCH  41  42
ATOM     42  C   UNL     1      89.558  47.578  42.076  0.00  0.00    -0.002 A 
ATOM     43  C   UNL     1      90.478  47.035  42.991  0.00  0.00    -0.055 A 
ATOM     44  C   UNL     1      91.444  47.846  43.589  0.00  0.00    -0.061 A 
ATOM     45  C   UNL     1      91.497  49.208  43.292  0.00  0.00    -0.058 A 
ATOM     46  C   UNL     1      90.583  49.764  42.394  0.00  0.00    -0.020 A 
ATOM     47  C   UNL     1      89.610  48.958  41.786  0.00  0.00    +0.120 A 
BRANCH  47  48
ATOM     48  O   UNL     1      88.697  49.524  40.896  0.00  0.00    -0.506 OA
ATOM     49  H   UNL     1      88.064  50.142  41.204  0.00  0.00    +0.000 HD
ENDBRANCH  47  48
ENDBRANCH  41  42
ENDBRANCH  35  41
ENDBRANCH  32  33
ENDBRANCH   2  32
TORSDOF 16
ENDMDL
MODEL 9
REMARK VINA RESULT:    -9.550      1.817      5.739
REMARK INTER + INTRA:         -19.966
REMARK INTER:                 -17.963
REMARK INTRA:                  -2.002
REMARK UNBOUND:                -2.880
REMARK  Name = 
REMARK  17 active torsions:
REMARK  status: ('A' for Active; 'I' for Inactive)
REMARK    1  A    between atoms: C_1  and  O_2
REMARK    2  A    between atoms: O_2  and  C_3
REMARK    3  A    between atoms: C_4  and  C_5
REMARK    4  A    between atoms: C_5  and  C_6
REMARK    5  A    between atoms: C_8  and  C_13
REMARK    6  A    between atoms: C_11  and  O_12
REMARK    7  A    between atoms: C_13  and  C_14
REMARK    8  A    between atoms: C_19  and  O_20
REMARK    9  A    between atoms: C_21  and  O_22
REMARK   10  A    between atoms: C_23  and  C_37
REMARK   11  A    between atoms: C_24  and  O_36
REMARK   12  A    between atoms: C_25  and  C_26
REMARK   13  A    between atoms: C_26  and  C_28
REMARK   14  A    between atoms: C_28  and  C_29
REMARK   15  A    between atoms: C_29  and  C_30
REMARK   16  A    between atoms: C_37  and  C_38
REMARK   17  A    between atoms: C_43  and  O_44
REMARK                            x       y       z     vdW  Elec       q    Type
REMARK                         _______ _______ _______ _____ _____    ______ ____
ROOT
ATOM      1  C   UNL     1      87.189  51.527  44.996  0.00  0.00    +0.141 A 
ATOM      2  C   UNL     1      87.730  51.041  43.785  0.00  0.00    +0.041 A 
ATOM      3  C   UNL     1      87.320  51.623  42.561  0.00  0.00    +0.131 A 
ATOM      4  C   UNL     1      86.314  52.608  42.548  0.00  0.00    +0.041 A 
ATOM      5  C   UNL     1      85.764  53.070  43.757  0.00  0.00    +0.138 A 
ATOM      6  C   UNL     1      86.218  52.548  44.985  0.00  0.00    +0.101 A 
ENDROOT
BRANCH   1   8
ATOM      7  C   UNL     1      86.898  50.024  46.936  0.00  0.00    +0.079 C 
ATOM      8  O   UNL     1      87.636  51.005  46.217  0.00  0.00    -0.494 OA
ENDBRANCH   1   8
BRANCH   5   9
ATOM      9  O   UNL     1      84.784  54.069  43.710  0.00  0.00    -0.506 OA
ATOM     10  H   UNL     1      84.150  54.072  43.019  0.00  0.00    +0.000 HD
ENDBRANCH   5   9
BRANCH   6  11
ATOM     11  C   UNL     1      85.700  53.079  46.263  0.00  0.00    +0.171 C 
ATOM     12  O   UNL     1      84.562  52.716  46.668  0.00  0.00    -0.292 OA
BRANCH  11  13
ATOM     13  C   UNL     1      86.484  54.103  47.038  0.00  0.00    +0.015 C 
BRANCH  13  14
ATOM     14  C   UNL     1      85.608  55.289  47.463  0.00  0.00    -0.021 C 
BRANCH  14  15
ATOM     15  C   UNL     1      85.631  56.364  46.410  0.00  0.00    -0.047 A 
ATOM     16  C   UNL     1      86.536  56.288  45.336  0.00  0.00    -0.059 A 
ATOM     17  C   UNL     1      86.534  57.273  44.344  0.00  0.00    -0.062 A 
ATOM     18  C   UNL     1      85.623  58.332  44.409  0.00  0.00    -0.062 A 
ATOM     19  C   UNL     1      84.709  58.406  45.465  0.00  0.00    -0.062 A 
ATOM     20  C   UNL     1      84.711  57.426  46.463  0.00  0.00    -0.059 A 
ENDBRANCH  14  15
ENDBRANCH  13  14
ENDBRANCH  11  13
ENDBRANCH   6  11
BRANCH   3  21
ATOM     21  O   UNL     1      87.899  51.243  41.346  0.00  0.00    -0.506 OA
ATOM     22  H   UNL     1      87.465  50.620  40.796  0.00  0.00    +0.000 HD
ENDBRANCH   3  21
BRANCH   4  23
ATOM     23  C   UNL     1      85.779  53.140  41.229  0.00  0.00    +0.008 C 
BRANCH  23  24
ATOM     24  C   UNL     1      84.283  53.418  41.238  0.00  0.00    -0.001 A 
ATOM     25  C   UNL     1      83.349  52.407  41.561  0.00  0.00    -0.055 A 
ATOM     26  C   UNL     1      81.980  52.678  41.582  0.00  0.00    -0.061 A 
ATOM     27  C   UNL     1      81.513  53.950  41.260  0.00  0.00    -0.058 A 
ATOM     28  C   UNL     1      82.414  54.951  40.900  0.00  0.00    -0.020 A 
ATOM     29  C   UNL     1      83.791  54.696  40.865  0.00  0.00    +0.120 A 
BRANCH  29  30
ATOM     30  O   UNL     1      84.634  55.727  40.444  0.00  0.00    -0.506 OA
ATOM     31  H   UNL     1      84.510  56.597  40.771  0.00  0.00    +0.000 HD
ENDBRANCH  29  30
ENDBRANCH  23  24
ENDBRANCH   4  23
BRANCH   2  32
ATOM     32  C   UNL     1      88.716  49.885  43.810  0.00  0.00    +0.008 C 
BRANCH  32  33
ATOM     33  C   UNL     1      88.111  48.569  43.359  0.00  0.00    -0.001 A 
ATOM     34  C   UNL     1      86.865  48.179  43.881  0.00  0.00    -0.051 A 
ATOM     35  C   UNL     1      86.254  46.983  43.475  0.00  0.00    -0.042 A 
ATOM     36  C   UNL     1      86.883  46.182  42.513  0.00  0.00    -0.055 A 
ATOM     37  C   UNL     1      88.112  46.565  41.975  0.00  0.00    -0.020 A 
ATOM     38  C   UNL     1      88.728  47.756  42.383  0.00  0.00    +0.120 A 
BRANCH  38  39
ATOM     39  O   UNL     1      89.949  48.126  41.818  0.00  0.00    -0.506 OA
ATOM     40  H   UNL     1      90.053  48.979  41.446  0.00  0.00    +0.000 HD
ENDBRANCH  38  39
BRANCH  35  41
ATOM     41  C   UNL     1      84.905  46.595  44.019  0.00  0.00    +0.001 C 
BRANCH  41  42
ATOM     42  C   UNL     1      83.964  47.773  43.973  0.00  0.00    -0.002 A 
ATOM     43  C   UNL     1      84.430  49.049  44.335  0.00  0.00    -0.055 A 
ATOM     44  C   UNL     1      83.565  50.146  44.333  0.00  0.00    -0.061 A 
ATOM     45  C   UNL     1      82.225  49.980  43.980  0.00  0.00    -0.058 A 
ATOM     46  C   UNL     1      81.745  48.717  43.629  0.00  0.00    -0.020 A 
ATOM     47  C   UNL     1      82.606  47.609  43.626  0.00  0.00    +0.120 A 
BRANCH  47  48
ATOM     48  O   UNL     1      82.114  46.350  43.281  0.00  0.00    -0.506 OA
ATOM     49  H   UNL     1      81.449  46.270  42.627  0.00  0.00    +0.000 HD
ENDBRANCH  47  48
ENDBRANCH  41  42
ENDBRANCH  35  41
ENDBRANCH  32  33
ENDBRANCH   2  32
TORSDOF 16
ENDMDL
