MODEL 1
REMARK VINA RESULT:   -13.506      0.000      0.000
REMARK INTER + INTRA:         -23.875
REMARK INTER:                 -20.501
REMARK INTRA:                  -3.374
REMARK UNBOUND:                -0.500
REMARK  Name = 
REMARK  16 active torsions:
REMARK  status: ('A' for Active; 'I' for Inactive)
REMARK    1  A    between atoms: C_1  and  O_2
REMARK    2  A    between atoms: O_2  and  C_3
REMARK    3  A    between atoms: C_4  and  C_5
REMARK    4  A    between atoms: C_5  and  C_6
REMARK    5  A    between atoms: C_8  and  C_13
REMARK    6  A    between atoms: C_11  and  O_12
REMARK    7  A    between atoms: C_13  and  C_14
REMARK    8  A    between atoms: C_19  and  O_20
REMARK    9  A    between atoms: C_21  and  O_22
REMARK   10  A    between atoms: C_25  and  C_26
REMARK   11  A    between atoms: C_26  and  C_27
REMARK   12  A    between atoms: C_29  and  C_34
REMARK   13  A    between atoms: C_32  and  O_33
REMARK   14  A    between atoms: C_34  and  C_35
REMARK   15  A    between atoms: C_40  and  O_41
REMARK   16  A    between atoms: C_43  and  C_47
REMARK                            x       y       z     vdW  Elec       q    Type
REMARK                         _______ _______ _______ _____ _____    ______ ____
ROOT
ATOM      1  C   UNL     1      85.969  51.602  43.455  0.00  0.00    +0.134 A 
ATOM      2  C   UNL     1      85.508  52.808  42.882  0.00  0.00    +0.041 A 
ATOM      3  C   UNL     1      84.160  52.918  42.473  0.00  0.00    +0.138 A 
ATOM      4  C   UNL     1      83.271  51.831  42.665  0.00  0.00    +0.101 A 
ATOM      5  C   UNL     1      83.707  50.711  43.402  0.00  0.00    +0.142 A 
ATOM      6  C   UNL     1      85.058  50.577  43.775  0.00  0.00    +0.041 A 
ATOM      7  O   UNL     1      82.787  49.711  43.750  0.00  0.00    -0.483 OA
ATOM      8  C   UNL     1      81.378  49.916  43.669  0.00  0.00    +0.132 C 
ATOM      9  C   UNL     1      81.022  50.569  42.329  0.00  0.00    +0.052 C 
ATOM     10  C   UNL     1      81.901  51.762  42.073  0.00  0.00    +0.174 C 
ATOM     11  O   UNL     1      81.502  52.618  41.241  0.00  0.00    -0.292 OA
ENDROOT
BRANCH   8  12
ATOM     12  C   UNL     1      80.645  48.605  43.838  0.00  0.00    -0.007 A 
ATOM     13  C   UNL     1      79.294  48.597  44.222  0.00  0.00    -0.055 A 
ATOM     14  C   UNL     1      78.597  47.388  44.334  0.00  0.00    -0.061 A 
ATOM     15  C   UNL     1      79.243  46.181  44.053  0.00  0.00    -0.062 A 
ATOM     16  C   UNL     1      80.583  46.179  43.659  0.00  0.00    -0.061 A 
ATOM     17  C   UNL     1      81.282  47.385  43.544  0.00  0.00    -0.055 A 
ENDBRANCH   8  12
BRANCH   1  19
ATOM     18  C   UNL     1      87.825  51.469  45.069  0.00  0.00    +0.079 C 
ATOM     19  O   UNL     1      87.327  51.421  43.736  0.00  0.00    -0.494 OA
ENDBRANCH   1  19
BRANCH   3  20
ATOM     20  O   UNL     1      83.740  54.126  41.909  0.00  0.00    -0.506 OA
ATOM     21  H   UNL     1      83.009  54.140  41.323  0.00  0.00    +0.000 HD
ENDBRANCH   3  20
BRANCH   2  22
ATOM     22  C   UNL     1      86.409  54.029  42.815  0.00  0.00    +0.008 C 
BRANCH  22  23
ATOM     23  C   UNL     1      86.015  55.043  43.867  0.00  0.00    -0.001 A 
ATOM     24  C   UNL     1      86.275  54.776  45.221  0.00  0.00    -0.051 A 
ATOM     25  C   UNL     1      85.994  55.731  46.208  0.00  0.00    -0.042 A 
ATOM     26  C   UNL     1      85.408  56.951  45.838  0.00  0.00    -0.055 A 
ATOM     27  C   UNL     1      85.124  57.218  44.496  0.00  0.00    -0.020 A 
ATOM     28  C   UNL     1      85.435  56.275  43.507  0.00  0.00    +0.120 A 
BRANCH  28  29
ATOM     29  O   UNL     1      85.166  56.561  42.168  0.00  0.00    -0.506 OA
ATOM     30  H   UNL     1      84.285  56.530  41.850  0.00  0.00    +0.000 HD
ENDBRANCH  28  29
BRANCH  25  31
ATOM     31  C   UNL     1      86.384  55.464  47.639  0.00  0.00    +0.001 C 
BRANCH  31  32
ATOM     32  C   UNL     1      85.638  54.256  48.169  0.00  0.00    -0.002 A 
ATOM     33  C   UNL     1      86.340  53.044  48.320  0.00  0.00    -0.055 A 
ATOM     34  C   UNL     1      85.718  51.922  48.873  0.00  0.00    -0.061 A 
ATOM     35  C   UNL     1      84.389  51.995  49.289  0.00  0.00    -0.058 A 
ATOM     36  C   UNL     1      83.678  53.188  49.148  0.00  0.00    -0.020 A 
ATOM     37  C   UNL     1      84.284  54.321  48.591  0.00  0.00    +0.120 A 
BRANCH  37  38
ATOM     38  O   UNL     1      83.510  55.477  48.473  0.00  0.00    -0.506 OA
ATOM     39  H   UNL     1      83.237  55.938  49.243  0.00  0.00    +0.000 HD
ENDBRANCH  37  38
ENDBRANCH  31  32
ENDBRANCH  25  31
ENDBRANCH  22  23
ENDBRANCH   2  22
BRANCH   6  40
ATOM     40  C   UNL     1      85.521  49.353  44.544  0.00  0.00    +0.008 C 
BRANCH  40  41
ATOM     41  C   UNL     1      85.844  48.175  43.649  0.00  0.00    -0.001 A 
ATOM     42  C   UNL     1      86.982  48.228  42.821  0.00  0.00    -0.051 A 
ATOM     43  C   UNL     1      87.354  47.123  42.035  0.00  0.00    -0.042 A 
ATOM     44  C   UNL     1      86.580  45.956  42.084  0.00  0.00    -0.055 A 
ATOM     45  C   UNL     1      85.448  45.894  42.895  0.00  0.00    -0.020 A 
ATOM     46  C   UNL     1      85.082  46.987  43.692  0.00  0.00    +0.120 A 
BRANCH  46  47
ATOM     47  O   UNL     1      83.973  46.883  44.530  0.00  0.00    -0.506 OA
ATOM     48  H   UNL     1      84.031  46.392  45.325  0.00  0.00    +0.000 HD
ENDBRANCH  46  47
BRANCH  43  49
ATOM     49  C   UNL     1      88.618  47.158  41.210  0.00  0.00    +0.001 C 
BRANCH  49  50
ATOM     50  C   UNL     1      89.759  47.787  41.972  0.00  0.00    -0.002 A 
ATOM     51  C   UNL     1      90.506  47.011  42.879  0.00  0.00    -0.055 A 
ATOM     52  C   UNL     1      91.585  47.569  43.570  0.00  0.00    -0.061 A 
ATOM     53  C   UNL     1      91.928  48.907  43.369  0.00  0.00    -0.058 A 
ATOM     54  C   UNL     1      91.193  49.690  42.471  0.00  0.00    -0.020 A 
ATOM     55  C   UNL     1      90.112  49.136  41.766  0.00  0.00    +0.120 A 
BRANCH  55  56
ATOM     56  O   UNL     1      89.388  49.920  40.868  0.00  0.00    -0.506 OA
ATOM     57  H   UNL     1      88.452  49.907  40.885  0.00  0.00    +0.000 HD
ENDBRANCH  55  56
ENDBRANCH  49  50
ENDBRANCH  43  49
ENDBRANCH  40  41
ENDBRANCH   6  40
TORSDOF 15
ENDMDL
MODEL 2
REMARK VINA RESULT:   -12.400      1.317      2.601
REMARK INTER + INTRA:         -21.962
REMARK INTER:                 -19.236
REMARK INTRA:                  -2.726
REMARK UNBOUND:                -0.500
REMARK  Name = 
REMARK  16 active torsions:
REMARK  status: ('A' for Active; 'I' for Inactive)
REMARK    1  A    between atoms: C_1  and  O_2
REMARK    2  A    between atoms: O_2  and  C_3
REMARK    3  A    between atoms: C_4  and  C_5
REMARK    4  A    between atoms: C_5  and  C_6
REMARK    5  A    between atoms: C_8  and  C_13
REMARK    6  A    between atoms: C_11  and  O_12
REMARK    7  A    between atoms: C_13  and  C_14
REMARK    8  A    between atoms: C_19  and  O_20
REMARK    9  A    between atoms: C_21  and  O_22
REMARK   10  A    between atoms: C_25  and  C_26
REMARK   11  A    between atoms: C_26  and  C_27
REMARK   12  A    between atoms: C_29  and  C_34
REMARK   13  A    between atoms: C_32  and  O_33
REMARK   14  A    between atoms: C_34  and  C_35
REMARK   15  A    between atoms: C_40  and  O_41
REMARK   16  A    between atoms: C_43  and  C_47
REMARK                            x       y       z     vdW  Elec       q    Type
REMARK                         _______ _______ _______ _____ _____    ______ ____
ROOT
ATOM      1  C   UNL     1      85.759  52.473  43.621  0.00  0.00    +0.134 A 
ATOM      2  C   UNL     1      85.166  53.501  42.855  0.00  0.00    +0.041 A 
ATOM      3  C   UNL     1      83.860  53.329  42.346  0.00  0.00    +0.138 A 
ATOM      4  C   UNL     1      83.140  52.140  42.628  0.00  0.00    +0.101 A 
ATOM      5  C   UNL     1      83.681  51.214  43.543  0.00  0.00    +0.142 A 
ATOM      6  C   UNL     1      84.997  51.358  44.020  0.00  0.00    +0.041 A 
ATOM      7  O   UNL     1      82.904  50.125  43.965  0.00  0.00    -0.483 OA
ATOM      8  C   UNL     1      81.493  50.077  43.761  0.00  0.00    +0.132 C 
ATOM      9  C   UNL     1      81.159  50.484  42.323  0.00  0.00    +0.052 C 
ATOM     10  C   UNL     1      81.858  51.766  41.961  0.00  0.00    +0.174 C 
ATOM     11  O   UNL     1      81.403  52.429  40.993  0.00  0.00    -0.292 OA
ENDROOT
BRANCH   8  12
ATOM     12  C   UNL     1      80.965  48.694  44.063  0.00  0.00    -0.007 A 
ATOM     13  C   UNL     1      79.587  48.488  44.246  0.00  0.00    -0.055 A 
ATOM     14  C   UNL     1      79.088  47.202  44.478  0.00  0.00    -0.061 A 
ATOM     15  C   UNL     1      79.959  46.111  44.521  0.00  0.00    -0.062 A 
ATOM     16  C   UNL     1      81.330  46.302  44.329  0.00  0.00    -0.061 A 
ATOM     17  C   UNL     1      81.833  47.586  44.094  0.00  0.00    -0.055 A 
ENDBRANCH   8  12
BRANCH   1  19
ATOM     18  C   UNL     1      88.148  52.704  43.064  0.00  0.00    +0.079 C 
ATOM     19  O   UNL     1      87.099  52.562  44.015  0.00  0.00    -0.494 OA
ENDBRANCH   1  19
BRANCH   3  20
ATOM     20  O   UNL     1      83.306  54.366  41.590  0.00  0.00    -0.506 OA
ATOM     21  H   UNL     1      82.521  54.788  41.879  0.00  0.00    +0.000 HD
ENDBRANCH   3  20
BRANCH   2  22
ATOM     22  C   UNL     1      85.865  54.838  42.678  0.00  0.00    +0.008 C 
BRANCH  22  23
ATOM     23  C   UNL     1      85.630  55.727  43.880  0.00  0.00    -0.001 A 
ATOM     24  C   UNL     1      86.005  55.282  45.158  0.00  0.00    -0.051 A 
ATOM     25  C   UNL     1      85.874  56.116  46.277  0.00  0.00    -0.042 A 
ATOM     26  C   UNL     1      85.322  57.396  46.118  0.00  0.00    -0.055 A 
ATOM     27  C   UNL     1      84.924  57.841  44.855  0.00  0.00    -0.020 A 
ATOM     28  C   UNL     1      85.086  57.018  43.733  0.00  0.00    +0.120 A 
BRANCH  28  29
ATOM     29  O   UNL     1      84.705  57.482  42.473  0.00  0.00    -0.506 OA
ATOM     30  H   UNL     1      84.570  58.398  42.332  0.00  0.00    +0.000 HD
ENDBRANCH  28  29
BRANCH  25  31
ATOM     31  C   UNL     1      86.385  55.655  47.617  0.00  0.00    +0.001 C 
BRANCH  31  32
ATOM     32  C   UNL     1      85.679  54.383  48.038  0.00  0.00    -0.002 A 
ATOM     33  C   UNL     1      86.408  53.177  48.040  0.00  0.00    -0.055 A 
ATOM     34  C   UNL     1      85.825  51.990  48.490  0.00  0.00    -0.061 A 
ATOM     35  C   UNL     1      84.508  51.990  48.950  0.00  0.00    -0.058 A 
ATOM     36  C   UNL     1      83.770  53.175  48.955  0.00  0.00    -0.020 A 
ATOM     37  C   UNL     1      84.338  54.373  48.503  0.00  0.00    +0.120 A 
BRANCH  37  38
ATOM     38  O   UNL     1      83.538  55.518  48.530  0.00  0.00    -0.506 OA
ATOM     39  H   UNL     1      82.759  55.557  48.011  0.00  0.00    +0.000 HD
ENDBRANCH  37  38
ENDBRANCH  31  32
ENDBRANCH  25  31
ENDBRANCH  22  23
ENDBRANCH   2  22
BRANCH   6  40
ATOM     40  C   UNL     1      85.578  50.339  44.983  0.00  0.00    +0.008 C 
BRANCH  40  41
ATOM     41  C   UNL     1      86.821  49.657  44.450  0.00  0.00    -0.001 A 
ATOM     42  C   UNL     1      86.697  48.700  43.422  0.00  0.00    -0.051 A 
ATOM     43  C   UNL     1      87.835  48.104  42.851  0.00  0.00    -0.042 A 
ATOM     44  C   UNL     1      89.106  48.474  43.312  0.00  0.00    -0.055 A 
ATOM     45  C   UNL     1      89.241  49.415  44.332  0.00  0.00    -0.020 A 
ATOM     46  C   UNL     1      88.110  50.023  44.894  0.00  0.00    +0.120 A 
BRANCH  46  47
ATOM     47  O   UNL     1      88.273  50.994  45.879  0.00  0.00    -0.506 OA
ATOM     48  H   UNL     1      88.236  50.755  46.784  0.00  0.00    +0.000 HD
ENDBRANCH  46  47
BRANCH  43  49
ATOM     49  C   UNL     1      87.700  47.139  41.698  0.00  0.00    +0.001 C 
BRANCH  49  50
ATOM     50  C   UNL     1      87.542  45.718  42.182  0.00  0.00    -0.002 A 
ATOM     51  C   UNL     1      88.685  44.947  42.469  0.00  0.00    -0.055 A 
ATOM     52  C   UNL     1      88.558  43.640  42.947  0.00  0.00    -0.061 A 
ATOM     53  C   UNL     1      87.290  43.086  43.139  0.00  0.00    -0.058 A 
ATOM     54  C   UNL     1      86.146  43.841  42.857  0.00  0.00    -0.020 A 
ATOM     55  C   UNL     1      86.264  45.158  42.383  0.00  0.00    +0.120 A 
BRANCH  55  56
ATOM     56  O   UNL     1      85.121  45.908  42.111  0.00  0.00    -0.506 OA
ATOM     57  H   UNL     1      84.616  46.264  42.815  0.00  0.00    +0.000 HD
ENDBRANCH  55  56
ENDBRANCH  49  50
ENDBRANCH  43  49
ENDBRANCH  40  41
ENDBRANCH   6  40
TORSDOF 15
ENDMDL
MODEL 3
REMARK VINA RESULT:   -11.856      2.080      8.441
REMARK INTER + INTRA:         -21.020
REMARK INTER:                 -20.485
REMARK INTRA:                  -0.535
REMARK UNBOUND:                -0.500
REMARK  Name = 
REMARK  16 active torsions:
REMARK  status: ('A' for Active; 'I' for Inactive)
REMARK    1  A    between atoms: C_1  and  O_2
REMARK    2  A    between atoms: O_2  and  C_3
REMARK    3  A    between atoms: C_4  and  C_5
REMARK    4  A    between atoms: C_5  and  C_6
REMARK    5  A    between atoms: C_8  and  C_13
REMARK    6  A    between atoms: C_11  and  O_12
REMARK    7  A    between atoms: C_13  and  C_14
REMARK    8  A    between atoms: C_19  and  O_20
REMARK    9  A    between atoms: C_21  and  O_22
REMARK   10  A    between atoms: C_25  and  C_26
REMARK   11  A    between atoms: C_26  and  C_27
REMARK   12  A    between atoms: C_29  and  C_34
REMARK   13  A    between atoms: C_32  and  O_33
REMARK   14  A    between atoms: C_34  and  C_35
REMARK   15  A    between atoms: C_40  and  O_41
REMARK   16  A    between atoms: C_43  and  C_47
REMARK                            x       y       z     vdW  Elec       q    Type
REMARK                         _______ _______ _______ _____ _____    ______ ____
ROOT
ATOM      1  C   UNL     1      88.391  52.087  42.020  0.00  0.00    +0.134 A 
ATOM      2  C   UNL     1      88.585  50.714  42.290  0.00  0.00    +0.041 A 
ATOM      3  C   UNL     1      88.137  50.173  43.516  0.00  0.00    +0.138 A 
ATOM      4  C   UNL     1      87.471  51.000  44.455  0.00  0.00    +0.101 A 
ATOM      5  C   UNL     1      87.129  52.317  44.085  0.00  0.00    +0.142 A 
ATOM      6  C   UNL     1      87.608  52.875  42.885  0.00  0.00    +0.041 A 
ATOM      7  O   UNL     1      86.317  53.084  44.933  0.00  0.00    -0.483 OA
ATOM      8  C   UNL     1      85.567  52.501  45.996  0.00  0.00    +0.132 C 
ATOM      9  C   UNL     1      86.450  51.529  46.786  0.00  0.00    +0.052 C 
ATOM     10  C   UNL     1      87.162  50.587  45.856  0.00  0.00    +0.174 C 
ATOM     11  O   UNL     1      87.604  49.510  46.335  0.00  0.00    -0.292 OA
ENDROOT
BRANCH   8  12
ATOM     12  C   UNL     1      85.011  53.577  46.900  0.00  0.00    -0.007 A 
ATOM     13  C   UNL     1      84.615  54.813  46.365  0.00  0.00    -0.055 A 
ATOM     14  C   UNL     1      84.055  55.796  47.189  0.00  0.00    -0.061 A 
ATOM     15  C   UNL     1      83.880  55.547  48.553  0.00  0.00    -0.062 A 
ATOM     16  C   UNL     1      84.260  54.316  49.094  0.00  0.00    -0.061 A 
ATOM     17  C   UNL     1      84.817  53.331  48.273  0.00  0.00    -0.055 A 
ENDBRANCH   8  12
BRANCH   1  19
ATOM     18  C   UNL     1      88.338  52.543  39.599  0.00  0.00    +0.079 C 
ATOM     19  O   UNL     1      88.949  52.673  40.878  0.00  0.00    -0.494 OA
ENDBRANCH   1  19
BRANCH   3  20
ATOM     20  O   UNL     1      88.348  48.811  43.750  0.00  0.00    -0.506 OA
ATOM     21  H   UNL     1      88.865  48.308  43.152  0.00  0.00    +0.000 HD
ENDBRANCH   3  20
BRANCH   2  22
ATOM     22  C   UNL     1      89.155  49.787  41.230  0.00  0.00    +0.008 C 
BRANCH  22  23
ATOM     23  C   UNL     1      89.398  48.407  41.801  0.00  0.00    -0.001 A 
ATOM     24  C   UNL     1      88.434  47.402  41.622  0.00  0.00    -0.051 A 
ATOM     25  C   UNL     1      88.669  46.094  42.070  0.00  0.00    -0.042 A 
ATOM     26  C   UNL     1      89.866  45.802  42.741  0.00  0.00    -0.055 A 
ATOM     27  C   UNL     1      90.822  46.800  42.944  0.00  0.00    -0.020 A 
ATOM     28  C   UNL     1      90.600  48.099  42.468  0.00  0.00    +0.120 A 
BRANCH  28  29
ATOM     29  O   UNL     1      91.571  49.082  42.658  0.00  0.00    -0.506 OA
ATOM     30  H   UNL     1      92.426  48.844  42.959  0.00  0.00    +0.000 HD
ENDBRANCH  28  29
BRANCH  25  31
ATOM     31  C   UNL     1      87.667  45.010  41.768  0.00  0.00    +0.001 C 
BRANCH  31  32
ATOM     32  C   UNL     1      86.409  45.217  42.585  0.00  0.00    -0.002 A 
ATOM     33  C   UNL     1      85.355  45.963  42.021  0.00  0.00    -0.055 A 
ATOM     34  C   UNL     1      84.146  46.121  42.702  0.00  0.00    -0.061 A 
ATOM     35  C   UNL     1      83.968  45.531  43.954  0.00  0.00    -0.058 A 
ATOM     36  C   UNL     1      85.000  44.788  44.529  0.00  0.00    -0.020 A 
ATOM     37  C   UNL     1      86.221  44.624  43.861  0.00  0.00    +0.120 A 
BRANCH  37  38
ATOM     38  O   UNL     1      87.212  43.875  44.500  0.00  0.00    -0.506 OA
ATOM     39  H   UNL     1      86.979  43.279  45.185  0.00  0.00    +0.000 HD
ENDBRANCH  37  38
ENDBRANCH  31  32
ENDBRANCH  25  31
ENDBRANCH  22  23
ENDBRANCH   2  22
BRANCH   6  40
ATOM     40  C   UNL     1      87.254  54.303  42.511  0.00  0.00    +0.008 C 
BRANCH  40  41
ATOM     41  C   UNL     1      85.763  54.530  42.374  0.00  0.00    -0.001 A 
ATOM     42  C   UNL     1      84.950  53.497  41.865  0.00  0.00    -0.051 A 
ATOM     43  C   UNL     1      83.554  53.646  41.797  0.00  0.00    -0.042 A 
ATOM     44  C   UNL     1      82.969  54.839  42.245  0.00  0.00    -0.055 A 
ATOM     45  C   UNL     1      83.764  55.870  42.744  0.00  0.00    -0.020 A 
ATOM     46  C   UNL     1      85.154  55.720  42.829  0.00  0.00    +0.120 A 
BRANCH  46  47
ATOM     47  O   UNL     1      85.922  56.747  43.375  0.00  0.00    -0.506 OA
ATOM     48  H   UNL     1      86.736  56.986  42.978  0.00  0.00    +0.000 HD
ENDBRANCH  46  47
BRANCH  43  49
ATOM     49  C   UNL     1      82.683  52.507  41.325  0.00  0.00    +0.001 C 
BRANCH  49  50
ATOM     50  C   UNL     1      82.776  51.319  42.251  0.00  0.00    -0.002 A 
ATOM     51  C   UNL     1      84.027  50.935  42.770  0.00  0.00    -0.055 A 
ATOM     52  C   UNL     1      84.128  49.856  43.653  0.00  0.00    -0.061 A 
ATOM     53  C   UNL     1      82.985  49.145  44.023  0.00  0.00    -0.058 A 
ATOM     54  C   UNL     1      81.735  49.516  43.513  0.00  0.00    -0.020 A 
ATOM     55  C   UNL     1      81.622  50.604  42.631  0.00  0.00    +0.120 A 
BRANCH  55  56
ATOM     56  O   UNL     1      80.374  50.973  42.133  0.00  0.00    -0.506 OA
ATOM     57  H   UNL     1      79.836  51.570  42.613  0.00  0.00    +0.000 HD
ENDBRANCH  55  56
ENDBRANCH  49  50
ENDBRANCH  43  49
ENDBRANCH  40  41
ENDBRANCH   6  40
TORSDOF 15
ENDMDL
MODEL 4
REMARK VINA RESULT:   -11.556      2.104      8.142
REMARK INTER + INTRA:         -20.502
REMARK INTER:                 -16.698
REMARK INTRA:                  -3.803
REMARK UNBOUND:                -0.500
REMARK  Name = 
REMARK  16 active torsions:
REMARK  status: ('A' for Active; 'I' for Inactive)
REMARK    1  A    between atoms: C_1  and  O_2
REMARK    2  A    between atoms: O_2  and  C_3
REMARK    3  A    between atoms: C_4  and  C_5
REMARK    4  A    between atoms: C_5  and  C_6
REMARK    5  A    between atoms: C_8  and  C_13
REMARK    6  A    between atoms: C_11  and  O_12
REMARK    7  A    between atoms: C_13  and  C_14
REMARK    8  A    between atoms: C_19  and  O_20
REMARK    9  A    between atoms: C_21  and  O_22
REMARK   10  A    between atoms: C_25  and  C_26
REMARK   11  A    between atoms: C_26  and  C_27
REMARK   12  A    between atoms: C_29  and  C_34
REMARK   13  A    between atoms: C_32  and  O_33
REMARK   14  A    between atoms: C_34  and  C_35
REMARK   15  A    between atoms: C_40  and  O_41
REMARK   16  A    between atoms: C_43  and  C_47
REMARK                            x       y       z     vdW  Elec       q    Type
REMARK                         _______ _______ _______ _____ _____    ______ ____
ROOT
ATOM      1  C   UNL     1      83.643  49.810  43.356  0.00  0.00    +0.134 A 
ATOM      2  C   UNL     1      84.489  49.074  44.216  0.00  0.00    +0.041 A 
ATOM      3  C   UNL     1      85.409  49.756  45.043  0.00  0.00    +0.138 A 
ATOM      4  C   UNL     1      85.460  51.173  45.030  0.00  0.00    +0.101 A 
ATOM      5  C   UNL     1      84.484  51.885  44.304  0.00  0.00    +0.142 A 
ATOM      6  C   UNL     1      83.593  51.215  43.445  0.00  0.00    +0.041 A 
ATOM      7  O   UNL     1      84.415  53.281  44.425  0.00  0.00    -0.483 OA
ATOM      8  C   UNL     1      85.072  53.984  45.477  0.00  0.00    +0.132 C 
ATOM      9  C   UNL     1      86.510  53.475  45.626  0.00  0.00    +0.052 C 
ATOM     10  C   UNL     1      86.534  51.973  45.689  0.00  0.00    +0.174 C 
ATOM     11  O   UNL     1      87.550  51.422  46.188  0.00  0.00    -0.292 OA
ENDROOT
BRANCH   8  12
ATOM     12  C   UNL     1      85.055  55.471  45.208  0.00  0.00    -0.007 A 
ATOM     13  C   UNL     1      85.358  56.378  46.237  0.00  0.00    -0.055 A 
ATOM     14  C   UNL     1      85.391  57.753  45.981  0.00  0.00    -0.061 A 
ATOM     15  C   UNL     1      85.130  58.232  44.694  0.00  0.00    -0.062 A 
ATOM     16  C   UNL     1      84.839  57.338  43.661  0.00  0.00    -0.061 A 
ATOM     17  C   UNL     1      84.808  55.962  43.912  0.00  0.00    -0.055 A 
ENDBRANCH   8  12
BRANCH   1  19
ATOM     18  C   UNL     1      81.564  48.610  42.801  0.00  0.00    +0.079 C 
ATOM     19  O   UNL     1      82.826  49.154  42.429  0.00  0.00    -0.494 OA
ENDBRANCH   1  19
BRANCH   3  20
ATOM     20  O   UNL     1      86.232  48.995  45.879  0.00  0.00    -0.506 OA
ATOM     21  H   UNL     1      86.154  49.073  46.809  0.00  0.00    +0.000 HD
ENDBRANCH   3  20
BRANCH   2  22
ATOM     22  C   UNL     1      84.336  47.569  44.353  0.00  0.00    +0.008 C 
BRANCH  22  23
ATOM     23  C   UNL     1      85.433  46.849  43.600  0.00  0.00    -0.001 A 
ATOM     24  C   UNL     1      86.270  47.570  42.734  0.00  0.00    -0.051 A 
ATOM     25  C   UNL     1      87.345  46.944  42.087  0.00  0.00    -0.042 A 
ATOM     26  C   UNL     1      87.557  45.570  42.279  0.00  0.00    -0.055 A 
ATOM     27  C   UNL     1      86.716  44.838  43.120  0.00  0.00    -0.020 A 
ATOM     28  C   UNL     1      85.662  45.472  43.792  0.00  0.00    +0.120 A 
BRANCH  28  29
ATOM     29  O   UNL     1      84.841  44.735  44.647  0.00  0.00    -0.506 OA
ATOM     30  H   UNL     1      85.208  44.053  45.174  0.00  0.00    +0.000 HD
ENDBRANCH  28  29
BRANCH  25  31
ATOM     31  C   UNL     1      88.293  47.763  41.250  0.00  0.00    +0.001 C 
BRANCH  31  32
ATOM     32  C   UNL     1      89.459  48.238  42.093  0.00  0.00    -0.002 A 
ATOM     33  C   UNL     1      89.268  48.392  43.481  0.00  0.00    -0.055 A 
ATOM     34  C   UNL     1      90.329  48.757  44.312  0.00  0.00    -0.061 A 
ATOM     35  C   UNL     1      91.599  48.967  43.772  0.00  0.00    -0.058 A 
ATOM     36  C   UNL     1      91.807  48.819  42.400  0.00  0.00    -0.020 A 
ATOM     37  C   UNL     1      90.752  48.459  41.551  0.00  0.00    +0.120 A 
BRANCH  37  38
ATOM     38  O   UNL     1      91.032  48.337  40.188  0.00  0.00    -0.506 OA
ATOM     39  H   UNL     1      91.885  48.553  39.865  0.00  0.00    +0.000 HD
ENDBRANCH  37  38
ENDBRANCH  31  32
ENDBRANCH  25  31
ENDBRANCH  22  23
ENDBRANCH   2  22
BRANCH   6  40
ATOM     40  C   UNL     1      82.564  51.996  42.648  0.00  0.00    +0.008 C 
BRANCH  40  41
ATOM     41  C   UNL     1      83.184  53.022  41.722  0.00  0.00    -0.001 A 
ATOM     42  C   UNL     1      84.430  52.748  41.122  0.00  0.00    -0.051 A 
ATOM     43  C   UNL     1      84.997  53.644  40.199  0.00  0.00    -0.042 A 
ATOM     44  C   UNL     1      84.309  54.821  39.873  0.00  0.00    -0.055 A 
ATOM     45  C   UNL     1      83.079  55.105  40.466  0.00  0.00    -0.020 A 
ATOM     46  C   UNL     1      82.502  54.209  41.375  0.00  0.00    +0.120 A 
BRANCH  46  47
ATOM     47  O   UNL     1      81.251  54.493  41.918  0.00  0.00    -0.506 OA
ATOM     48  H   UNL     1      80.483  54.091  41.562  0.00  0.00    +0.000 HD
ENDBRANCH  46  47
BRANCH  43  49
ATOM     49  C   UNL     1      86.293  53.308  39.500  0.00  0.00    +0.001 C 
BRANCH  49  50
ATOM     50  C   UNL     1      87.321  52.776  40.468  0.00  0.00    -0.002 A 
ATOM     51  C   UNL     1      87.141  52.961  41.852  0.00  0.00    -0.055 A 
ATOM     52  C   UNL     1      88.068  52.449  42.764  0.00  0.00    -0.061 A 
ATOM     53  C   UNL     1      89.187  51.751  42.306  0.00  0.00    -0.058 A 
ATOM     54  C   UNL     1      89.379  51.560  40.933  0.00  0.00    -0.020 A 
ATOM     55  C   UNL     1      88.449  52.065  40.009  0.00  0.00    +0.120 A 
BRANCH  55  56
ATOM     56  O   UNL     1      88.643  51.866  38.643  0.00  0.00    -0.506 OA
ATOM     57  H   UNL     1      87.913  51.668  38.090  0.00  0.00    +0.000 HD
ENDBRANCH  55  56
ENDBRANCH  49  50
ENDBRANCH  43  49
ENDBRANCH  40  41
ENDBRANCH   6  40
TORSDOF 15
ENDMDL
MODEL 5
REMARK VINA RESULT:   -11.496      2.109      8.571
REMARK INTER + INTRA:         -20.396
REMARK INTER:                 -16.345
REMARK INTRA:                  -4.052
REMARK UNBOUND:                -0.500
REMARK  Name = 
REMARK  16 active torsions:
REMARK  status: ('A' for Active; 'I' for Inactive)
REMARK    1  A    between atoms: C_1  and  O_2
REMARK    2  A    between atoms: O_2  and  C_3
REMARK    3  A    between atoms: C_4  and  C_5
REMARK    4  A    between atoms: C_5  and  C_6
REMARK    5  A    between atoms: C_8  and  C_13
REMARK    6  A    between atoms: C_11  and  O_12
REMARK    7  A    between atoms: C_13  and  C_14
REMARK    8  A    between atoms: C_19  and  O_20
REMARK    9  A    between atoms: C_21  and  O_22
REMARK   10  A    between atoms: C_25  and  C_26
REMARK   11  A    between atoms: C_26  and  C_27
REMARK   12  A    between atoms: C_29  and  C_34
REMARK   13  A    between atoms: C_32  and  O_33
REMARK   14  A    between atoms: C_34  and  C_35
REMARK   15  A    between atoms: C_40  and  O_41
REMARK   16  A    between atoms: C_43  and  C_47
REMARK                            x       y       z     vdW  Elec       q    Type
REMARK                         _______ _______ _______ _____ _____    ______ ____
ROOT
ATOM      1  C   UNL     1      86.119  49.531  44.501  0.00  0.00    +0.134 A 
ATOM      2  C   UNL     1      85.068  48.596  44.368  0.00  0.00    +0.041 A 
ATOM      3  C   UNL     1      83.930  48.928  43.600  0.00  0.00    +0.138 A 
ATOM      4  C   UNL     1      83.860  50.182  42.942  0.00  0.00    +0.101 A 
ATOM      5  C   UNL     1      84.995  51.018  42.940  0.00  0.00    +0.142 A 
ATOM      6  C   UNL     1      86.114  50.714  43.737  0.00  0.00    +0.041 A 
ATOM      7  O   UNL     1      84.998  52.176  42.148  0.00  0.00    -0.483 OA
ATOM      8  C   UNL     1      84.043  52.388  41.111  0.00  0.00    +0.132 C 
ATOM      9  C   UNL     1      82.636  52.058  41.622  0.00  0.00    +0.052 C 
ATOM     10  C   UNL     1      82.622  50.715  42.299  0.00  0.00    +0.174 C 
ATOM     11  O   UNL     1      81.514  50.132  42.423  0.00  0.00    -0.292 OA
ENDROOT
BRANCH   8  12
ATOM     12  C   UNL     1      84.112  53.814  40.615  0.00  0.00    -0.007 A 
ATOM     13  C   UNL     1      83.984  54.882  41.519  0.00  0.00    -0.055 A 
ATOM     14  C   UNL     1      84.096  56.203  41.073  0.00  0.00    -0.061 A 
ATOM     15  C   UNL     1      84.345  56.467  39.723  0.00  0.00    -0.062 A 
ATOM     16  C   UNL     1      84.485  55.413  38.818  0.00  0.00    -0.061 A 
ATOM     17  C   UNL     1      84.377  54.090  39.261  0.00  0.00    -0.055 A 
ENDBRANCH   8  12
BRANCH   1  19
ATOM     18  C   UNL     1      87.228  49.833  46.680  0.00  0.00    +0.079 C 
ATOM     19  O   UNL     1      87.188  49.282  45.368  0.00  0.00    -0.494 OA
ENDBRANCH   1  19
BRANCH   3  20
ATOM     20  O   UNL     1      82.909  47.978  43.493  0.00  0.00    -0.506 OA
ATOM     21  H   UNL     1      82.054  48.241  43.215  0.00  0.00    +0.000 HD
ENDBRANCH   3  20
BRANCH   2  22
ATOM     22  C   UNL     1      85.201  47.194  44.937  0.00  0.00    +0.008 C 
BRANCH  22  23
ATOM     23  C   UNL     1      85.748  46.244  43.894  0.00  0.00    -0.001 A 
ATOM     24  C   UNL     1      87.067  46.396  43.438  0.00  0.00    -0.051 A 
ATOM     25  C   UNL     1      87.625  45.482  42.533  0.00  0.00    -0.042 A 
ATOM     26  C   UNL     1      86.836  44.427  42.048  0.00  0.00    -0.055 A 
ATOM     27  C   UNL     1      85.515  44.280  42.477  0.00  0.00    -0.020 A 
ATOM     28  C   UNL     1      84.969  45.175  43.406  0.00  0.00    +0.120 A 
BRANCH  28  29
ATOM     29  O   UNL     1      83.655  45.006  43.843  0.00  0.00    -0.506 OA
ATOM     30  H   UNL     1      83.008  45.652  43.643  0.00  0.00    +0.000 HD
ENDBRANCH  28  29
BRANCH  25  31
ATOM     31  C   UNL     1      89.075  45.604  42.145  0.00  0.00    +0.001 C 
BRANCH  31  32
ATOM     32  C   UNL     1      89.485  47.061  42.100  0.00  0.00    -0.002 A 
ATOM     33  C   UNL     1      88.700  47.959  41.349  0.00  0.00    -0.055 A 
ATOM     34  C   UNL     1      88.992  49.324  41.335  0.00  0.00    -0.061 A 
ATOM     35  C   UNL     1      90.067  49.816  42.076  0.00  0.00    -0.058 A 
ATOM     36  C   UNL     1      90.856  48.943  42.826  0.00  0.00    -0.020 A 
ATOM     37  C   UNL     1      90.580  47.569  42.847  0.00  0.00    +0.120 A 
BRANCH  37  38
ATOM     38  O   UNL     1      91.416  46.754  43.614  0.00  0.00    -0.506 OA
ATOM     39  H   UNL     1      91.069  45.990  44.032  0.00  0.00    +0.000 HD
ENDBRANCH  37  38
ENDBRANCH  31  32
ENDBRANCH  25  31
ENDBRANCH  22  23
ENDBRANCH   2  22
BRANCH   6  40
ATOM     40  C   UNL     1      87.319  51.637  43.746  0.00  0.00    +0.008 C 
BRANCH  40  41
ATOM     41  C   UNL     1      86.974  53.062  44.127  0.00  0.00    -0.001 A 
ATOM     42  C   UNL     1      86.711  53.372  45.476  0.00  0.00    -0.051 A 
ATOM     43  C   UNL     1      86.463  54.697  45.876  0.00  0.00    -0.042 A 
ATOM     44  C   UNL     1      86.483  55.718  44.915  0.00  0.00    -0.055 A 
ATOM     45  C   UNL     1      86.736  55.422  43.577  0.00  0.00    -0.020 A 
ATOM     46  C   UNL     1      86.999  54.105  43.176  0.00  0.00    +0.120 A 
BRANCH  46  47
ATOM     47  O   UNL     1      87.296  53.842  41.840  0.00  0.00    -0.506 OA
ATOM     48  H   UNL     1      87.386  54.548  41.232  0.00  0.00    +0.000 HD
ENDBRANCH  46  47
BRANCH  43  49
ATOM     49  C   UNL     1      86.259  55.034  47.333  0.00  0.00    +0.001 C 
BRANCH  49  50
ATOM     50  C   UNL     1      85.385  54.013  48.020  0.00  0.00    -0.002 A 
ATOM     51  C   UNL     1      85.963  52.845  48.555  0.00  0.00    -0.055 A 
ATOM     52  C   UNL     1      85.174  51.903  49.221  0.00  0.00    -0.061 A 
ATOM     53  C   UNL     1      83.800  52.113  49.358  0.00  0.00    -0.058 A 
ATOM     54  C   UNL     1      83.213  53.269  48.831  0.00  0.00    -0.020 A 
ATOM     55  C   UNL     1      83.999  54.225  48.166  0.00  0.00    +0.120 A 
BRANCH  55  56
ATOM     56  O   UNL     1      83.410  55.378  47.650  0.00  0.00    -0.506 OA
ATOM     57  H   UNL     1      83.336  56.145  48.182  0.00  0.00    +0.000 HD
ENDBRANCH  55  56
ENDBRANCH  49  50
ENDBRANCH  43  49
ENDBRANCH  40  41
ENDBRANCH   6  40
TORSDOF 15
ENDMDL
MODEL 6
REMARK VINA RESULT:   -11.465      1.829      6.716
REMARK INTER + INTRA:         -20.343
REMARK INTER:                 -19.244
REMARK INTRA:                  -1.099
REMARK UNBOUND:                -0.500
REMARK  Name = 
REMARK  16 active torsions:
REMARK  status: ('A' for Active; 'I' for Inactive)
REMARK    1  A    between atoms: C_1  and  O_2
REMARK    2  A    between atoms: O_2  and  C_3
REMARK    3  A    between atoms: C_4  and  C_5
REMARK    4  A    between atoms: C_5  and  C_6
REMARK    5  A    between atoms: C_8  and  C_13
REMARK    6  A    between atoms: C_11  and  O_12
REMARK    7  A    between atoms: C_13  and  C_14
REMARK    8  A    between atoms: C_19  and  O_20
REMARK    9  A    between atoms: C_21  and  O_22
REMARK   10  A    between atoms: C_25  and  C_26
REMARK   11  A    between atoms: C_26  and  C_27
REMARK   12  A    between atoms: C_29  and  C_34
REMARK   13  A    between atoms: C_32  and  O_33
REMARK   14  A    between atoms: C_34  and  C_35
REMARK   15  A    between atoms: C_40  and  O_41
REMARK   16  A    between atoms: C_43  and  C_47
REMARK                            x       y       z     vdW  Elec       q    Type
REMARK                         _______ _______ _______ _____ _____    ______ ____
ROOT
ATOM      1  C   UNL     1      86.857  49.630  43.634  0.00  0.00    +0.134 A 
ATOM      2  C   UNL     1      87.413  48.590  42.856  0.00  0.00    +0.041 A 
ATOM      3  C   UNL     1      86.609  47.492  42.480  0.00  0.00    +0.138 A 
ATOM      4  C   UNL     1      85.243  47.451  42.858  0.00  0.00    +0.101 A 
ATOM      5  C   UNL     1      84.669  48.582  43.473  0.00  0.00    +0.142 A 
ATOM      6  C   UNL     1      85.472  49.661  43.889  0.00  0.00    +0.041 A 
ATOM      7  O   UNL     1      83.284  48.623  43.690  0.00  0.00    -0.483 OA
ATOM      8  C   UNL     1      82.388  47.721  43.043  0.00  0.00    +0.132 C 
ATOM      9  C   UNL     1      82.932  46.292  43.133  0.00  0.00    +0.052 C 
ATOM     10  C   UNL     1      84.373  46.247  42.706  0.00  0.00    +0.174 C 
ATOM     11  O   UNL     1      84.847  45.135  42.354  0.00  0.00    -0.292 OA
ENDROOT
BRANCH   8  12
ATOM     12  C   UNL     1      81.012  47.812  43.661  0.00  0.00    -0.007 A 
ATOM     13  C   UNL     1      80.563  49.025  44.208  0.00  0.00    -0.055 A 
ATOM     14  C   UNL     1      79.272  49.128  44.739  0.00  0.00    -0.061 A 
ATOM     15  C   UNL     1      78.419  48.022  44.719  0.00  0.00    -0.062 A 
ATOM     16  C   UNL     1      78.851  46.814  44.167  0.00  0.00    -0.061 A 
ATOM     17  C   UNL     1      80.139  46.708  43.633  0.00  0.00    -0.055 A 
ENDBRANCH   8  12
BRANCH   1  19
ATOM     18  C   UNL     1      88.662  50.401  45.124  0.00  0.00    +0.079 C 
ATOM     19  O   UNL     1      87.667  50.654  44.136  0.00  0.00    -0.494 OA
ENDBRANCH   1  19
BRANCH   3  20
ATOM     20  O   UNL     1      87.193  46.480  41.712  0.00  0.00    -0.506 OA
ATOM     21  H   UNL     1      88.066  46.584  41.387  0.00  0.00    +0.000 HD
ENDBRANCH   3  20
BRANCH   2  22
ATOM     22  C   UNL     1      88.828  48.698  42.315  0.00  0.00    +0.008 C 
BRANCH  22  23
ATOM     23  C   UNL     1      89.044  50.038  41.647  0.00  0.00    -0.001 A 
ATOM     24  C   UNL     1      87.971  50.675  41.003  0.00  0.00    -0.051 A 
ATOM     25  C   UNL     1      88.122  51.953  40.447  0.00  0.00    -0.042 A 
ATOM     26  C   UNL     1      89.376  52.582  40.501  0.00  0.00    -0.055 A 
ATOM     27  C   UNL     1      90.456  51.948  41.119  0.00  0.00    -0.020 A 
ATOM     28  C   UNL     1      90.295  50.684  41.703  0.00  0.00    +0.120 A 
BRANCH  28  29
ATOM     29  O   UNL     1      91.376  50.070  42.335  0.00  0.00    -0.506 OA
ATOM     30  H   UNL     1      91.240  49.300  42.853  0.00  0.00    +0.000 HD
ENDBRANCH  28  29
BRANCH  25  31
ATOM     31  C   UNL     1      86.928  52.659  39.861  0.00  0.00    +0.001 C 
BRANCH  31  32
ATOM     32  C   UNL     1      86.046  53.203  40.965  0.00  0.00    -0.002 A 
ATOM     33  C   UNL     1      86.583  53.312  42.264  0.00  0.00    -0.055 A 
ATOM     34  C   UNL     1      85.836  53.876  43.301  0.00  0.00    -0.061 A 
ATOM     35  C   UNL     1      84.545  54.345  43.057  0.00  0.00    -0.058 A 
ATOM     36  C   UNL     1      83.997  54.246  41.777  0.00  0.00    -0.020 A 
ATOM     37  C   UNL     1      84.730  53.679  40.726  0.00  0.00    +0.120 A 
BRANCH  37  38
ATOM     38  O   UNL     1      84.115  53.605  39.475  0.00  0.00    -0.506 OA
ATOM     39  H   UNL     1      83.303  53.147  39.378  0.00  0.00    +0.000 HD
ENDBRANCH  37  38
ENDBRANCH  31  32
ENDBRANCH  25  31
ENDBRANCH  22  23
ENDBRANCH   2  22
BRANCH   6  40
ATOM     40  C   UNL     1      84.846  50.861  44.575  0.00  0.00    +0.008 C 
BRANCH  40  41
ATOM     41  C   UNL     1      85.405  51.112  45.960  0.00  0.00    -0.001 A 
ATOM     42  C   UNL     1      85.289  52.397  46.529  0.00  0.00    -0.051 A 
ATOM     43  C   UNL     1      85.727  52.645  47.842  0.00  0.00    -0.042 A 
ATOM     44  C   UNL     1      86.282  51.597  48.589  0.00  0.00    -0.055 A 
ATOM     45  C   UNL     1      86.408  50.325  48.034  0.00  0.00    -0.020 A 
ATOM     46  C   UNL     1      85.959  50.068  46.732  0.00  0.00    +0.120 A 
BRANCH  46  47
ATOM     47  O   UNL     1      86.052  48.777  46.217  0.00  0.00    -0.506 OA
ATOM     48  H   UNL     1      85.468  48.499  45.539  0.00  0.00    +0.000 HD
ENDBRANCH  46  47
BRANCH  43  49
ATOM     49  C   UNL     1      85.528  54.002  48.473  0.00  0.00    +0.001 C 
BRANCH  49  50
ATOM     50  C   UNL     1      85.345  55.077  47.430  0.00  0.00    -0.002 A 
ATOM     51  C   UNL     1      86.443  55.488  46.650  0.00  0.00    -0.055 A 
ATOM     52  C   UNL     1      86.286  56.460  45.658  0.00  0.00    -0.061 A 
ATOM     53  C   UNL     1      85.033  57.036  45.436  0.00  0.00    -0.058 A 
ATOM     54  C   UNL     1      83.934  56.637  46.204  0.00  0.00    -0.020 A 
ATOM     55  C   UNL     1      84.080  55.656  47.199  0.00  0.00    +0.120 A 
BRANCH  55  56
ATOM     56  O   UNL     1      82.980  55.258  47.956  0.00  0.00    -0.506 OA
ATOM     57  H   UNL     1      82.745  55.734  48.727  0.00  0.00    +0.000 HD
ENDBRANCH  55  56
ENDBRANCH  49  50
ENDBRANCH  43  49
ENDBRANCH  40  41
ENDBRANCH   6  40
TORSDOF 15
ENDMDL
MODEL 7
REMARK VINA RESULT:   -11.439      1.794      6.348
REMARK INTER + INTRA:         -20.298
REMARK INTER:                 -18.127
REMARK INTRA:                  -2.171
REMARK UNBOUND:                -0.500
REMARK  Name = 
REMARK  16 active torsions:
REMARK  status: ('A' for Active; 'I' for Inactive)
REMARK    1  A    between atoms: C_1  and  O_2
REMARK    2  A    between atoms: O_2  and  C_3
REMARK    3  A    between atoms: C_4  and  C_5
REMARK    4  A    between atoms: C_5  and  C_6
REMARK    5  A    between atoms: C_8  and  C_13
REMARK    6  A    between atoms: C_11  and  O_12
REMARK    7  A    between atoms: C_13  and  C_14
REMARK    8  A    between atoms: C_19  and  O_20
REMARK    9  A    between atoms: C_21  and  O_22
REMARK   10  A    between atoms: C_25  and  C_26
REMARK   11  A    between atoms: C_26  and  C_27
REMARK   12  A    between atoms: C_29  and  C_34
REMARK   13  A    between atoms: C_32  and  O_33
REMARK   14  A    between atoms: C_34  and  C_35
REMARK   15  A    between atoms: C_40  and  O_41
REMARK   16  A    between atoms: C_43  and  C_47
REMARK                            x       y       z     vdW  Elec       q    Type
REMARK                         _______ _______ _______ _____ _____    ______ ____
ROOT
ATOM      1  C   UNL     1      87.121  51.602  44.032  0.00  0.00    +0.134 A 
ATOM      2  C   UNL     1      87.864  52.247  43.017  0.00  0.00    +0.041 A 
ATOM      3  C   UNL     1      88.599  51.474  42.091  0.00  0.00    +0.138 A 
ATOM      4  C   UNL     1      88.564  50.058  42.163  0.00  0.00    +0.101 A 
ATOM      5  C   UNL     1      87.673  49.441  43.065  0.00  0.00    +0.142 A 
ATOM      6  C   UNL     1      86.971  50.202  44.018  0.00  0.00    +0.041 A 
ATOM      7  O   UNL     1      87.501  48.049  43.022  0.00  0.00    -0.483 OA
ATOM      8  C   UNL     1      87.940  47.265  41.915  0.00  0.00    +0.132 C 
ATOM      9  C   UNL     1      89.364  47.670  41.521  0.00  0.00    +0.052 C 
ATOM     10  C   UNL     1      89.470  49.163  41.383  0.00  0.00    +0.174 C 
ATOM     11  O   UNL     1      90.427  49.625  40.708  0.00  0.00    -0.292 OA
ENDROOT
BRANCH   8  12
ATOM     12  C   UNL     1      87.875  45.794  42.254  0.00  0.00    -0.007 A 
ATOM     13  C   UNL     1      88.984  45.152  42.829  0.00  0.00    -0.055 A 
ATOM     14  C   UNL     1      88.913  43.802  43.190  0.00  0.00    -0.061 A 
ATOM     15  C   UNL     1      87.731  43.086  42.986  0.00  0.00    -0.062 A 
ATOM     16  C   UNL     1      86.618  43.716  42.425  0.00  0.00    -0.061 A 
ATOM     17  C   UNL     1      86.684  45.066  42.066  0.00  0.00    -0.055 A 
ENDBRANCH   8  12
BRANCH   1  19
ATOM     18  C   UNL     1      87.052  52.424  46.353  0.00  0.00    +0.079 C 
ATOM     19  O   UNL     1      86.502  52.346  45.042  0.00  0.00    -0.494 OA
ENDBRANCH   1  19
BRANCH   3  20
ATOM     20  O   UNL     1      89.324  52.146  41.103  0.00  0.00    -0.506 OA
ATOM     21  H   UNL     1      89.043  52.111  40.210  0.00  0.00    +0.000 HD
ENDBRANCH   3  20
BRANCH   2  22
ATOM     22  C   UNL     1      87.783  53.752  42.834  0.00  0.00    +0.008 C 
BRANCH  22  23
ATOM     23  C   UNL     1      86.346  54.221  42.894  0.00  0.00    -0.001 A 
ATOM     24  C   UNL     1      85.886  54.910  44.028  0.00  0.00    -0.051 A 
ATOM     25  C   UNL     1      84.583  55.426  44.076  0.00  0.00    -0.042 A 
ATOM     26  C   UNL     1      83.719  55.213  42.991  0.00  0.00    -0.055 A 
ATOM     27  C   UNL     1      84.159  54.509  41.867  0.00  0.00    -0.020 A 
ATOM     28  C   UNL     1      85.472  54.022  41.807  0.00  0.00    +0.120 A 
BRANCH  28  29
ATOM     29  O   UNL     1      85.907  53.339  40.671  0.00  0.00    -0.506 OA
ATOM     30  H   UNL     1      85.993  52.407  40.690  0.00  0.00    +0.000 HD
ENDBRANCH  28  29
BRANCH  25  31
ATOM     31  C   UNL     1      84.151  56.255  45.257  0.00  0.00    +0.001 C 
BRANCH  31  32
ATOM     32  C   UNL     1      84.359  55.483  46.544  0.00  0.00    -0.002 A 
ATOM     33  C   UNL     1      83.407  54.510  46.907  0.00  0.00    -0.055 A 
ATOM     34  C   UNL     1      83.590  53.720  48.044  0.00  0.00    -0.061 A 
ATOM     35  C   UNL     1      84.730  53.885  48.832  0.00  0.00    -0.058 A 
ATOM     36  C   UNL     1      85.684  54.843  48.488  0.00  0.00    -0.020 A 
ATOM     37  C   UNL     1      85.513  55.648  47.354  0.00  0.00    +0.120 A 
BRANCH  37  38
ATOM     38  O   UNL     1      86.505  56.591  47.075  0.00  0.00    -0.506 OA
ATOM     39  H   UNL     1      87.397  56.412  47.299  0.00  0.00    +0.000 HD
ENDBRANCH  37  38
ENDBRANCH  31  32
ENDBRANCH  25  31
ENDBRANCH  22  23
ENDBRANCH   2  22
BRANCH   6  40
ATOM     40  C   UNL     1      86.036  49.522  45.001  0.00  0.00    +0.008 C 
BRANCH  40  41
ATOM     41  C   UNL     1      84.847  48.863  44.332  0.00  0.00    -0.001 A 
ATOM     42  C   UNL     1      83.834  49.668  43.774  0.00  0.00    -0.051 A 
ATOM     43  C   UNL     1      82.757  49.092  43.079  0.00  0.00    -0.042 A 
ATOM     44  C   UNL     1      82.697  47.698  42.941  0.00  0.00    -0.055 A 
ATOM     45  C   UNL     1      83.690  46.891  43.495  0.00  0.00    -0.020 A 
ATOM     46  C   UNL     1      84.774  47.461  44.175  0.00  0.00    +0.120 A 
BRANCH  46  47
ATOM     47  O   UNL     1      85.778  46.637  44.678  0.00  0.00    -0.506 OA
ATOM     48  H   UNL     1      86.316  46.932  45.386  0.00  0.00    +0.000 HD
ENDBRANCH  46  47
BRANCH  43  49
ATOM     49  C   UNL     1      81.717  49.962  42.415  0.00  0.00    +0.001 C 
BRANCH  49  50
ATOM     50  C   UNL     1      80.408  49.929  43.165  0.00  0.00    -0.002 A 
ATOM     51  C   UNL     1      80.059  48.788  43.913  0.00  0.00    -0.055 A 
ATOM     52  C   UNL     1      78.865  48.752  44.639  0.00  0.00    -0.061 A 
ATOM     53  C   UNL     1      78.003  49.850  44.622  0.00  0.00    -0.058 A 
ATOM     54  C   UNL     1      78.337  50.990  43.882  0.00  0.00    -0.020 A 
ATOM     55  C   UNL     1      79.538  51.039  43.156  0.00  0.00    +0.120 A 
BRANCH  55  56
ATOM     56  O   UNL     1      79.868  52.180  42.426  0.00  0.00    -0.506 OA
ATOM     57  H   UNL     1      80.621  52.178  41.869  0.00  0.00    +0.000 HD
ENDBRANCH  55  56
ENDBRANCH  49  50
ENDBRANCH  43  49
ENDBRANCH  40  41
ENDBRANCH   6  40
TORSDOF 15
ENDMDL
MODEL 8
REMARK VINA RESULT:   -11.226      1.750      6.708
REMARK INTER + INTRA:         -19.930
REMARK INTER:                 -19.430
REMARK INTRA:                  -0.500
REMARK UNBOUND:                -0.500
REMARK  Name = 
REMARK  16 active torsions:
REMARK  status: ('A' for Active; 'I' for Inactive)
REMARK    1  A    between atoms: C_1  and  O_2
REMARK    2  A    between atoms: O_2  and  C_3
REMARK    3  A    between atoms: C_4  and  C_5
REMARK    4  A    between atoms: C_5  and  C_6
REMARK    5  A    between atoms: C_8  and  C_13
REMARK    6  A    between atoms: C_11  and  O_12
REMARK    7  A    between atoms: C_13  and  C_14
REMARK    8  A    between atoms: C_19  and  O_20
REMARK    9  A    between atoms: C_21  and  O_22
REMARK   10  A    between atoms: C_25  and  C_26
REMARK   11  A    between atoms: C_26  and  C_27
REMARK   12  A    between atoms: C_29  and  C_34
REMARK   13  A    between atoms: C_32  and  O_33
REMARK   14  A    between atoms: C_34  and  C_35
REMARK   15  A    between atoms: C_40  and  O_41
REMARK   16  A    between atoms: C_43  and  C_47
REMARK                            x       y       z     vdW  Elec       q    Type
REMARK                         _______ _______ _______ _____ _____    ______ ____
ROOT
ATOM      1  C   UNL     1      84.728  51.813  43.556  0.00  0.00    +0.134 A 
ATOM      2  C   UNL     1      85.160  52.798  42.639  0.00  0.00    +0.041 A 
ATOM      3  C   UNL     1      86.281  52.545  41.819  0.00  0.00    +0.138 A 
ATOM      4  C   UNL     1      86.950  51.298  41.897  0.00  0.00    +0.101 A 
ATOM      5  C   UNL     1      86.391  50.270  42.684  0.00  0.00    +0.142 A 
ATOM      6  C   UNL     1      85.301  50.526  43.535  0.00  0.00    +0.041 A 
ATOM      7  O   UNL     1      86.943  48.981  42.630  0.00  0.00    -0.483 OA
ATOM      8  C   UNL     1      87.838  48.582  41.593  0.00  0.00    +0.132 C 
ATOM      9  C   UNL     1      88.904  49.662  41.380  0.00  0.00    +0.052 C 
ATOM     10  C   UNL     1      88.264  51.016  41.246  0.00  0.00    +0.174 C 
ATOM     11  O   UNL     1      88.932  51.929  40.693  0.00  0.00    -0.292 OA
ENDROOT
BRANCH   8  12
ATOM     12  C   UNL     1      88.478  47.256  41.933  0.00  0.00    -0.007 A 
ATOM     13  C   UNL     1      89.868  47.170  42.117  0.00  0.00    -0.055 A 
ATOM     14  C   UNL     1      90.461  45.955  42.479  0.00  0.00    -0.061 A 
ATOM     15  C   UNL     1      89.668  44.820  42.667  0.00  0.00    -0.062 A 
ATOM     16  C   UNL     1      88.284  44.896  42.498  0.00  0.00    -0.061 A 
ATOM     17  C   UNL     1      87.687  46.110  42.139  0.00  0.00    -0.055 A 
ENDBRANCH   8  12
BRANCH   1  19
ATOM     18  C   UNL     1      83.987  52.288  45.858  0.00  0.00    +0.079 C 
ATOM     19  O   UNL     1      83.711  52.093  44.475  0.00  0.00    -0.494 OA
ENDBRANCH   1  19
BRANCH   3  20
ATOM     20  O   UNL     1      86.681  53.543  40.926  0.00  0.00    -0.506 OA
ATOM     21  H   UNL     1      86.971  53.313  40.065  0.00  0.00    +0.000 HD
ENDBRANCH   3  20
BRANCH   2  22
ATOM     22  C   UNL     1      84.359  54.072  42.436  0.00  0.00    +0.008 C 
BRANCH  22  23
ATOM     23  C   UNL     1      84.924  55.198  43.274  0.00  0.00    -0.001 A 
ATOM     24  C   UNL     1      85.454  54.920  44.545  0.00  0.00    -0.051 A 
ATOM     25  C   UNL     1      86.057  55.929  45.308  0.00  0.00    -0.042 A 
ATOM     26  C   UNL     1      86.091  57.241  44.809  0.00  0.00    -0.055 A 
ATOM     27  C   UNL     1      85.546  57.533  43.557  0.00  0.00    -0.020 A 
ATOM     28  C   UNL     1      84.973  56.517  42.781  0.00  0.00    +0.120 A 
BRANCH  28  29
ATOM     29  O   UNL     1      84.450  56.817  41.523  0.00  0.00    -0.506 OA
ATOM     30  H   UNL     1      84.018  57.635  41.378  0.00  0.00    +0.000 HD
ENDBRANCH  28  29
BRANCH  25  31
ATOM     31  C   UNL     1      86.717  55.583  46.618  0.00  0.00    +0.001 C 
BRANCH  31  32
ATOM     32  C   UNL     1      85.754  54.820  47.503  0.00  0.00    -0.002 A 
ATOM     33  C   UNL     1      86.154  53.568  48.011  0.00  0.00    -0.055 A 
ATOM     34  C   UNL     1      85.333  52.858  48.891  0.00  0.00    -0.061 A 
ATOM     35  C   UNL     1      84.104  53.391  49.283  0.00  0.00    -0.058 A 
ATOM     36  C   UNL     1      83.692  54.630  48.791  0.00  0.00    -0.020 A 
ATOM     37  C   UNL     1      84.500  55.353  47.903  0.00  0.00    +0.120 A 
BRANCH  37  38
ATOM     38  O   UNL     1      84.019  56.581  47.446  0.00  0.00    -0.506 OA
ATOM     39  H   UNL     1      83.182  56.892  47.732  0.00  0.00    +0.000 HD
ENDBRANCH  37  38
ENDBRANCH  31  32
ENDBRANCH  25  31
ENDBRANCH  22  23
ENDBRANCH   2  22
BRANCH   6  40
ATOM     40  C   UNL     1      84.725  49.418  44.397  0.00  0.00    +0.008 C 
BRANCH  40  41
ATOM     41  C   UNL     1      83.362  48.950  43.931  0.00  0.00    -0.001 A 
ATOM     42  C   UNL     1      82.345  49.899  43.705  0.00  0.00    -0.051 A 
ATOM     43  C   UNL     1      81.093  49.508  43.200  0.00  0.00    -0.042 A 
ATOM     44  C   UNL     1      80.860  48.155  42.917  0.00  0.00    -0.055 A 
ATOM     45  C   UNL     1      81.856  47.206  43.143  0.00  0.00    -0.020 A 
ATOM     46  C   UNL     1      83.111  47.593  43.632  0.00  0.00    +0.120 A 
BRANCH  46  47
ATOM     47  O   UNL     1      84.105  46.632  43.804  0.00  0.00    -0.506 OA
ATOM     48  H   UNL     1      84.466  46.478  44.655  0.00  0.00    +0.000 HD
ENDBRANCH  46  47
BRANCH  43  49
ATOM     49  C   UNL     1      80.036  50.539  42.886  0.00  0.00    +0.001 C 
BRANCH  49  50
ATOM     50  C   UNL     1      78.804  50.345  43.736  0.00  0.00    -0.002 A 
ATOM     51  C   UNL     1      78.695  49.209  44.560  0.00  0.00    -0.055 A 
ATOM     52  C   UNL     1      77.576  49.028  45.378  0.00  0.00    -0.061 A 
ATOM     53  C   UNL     1      76.550  49.976  45.378  0.00  0.00    -0.058 A 
ATOM     54  C   UNL     1      76.645  51.110  44.563  0.00  0.00    -0.020 A 
ATOM     55  C   UNL     1      77.770  51.303  43.744  0.00  0.00    +0.120 A 
BRANCH  55  56
ATOM     56  O   UNL     1      77.862  52.438  42.939  0.00  0.00    -0.506 OA
ATOM     57  H   UNL     1      77.111  52.983  42.811  0.00  0.00    +0.000 HD
ENDBRANCH  55  56
ENDBRANCH  49  50
ENDBRANCH  43  49
ENDBRANCH  40  41
ENDBRANCH   6  40
TORSDOF 15
ENDMDL
MODEL 9
REMARK VINA RESULT:   -11.179      2.271      9.199
REMARK INTER + INTRA:         -19.848
REMARK INTER:                 -16.404
REMARK INTRA:                  -3.444
REMARK UNBOUND:                -0.500
REMARK  Name = 
REMARK  16 active torsions:
REMARK  status: ('A' for Active; 'I' for Inactive)
REMARK    1  A    between atoms: C_1  and  O_2
REMARK    2  A    between atoms: O_2  and  C_3
REMARK    3  A    between atoms: C_4  and  C_5
REMARK    4  A    between atoms: C_5  and  C_6
REMARK    5  A    between atoms: C_8  and  C_13
REMARK    6  A    between atoms: C_11  and  O_12
REMARK    7  A    between atoms: C_13  and  C_14
REMARK    8  A    between atoms: C_19  and  O_20
REMARK    9  A    between atoms: C_21  and  O_22
REMARK   10  A    between atoms: C_25  and  C_26
REMARK   11  A    between atoms: C_26  and  C_27
REMARK   12  A    between atoms: C_29  and  C_34
REMARK   13  A    between atoms: C_32  and  O_33
REMARK   14  A    between atoms: C_34  and  C_35
REMARK   15  A    between atoms: C_40  and  O_41
REMARK   16  A    between atoms: C_43  and  C_47
REMARK                            x       y       z     vdW  Elec       q    Type
REMARK                         _______ _______ _______ _____ _____    ______ ____
ROOT
ATOM      1  C   UNL     1      84.007  51.393  42.730  0.00  0.00    +0.134 A 
ATOM      2  C   UNL     1      84.266  50.276  43.555  0.00  0.00    +0.041 A 
ATOM      3  C   UNL     1      85.553  49.695  43.561  0.00  0.00    +0.138 A 
ATOM      4  C   UNL     1      86.586  50.251  42.764  0.00  0.00    +0.101 A 
ATOM      5  C   UNL     1      86.352  51.469  42.095  0.00  0.00    +0.142 A 
ATOM      6  C   UNL     1      85.062  52.031  42.050  0.00  0.00    +0.041 A 
ATOM      7  O   UNL     1      87.416  52.119  41.450  0.00  0.00    -0.483 OA
ATOM      8  C   UNL     1      88.777  51.773  41.699  0.00  0.00    +0.132 C 
ATOM      9  C   UNL     1      88.943  50.251  41.668  0.00  0.00    +0.052 C 
ATOM     10  C   UNL     1      87.903  49.588  42.528  0.00  0.00    +0.174 C 
ATOM     11  O   UNL     1      88.126  48.413  42.919  0.00  0.00    -0.292 OA
ENDROOT
BRANCH   8  12
ATOM     12  C   UNL     1      89.681  52.432  40.682  0.00  0.00    -0.007 A 
ATOM     13  C   UNL     1      90.063  51.738  39.523  0.00  0.00    -0.055 A 
ATOM     14  C   UNL     1      90.860  52.359  38.555  0.00  0.00    -0.061 A 
ATOM     15  C   UNL     1      91.273  53.682  38.735  0.00  0.00    -0.062 A 
ATOM     16  C   UNL     1      90.889  54.386  39.878  0.00  0.00    -0.061 A 
ATOM     17  C   UNL     1      90.090  53.769  40.846  0.00  0.00    -0.055 A 
ENDBRANCH   8  12
BRANCH   1  19
ATOM     18  C   UNL     1      81.788  51.354  41.659  0.00  0.00    +0.079 C 
ATOM     19  O   UNL     1      82.708  51.896  42.601  0.00  0.00    -0.494 OA
ENDBRANCH   1  19
BRANCH   3  20
ATOM     20  O   UNL     1      85.773  48.589  44.388  0.00  0.00    -0.506 OA
ATOM     21  H   UNL     1      85.867  48.708  45.313  0.00  0.00    +0.000 HD
ENDBRANCH   3  20
BRANCH   2  22
ATOM     22  C   UNL     1      83.215  49.770  44.528  0.00  0.00    +0.008 C 
BRANCH  22  23
ATOM     23  C   UNL     1      82.525  48.541  43.977  0.00  0.00    -0.001 A 
ATOM     24  C   UNL     1      83.220  47.682  43.113  0.00  0.00    -0.051 A 
ATOM     25  C   UNL     1      82.633  46.495  42.653  0.00  0.00    -0.042 A 
ATOM     26  C   UNL     1      81.317  46.188  43.031  0.00  0.00    -0.055 A 
ATOM     27  C   UNL     1      80.607  47.048  43.873  0.00  0.00    -0.020 A 
ATOM     28  C   UNL     1      81.207  48.217  44.358  0.00  0.00    +0.120 A 
BRANCH  28  29
ATOM     29  O   UNL     1      80.495  49.058  45.214  0.00  0.00    -0.506 OA
ATOM     30  H   UNL     1      80.928  49.777  45.631  0.00  0.00    +0.000 HD
ENDBRANCH  28  29
BRANCH  25  31
ATOM     31  C   UNL     1      83.440  45.536  41.816  0.00  0.00    +0.001 C 
BRANCH  31  32
ATOM     32  C   UNL     1      84.652  45.059  42.588  0.00  0.00    -0.002 A 
ATOM     33  C   UNL     1      84.521  43.923  43.412  0.00  0.00    -0.055 A 
ATOM     34  C   UNL     1      85.625  43.399  44.088  0.00  0.00    -0.061 A 
ATOM     35  C   UNL     1      86.879  43.996  43.946  0.00  0.00    -0.058 A 
ATOM     36  C   UNL     1      87.028  45.121  43.134  0.00  0.00    -0.020 A 
ATOM     37  C   UNL     1      85.929  45.663  42.453  0.00  0.00    +0.120 A 
BRANCH  37  38
ATOM     38  O   UNL     1      86.151  46.795  41.665  0.00  0.00    -0.506 OA
ATOM     39  H   UNL     1      85.918  47.643  41.988  0.00  0.00    +0.000 HD
ENDBRANCH  37  38
ENDBRANCH  31  32
ENDBRANCH  25  31
ENDBRANCH  22  23
ENDBRANCH   2  22
BRANCH   6  40
ATOM     40  C   UNL     1      84.819  53.329  41.302  0.00  0.00    +0.008 C 
BRANCH  40  41
ATOM     41  C   UNL     1      84.887  54.551  42.195  0.00  0.00    -0.001 A 
ATOM     42  C   UNL     1      85.583  54.475  43.418  0.00  0.00    -0.051 A 
ATOM     43  C   UNL     1      85.731  55.610  44.235  0.00  0.00    -0.042 A 
ATOM     44  C   UNL     1      85.180  56.830  43.819  0.00  0.00    -0.055 A 
ATOM     45  C   UNL     1      84.483  56.915  42.614  0.00  0.00    -0.020 A 
ATOM     46  C   UNL     1      84.346  55.791  41.790  0.00  0.00    +0.120 A 
BRANCH  46  47
ATOM     47  O   UNL     1      83.686  55.913  40.569  0.00  0.00    -0.506 OA
ATOM     48  H   UNL     1      82.751  55.875  40.535  0.00  0.00    +0.000 HD
ENDBRANCH  46  47
BRANCH  43  49
ATOM     49  C   UNL     1      86.545  55.541  45.504  0.00  0.00    +0.001 C 
BRANCH  49  50
ATOM     50  C   UNL     1      85.770  54.888  46.623  0.00  0.00    -0.002 A 
ATOM     51  C   UNL     1      84.818  55.635  47.342  0.00  0.00    -0.055 A 
ATOM     52  C   UNL     1      84.069  55.038  48.361  0.00  0.00    -0.061 A 
ATOM     53  C   UNL     1      84.266  53.693  48.677  0.00  0.00    -0.058 A 
ATOM     54  C   UNL     1      85.210  52.939  47.970  0.00  0.00    -0.020 A 
ATOM     55  C   UNL     1      85.962  53.528  46.940  0.00  0.00    +0.120 A 
BRANCH  55  56
ATOM     56  O   UNL     1      86.895  52.770  46.235  0.00  0.00    -0.506 OA
ATOM     57  H   UNL     1      87.726  52.574  46.620  0.00  0.00    +0.000 HD
ENDBRANCH  55  56
ENDBRANCH  49  50
ENDBRANCH  43  49
ENDBRANCH  40  41
ENDBRANCH   6  40
TORSDOF 15
ENDMDL
