@<TRIPOS>MOLECULE
=
 57 63 0 0 0
SMALL
GASTEIGER

@<TRIPOS>ATOM
      1  C         85.9690   51.6020   43.4550 C.ar    1  UNL1        0.1340
      2  C         85.5080   52.8080   42.8820 C.ar    1  UNL1        0.0410
      3  C         84.1600   52.9180   42.4730 C.ar    1  UNL1        0.1380
      4  C         83.2710   51.8310   42.6650 C.ar    1  UNL1        0.1010
      5  C         83.7070   50.7110   43.4020 C.ar    1  UNL1        0.1420
      6  C         85.0580   50.5770   43.7750 C.ar    1  UNL1        0.0410
      7  O         82.7870   49.7110   43.7500 O.3     1  UNL1       -0.4830
      8  C         81.3780   49.9160   43.6690 C.3     1  UNL1        0.1320
      9  C         81.0220   50.5690   42.3290 C.3     1  UNL1        0.0520
     10  C         81.9010   51.7620   42.0730 C.2     1  UNL1        0.1740
     11  O         81.5020   52.6180   41.2410 O.2     1  UNL1       -0.2920
     12  C         80.6450   48.6050   43.8380 C.2     1  UNL1       -0.0070
     13  C         79.2940   48.5970   44.2220 C.2     1  UNL1       -0.0550
     14  C         78.5970   47.3880   44.3340 C.2     1  UNL1       -0.0610
     15  C         79.2430   46.1810   44.0530 C.2     1  UNL1       -0.0620
     16  C         80.5830   46.1790   43.6590 C.2     1  UNL1       -0.0610
     17  C         81.2820   47.3850   43.5440 C.2     1  UNL1       -0.0550
     18  C         87.8250   51.4690   45.0690 C.3     1  UNL1        0.0790
     19  O         87.3270   51.4210   43.7360 O.3     1  UNL1       -0.4940
     20  O         83.7400   54.1260   41.9090 O.3     1  UNL1       -0.5060
     21  H         83.0090   54.1400   41.3230 H       1  UNL1        0.0000
     22  C         86.4090   54.0290   42.8150 C.3     1  UNL1        0.0080
     23  C         86.0150   55.0430   43.8670 C.2     1  UNL1       -0.0010
     24  C         86.2750   54.7760   45.2210 C.2     1  UNL1       -0.0510
     25  C         85.9940   55.7310   46.2080 C.2     1  UNL1       -0.0420
     26  C         85.4080   56.9510   45.8380 C.2     1  UNL1       -0.0550
     27  C         85.1240   57.2180   44.4960 C.2     1  UNL1       -0.0200
     28  C         85.4350   56.2750   43.5070 C.2     1  UNL1        0.1200
     29  O         85.1660   56.5610   42.1680 O.2     1  UNL1       -0.5060
     30  H         84.2850   56.5300   41.8500 H       1  UNL1        0.0000
     31  C         86.3840   55.4640   47.6390 C.3     1  UNL1        0.0010
     32  C         85.6380   54.2560   48.1690 C.2     1  UNL1       -0.0020
     33  C         86.3400   53.0440   48.3200 C.2     1  UNL1       -0.0550
     34  C         85.7180   51.9220   48.8730 C.2     1  UNL1       -0.0610
     35  C         84.3890   51.9950   49.2890 C.2     1  UNL1       -0.0580
     36  C         83.6780   53.1880   49.1480 C.2     1  UNL1       -0.0200
     37  C         84.2840   54.3210   48.5910 C.2     1  UNL1        0.1200
     38  O         83.5100   55.4770   48.4730 O.2     1  UNL1       -0.5060
     39  H         83.2370   55.9380   49.2430 H       1  UNL1        0.0000
     40  C         85.5210   49.3530   44.5440 C.3     1  UNL1        0.0080
     41  C         85.8440   48.1750   43.6490 C.2     1  UNL1       -0.0010
     42  C         86.9820   48.2280   42.8210 C.2     1  UNL1       -0.0510
     43  C         87.3540   47.1230   42.0350 C.2     1  UNL1       -0.0420
     44  C         86.5800   45.9560   42.0840 C.2     1  UNL1       -0.0550
     45  C         85.4480   45.8940   42.8950 C.2     1  UNL1       -0.0200
     46  C         85.0820   46.9870   43.6920 C.2     1  UNL1        0.1200
     47  O         83.9730   46.8830   44.5300 O.2     1  UNL1       -0.5060
     48  H         84.0310   46.3920   45.3250 H       1  UNL1        0.0000
     49  C         88.6180   47.1580   41.2100 C.3     1  UNL1        0.0010
     50  C         89.7590   47.7870   41.9720 C.2     1  UNL1       -0.0020
     51  C         90.5060   47.0110   42.8790 C.2     1  UNL1       -0.0550
     52  C         91.5850   47.5690   43.5700 C.2     1  UNL1       -0.0610
     53  C         91.9280   48.9070   43.3690 C.2     1  UNL1       -0.0580
     54  C         91.1930   49.6900   42.4710 C.2     1  UNL1       -0.0200
     55  C         90.1120   49.1360   41.7660 C.2     1  UNL1        0.1200
     56  O         89.3880   49.9200   40.8680 O.2     1  UNL1       -0.5060
     57  H         88.4520   49.9070   40.8850 H       1  UNL1        0.0000
@<TRIPOS>BOND
     1    56    57    1
     2    56    55    1
     3    49    50    1
     4    49    43    1
     5    11    10    2
     6    21    20    1
     7    55    50    2
     8    55    54    1
     9    30    29    1
    10    20     3    1
    11    50    51    1
    12    43    44    2
    13    43    42    1
    14    10     9    1
    15    10     4    1
    16    44    45    1
    17    29    28    1
    18     9     8    1
    19    54    53    2
    20     3     4   ar
    21     3     2   ar
    22     4     5   ar
    23    22     2    1
    24    22    23    1
    25    42    41    2
    26    51    52    2
    27     2     1   ar
    28    45    46    2
    29    53    52    1
    30     5     7    1
    31     5     6   ar
    32     1    19    1
    33     1     6   ar
    34    28    23    2
    35    28    27    1
    36    17    16    1
    37    17    12    2
    38    41    46    1
    39    41    40    1
    40    16    15    2
    41     8     7    1
    42     8    12    1
    43    46    47    1
    44    19    18    1
    45     6    40    1
    46    12    13    1
    47    23    24    1
    48    15    14    1
    49    13    14    2
    50    27    26    2
    51    47    48    1
    52    24    25    2
    53    26    25    1
    54    25    31    1
    55    31    32    1
    56    32    33    2
    57    32    37    1
    58    33    34    1
    59    38    37    1
    60    38    39    1
    61    37    36    2
    62    34    35    2
    63    36    35    1
