MODEL 1
REMARK VINA RESULT:    -8.414      0.000      0.000
REMARK INTER + INTRA:         -14.394
REMARK INTER:                 -13.203
REMARK INTRA:                  -1.192
REMARK UNBOUND:                -1.799
REMARK  Name = 
REMARK  11 active torsions:
REMARK  status: ('A' for Active; 'I' for Inactive)
REMARK    1  A    between atoms: C_1  and  O_2
REMARK    2  A    between atoms: O_2  and  C_3
REMARK    3  A    between atoms: C_5  and  O_6
REMARK    4  A    between atoms: C_7  and  C_21
REMARK    5  A    between atoms: C_8  and  O_20
REMARK    6  A    between atoms: C_9  and  C_10
REMARK    7  A    between atoms: C_10  and  C_12
REMARK    8  A    between atoms: C_12  and  C_13
REMARK    9  A    between atoms: C_13  and  C_14
REMARK   10  A    between atoms: C_21  and  C_22
REMARK   11  A    between atoms: C_27  and  O_28
REMARK                            x       y       z     vdW  Elec       q    Type
REMARK                         _______ _______ _______ _____ _____    ______ ____
ROOT
ATOM      1  C   UNL     1      84.716  54.753  41.601  0.00  0.00    +0.138 A 
ATOM      2  C   UNL     1      84.366  56.022  42.091  0.00  0.00    +0.023 A 
ATOM      3  C   UNL     1      84.843  56.470  43.325  0.00  0.00    +0.127 A 
ATOM      4  C   UNL     1      85.672  55.644  44.108  0.00  0.00    +0.041 A 
ATOM      5  C   UNL     1      85.998  54.349  43.645  0.00  0.00    +0.138 A 
ATOM      6  C   UNL     1      85.535  53.913  42.380  0.00  0.00    +0.101 A 
ENDROOT
BRANCH   1   8
ATOM      7  C   UNL     1      84.394  55.045  39.131  0.00  0.00    +0.079 C 
ATOM      8  O   UNL     1      84.281  54.304  40.341  0.00  0.00    -0.494 OA
ENDBRANCH   1   8
BRANCH   3   9
ATOM      9  O   UNL     1      84.486  57.739  43.781  0.00  0.00    -0.506 OA
ATOM     10  H   UNL     1      84.020  57.835  44.589  0.00  0.00    +0.000 HD
ENDBRANCH   3   9
BRANCH   6  11
ATOM     11  C   UNL     1      85.936  52.595  41.847  0.00  0.00    +0.171 C 
ATOM     12  O   UNL     1      85.309  51.564  42.211  0.00  0.00    -0.292 OA
BRANCH  11  13
ATOM     13  C   UNL     1      87.079  52.465  40.879  0.00  0.00    +0.015 C 
BRANCH  13  14
ATOM     14  C   UNL     1      88.420  52.613  41.604  0.00  0.00    -0.021 C 
BRANCH  14  15
ATOM     15  C   UNL     1      88.953  51.265  42.014  0.00  0.00    -0.047 A 
ATOM     16  C   UNL     1      89.905  50.606  41.220  0.00  0.00    -0.059 A 
ATOM     17  C   UNL     1      90.423  49.370  41.621  0.00  0.00    -0.062 A 
ATOM     18  C   UNL     1      90.002  48.792  42.823  0.00  0.00    -0.062 A 
ATOM     19  C   UNL     1      89.064  49.447  43.625  0.00  0.00    -0.062 A 
ATOM     20  C   UNL     1      88.542  50.682  43.224  0.00  0.00    -0.059 A 
ENDBRANCH  14  15
ENDBRANCH  13  14
ENDBRANCH  11  13
ENDBRANCH   6  11
BRANCH   5  21
ATOM     21  O   UNL     1      86.754  53.504  44.464  0.00  0.00    -0.506 OA
ATOM     22  H   UNL     1      87.620  53.752  44.720  0.00  0.00    +0.000 HD
ENDBRANCH   5  21
BRANCH   4  23
ATOM     23  C   UNL     1      86.216  56.155  45.427  0.00  0.00    +0.008 C 
BRANCH  23  24
ATOM     24  C   UNL     1      85.518  55.493  46.593  0.00  0.00    -0.001 A 
ATOM     25  C   UNL     1      86.146  54.435  47.276  0.00  0.00    -0.055 A 
ATOM     26  C   UNL     1      85.499  53.788  48.332  0.00  0.00    -0.061 A 
ATOM     27  C   UNL     1      84.221  54.190  48.720  0.00  0.00    -0.058 A 
ATOM     28  C   UNL     1      83.588  55.242  48.057  0.00  0.00    -0.020 A 
ATOM     29  C   UNL     1      84.228  55.899  46.996  0.00  0.00    +0.120 A 
BRANCH  29  30
ATOM     30  O   UNL     1      83.584  56.952  46.346  0.00  0.00    -0.506 OA
ATOM     31  H   UNL     1      84.049  57.467  45.716  0.00  0.00    +0.000 HD
ENDBRANCH  29  30
ENDBRANCH  23  24
ENDBRANCH   4  23
TORSDOF 10
ENDMDL
MODEL 2
REMARK VINA RESULT:    -8.413      2.184      3.576
REMARK INTER + INTRA:         -14.393
REMARK INTER:                 -12.688
REMARK INTRA:                  -1.705
REMARK UNBOUND:                -1.799
REMARK  Name = 
REMARK  11 active torsions:
REMARK  status: ('A' for Active; 'I' for Inactive)
REMARK    1  A    between atoms: C_1  and  O_2
REMARK    2  A    between atoms: O_2  and  C_3
REMARK    3  A    between atoms: C_5  and  O_6
REMARK    4  A    between atoms: C_7  and  C_21
REMARK    5  A    between atoms: C_8  and  O_20
REMARK    6  A    between atoms: C_9  and  C_10
REMARK    7  A    between atoms: C_10  and  C_12
REMARK    8  A    between atoms: C_12  and  C_13
REMARK    9  A    between atoms: C_13  and  C_14
REMARK   10  A    between atoms: C_21  and  C_22
REMARK   11  A    between atoms: C_27  and  O_28
REMARK                            x       y       z     vdW  Elec       q    Type
REMARK                         _______ _______ _______ _____ _____    ______ ____
ROOT
ATOM      1  C   UNL     1      85.050  55.105  41.920  0.00  0.00    +0.138 A 
ATOM      2  C   UNL     1      84.446  56.225  42.514  0.00  0.00    +0.023 A 
ATOM      3  C   UNL     1      84.748  56.589  43.829  0.00  0.00    +0.127 A 
ATOM      4  C   UNL     1      85.657  55.824  44.586  0.00  0.00    +0.041 A 
ATOM      5  C   UNL     1      86.239  54.672  44.012  0.00  0.00    +0.138 A 
ATOM      6  C   UNL     1      85.951  54.326  42.671  0.00  0.00    +0.101 A 
ENDROOT
BRANCH   1   8
ATOM      7  C   UNL     1      83.599  55.075  39.873  0.00  0.00    +0.079 C 
ATOM      8  O   UNL     1      84.790  54.750  40.583  0.00  0.00    -0.494 OA
ENDBRANCH   1   8
BRANCH   3   9
ATOM      9  O   UNL     1      84.139  57.713  44.389  0.00  0.00    -0.506 OA
ATOM     10  H   UNL     1      84.549  58.553  44.317  0.00  0.00    +0.000 HD
ENDBRANCH   3   9
BRANCH   6  11
ATOM     11  C   UNL     1      86.616  53.172  42.033  0.00  0.00    +0.171 C 
ATOM     12  O   UNL     1      87.830  53.260  41.705  0.00  0.00    -0.292 OA
BRANCH  11  13
ATOM     13  C   UNL     1      85.868  51.895  41.766  0.00  0.00    +0.015 C 
BRANCH  13  14
ATOM     14  C   UNL     1      85.265  51.342  43.061  0.00  0.00    -0.021 C 
BRANCH  14  15
ATOM     15  C   UNL     1      83.789  51.092  42.894  0.00  0.00    -0.047 A 
ATOM     16  C   UNL     1      83.017  51.924  42.068  0.00  0.00    -0.059 A 
ATOM     17  C   UNL     1      81.653  51.668  41.888  0.00  0.00    -0.062 A 
ATOM     18  C   UNL     1      81.056  50.575  42.522  0.00  0.00    -0.062 A 
ATOM     19  C   UNL     1      81.820  49.735  43.337  0.00  0.00    -0.062 A 
ATOM     20  C   UNL     1      83.184  49.990  43.521  0.00  0.00    -0.059 A 
ENDBRANCH  14  15
ENDBRANCH  13  14
ENDBRANCH  11  13
ENDBRANCH   6  11
BRANCH   5  21
ATOM     21  O   UNL     1      87.077  53.871  44.797  0.00  0.00    -0.506 OA
ATOM     22  H   UNL     1      87.828  53.463  44.415  0.00  0.00    +0.000 HD
ENDBRANCH   5  21
BRANCH   4  23
ATOM     23  C   UNL     1      86.008  56.251  45.997  0.00  0.00    +0.008 C 
BRANCH  23  24
ATOM     24  C   UNL     1      85.296  55.390  47.016  0.00  0.00    -0.001 A 
ATOM     25  C   UNL     1      85.968  54.302  47.604  0.00  0.00    -0.055 A 
ATOM     26  C   UNL     1      85.313  53.475  48.520  0.00  0.00    -0.061 A 
ATOM     27  C   UNL     1      83.983  53.724  48.860  0.00  0.00    -0.058 A 
ATOM     28  C   UNL     1      83.306  54.803  48.291  0.00  0.00    -0.020 A 
ATOM     29  C   UNL     1      83.953  55.640  47.370  0.00  0.00    +0.120 A 
BRANCH  29  30
ATOM     30  O   UNL     1      83.265  56.718  46.812  0.00  0.00    -0.506 OA
ATOM     31  H   UNL     1      83.415  56.957  45.919  0.00  0.00    +0.000 HD
ENDBRANCH  29  30
ENDBRANCH  23  24
ENDBRANCH   4  23
TORSDOF 10
ENDMDL
MODEL 3
REMARK VINA RESULT:    -8.354      2.497      5.777
REMARK INTER + INTRA:         -14.305
REMARK INTER:                 -11.977
REMARK INTRA:                  -2.328
REMARK UNBOUND:                -1.799
REMARK  Name = 
REMARK  11 active torsions:
REMARK  status: ('A' for Active; 'I' for Inactive)
REMARK    1  A    between atoms: C_1  and  O_2
REMARK    2  A    between atoms: O_2  and  C_3
REMARK    3  A    between atoms: C_5  and  O_6
REMARK    4  A    between atoms: C_7  and  C_21
REMARK    5  A    between atoms: C_8  and  O_20
REMARK    6  A    between atoms: C_9  and  C_10
REMARK    7  A    between atoms: C_10  and  C_12
REMARK    8  A    between atoms: C_12  and  C_13
REMARK    9  A    between atoms: C_13  and  C_14
REMARK   10  A    between atoms: C_21  and  C_22
REMARK   11  A    between atoms: C_27  and  O_28
REMARK                            x       y       z     vdW  Elec       q    Type
REMARK                         _______ _______ _______ _____ _____    ______ ____
ROOT
ATOM      1  C   UNL     1      83.006  53.517  41.981  0.00  0.00    +0.138 A 
ATOM      2  C   UNL     1      82.758  52.169  42.286  0.00  0.00    +0.023 A 
ATOM      3  C   UNL     1      83.810  51.289  42.554  0.00  0.00    +0.127 A 
ATOM      4  C   UNL     1      85.142  51.741  42.507  0.00  0.00    +0.041 A 
ATOM      5  C   UNL     1      85.407  53.085  42.161  0.00  0.00    +0.138 A 
ATOM      6  C   UNL     1      84.335  53.978  41.920  0.00  0.00    +0.101 A 
ENDROOT
BRANCH   1   8
ATOM      7  C   UNL     1      80.755  54.120  41.054  0.00  0.00    +0.079 C 
ATOM      8  O   UNL     1      81.957  54.426  41.752  0.00  0.00    -0.494 OA
ENDBRANCH   1   8
BRANCH   3   9
ATOM      9  O   UNL     1      83.530  49.957  42.863  0.00  0.00    -0.506 OA
ATOM     10  H   UNL     1      83.190  49.733  43.707  0.00  0.00    +0.000 HD
ENDBRANCH   3   9
BRANCH   6  11
ATOM     11  C   UNL     1      84.594  55.405  41.639  0.00  0.00    +0.171 C 
ATOM     12  O   UNL     1      84.895  55.761  40.468  0.00  0.00    -0.292 OA
BRANCH  11  13
ATOM     13  C   UNL     1      84.507  56.438  42.728  0.00  0.00    +0.015 C 
BRANCH  13  14
ATOM     14  C   UNL     1      85.779  56.433  43.581  0.00  0.00    -0.021 C 
BRANCH  14  15
ATOM     15  C   UNL     1      85.465  56.041  45.001  0.00  0.00    -0.047 A 
ATOM     16  C   UNL     1      86.463  55.498  45.826  0.00  0.00    -0.059 A 
ATOM     17  C   UNL     1      86.175  55.167  47.154  0.00  0.00    -0.062 A 
ATOM     18  C   UNL     1      84.894  55.387  47.669  0.00  0.00    -0.062 A 
ATOM     19  C   UNL     1      83.899  55.937  46.858  0.00  0.00    -0.062 A 
ATOM     20  C   UNL     1      84.182  56.267  45.528  0.00  0.00    -0.059 A 
ENDBRANCH  14  15
ENDBRANCH  13  14
ENDBRANCH  11  13
ENDBRANCH   6  11
BRANCH   5  21
ATOM     21  O   UNL     1      86.735  53.506  42.036  0.00  0.00    -0.506 OA
ATOM     22  H   UNL     1      87.346  52.991  41.548  0.00  0.00    +0.000 HD
ENDBRANCH   5  21
BRANCH   4  23
ATOM     23  C   UNL     1      86.274  50.788  42.838  0.00  0.00    +0.008 C 
BRANCH  23  24
ATOM     24  C   UNL     1      86.589  50.816  44.316  0.00  0.00    -0.001 A 
ATOM     25  C   UNL     1      87.303  51.900  44.859  0.00  0.00    -0.055 A 
ATOM     26  C   UNL     1      87.634  51.923  46.216  0.00  0.00    -0.061 A 
ATOM     27  C   UNL     1      87.255  50.869  47.047  0.00  0.00    -0.058 A 
ATOM     28  C   UNL     1      86.540  49.790  46.525  0.00  0.00    -0.020 A 
ATOM     29  C   UNL     1      86.202  49.756  45.163  0.00  0.00    +0.120 A 
BRANCH  29  30
ATOM     30  O   UNL     1      85.484  48.673  44.657  0.00  0.00    -0.506 OA
ATOM     31  H   UNL     1      85.880  47.825  44.619  0.00  0.00    +0.000 HD
ENDBRANCH  29  30
ENDBRANCH  23  24
ENDBRANCH   4  23
TORSDOF 10
ENDMDL
MODEL 4
REMARK VINA RESULT:    -8.321      3.657      5.076
REMARK INTER + INTRA:         -14.256
REMARK INTER:                 -12.344
REMARK INTRA:                  -1.912
REMARK UNBOUND:                -1.799
REMARK  Name = 
REMARK  11 active torsions:
REMARK  status: ('A' for Active; 'I' for Inactive)
REMARK    1  A    between atoms: C_1  and  O_2
REMARK    2  A    between atoms: O_2  and  C_3
REMARK    3  A    between atoms: C_5  and  O_6
REMARK    4  A    between atoms: C_7  and  C_21
REMARK    5  A    between atoms: C_8  and  O_20
REMARK    6  A    between atoms: C_9  and  C_10
REMARK    7  A    between atoms: C_10  and  C_12
REMARK    8  A    between atoms: C_12  and  C_13
REMARK    9  A    between atoms: C_13  and  C_14
REMARK   10  A    between atoms: C_21  and  C_22
REMARK   11  A    between atoms: C_27  and  O_28
REMARK                            x       y       z     vdW  Elec       q    Type
REMARK                         _______ _______ _______ _____ _____    ______ ____
ROOT
ATOM      1  C   UNL     1      84.945  53.116  40.929  0.00  0.00    +0.138 A 
ATOM      2  C   UNL     1      83.597  52.792  41.155  0.00  0.00    +0.023 A 
ATOM      3  C   UNL     1      83.229  51.943  42.202  0.00  0.00    +0.127 A 
ATOM      4  C   UNL     1      84.212  51.384  43.041  0.00  0.00    +0.041 A 
ATOM      5  C   UNL     1      85.575  51.670  42.799  0.00  0.00    +0.138 A 
ATOM      6  C   UNL     1      85.938  52.554  41.755  0.00  0.00    +0.101 A 
ENDROOT
BRANCH   1   8
ATOM      7  C   UNL     1      84.443  54.875  39.213  0.00  0.00    +0.079 C 
ATOM      8  O   UNL     1      85.329  54.004  39.908  0.00  0.00    -0.494 OA
ENDBRANCH   1   8
BRANCH   3   9
ATOM      9  O   UNL     1      81.881  51.648  42.406  0.00  0.00    -0.506 OA
ATOM     10  H   UNL     1      81.592  50.756  42.417  0.00  0.00    +0.000 HD
ENDBRANCH   3   9
BRANCH   6  11
ATOM     11  C   UNL     1      87.351  52.926  41.543  0.00  0.00    +0.171 C 
ATOM     12  O   UNL     1      87.816  53.948  42.117  0.00  0.00    -0.292 OA
BRANCH  11  13
ATOM     13  C   UNL     1      88.244  52.107  40.653  0.00  0.00    +0.015 C 
BRANCH  13  14
ATOM     14  C   UNL     1      89.502  51.664  41.408  0.00  0.00    -0.021 C 
BRANCH  14  15
ATOM     15  C   UNL     1      89.491  50.175  41.629  0.00  0.00    -0.047 A 
ATOM     16  C   UNL     1      88.346  49.420  41.328  0.00  0.00    -0.059 A 
ATOM     17  C   UNL     1      88.351  48.032  41.502  0.00  0.00    -0.062 A 
ATOM     18  C   UNL     1      89.503  47.389  41.965  0.00  0.00    -0.062 A 
ATOM     19  C   UNL     1      90.651  48.131  42.255  0.00  0.00    -0.062 A 
ATOM     20  C   UNL     1      90.647  49.520  42.084  0.00  0.00    -0.059 A 
ENDBRANCH  14  15
ENDBRANCH  13  14
ENDBRANCH  11  13
ENDBRANCH   6  11
BRANCH   5  21
ATOM     21  O   UNL     1      86.550  51.046  43.584  0.00  0.00    -0.506 OA
ATOM     22  H   UNL     1      86.945  51.509  44.296  0.00  0.00    +0.000 HD
ENDBRANCH   5  21
BRANCH   4  23
ATOM     23  C   UNL     1      83.799  50.496  44.198  0.00  0.00    +0.008 C 
BRANCH  23  24
ATOM     24  C   UNL     1      83.700  49.052  43.763  0.00  0.00    -0.001 A 
ATOM     25  C   UNL     1      84.872  48.293  43.586  0.00  0.00    -0.055 A 
ATOM     26  C   UNL     1      84.800  46.967  43.149  0.00  0.00    -0.061 A 
ATOM     27  C   UNL     1      83.560  46.385  42.886  0.00  0.00    -0.058 A 
ATOM     28  C   UNL     1      82.388  47.122  43.064  0.00  0.00    -0.020 A 
ATOM     29  C   UNL     1      82.449  48.454  43.502  0.00  0.00    +0.120 A 
BRANCH  29  30
ATOM     30  O   UNL     1      81.270  49.177  43.680  0.00  0.00    -0.506 OA
ATOM     31  H   UNL     1      80.664  48.928  44.350  0.00  0.00    +0.000 HD
ENDBRANCH  29  30
ENDBRANCH  23  24
ENDBRANCH   4  23
TORSDOF 10
ENDMDL
MODEL 5
REMARK VINA RESULT:    -8.286      4.066      6.431
REMARK INTER + INTRA:         -14.203
REMARK INTER:                 -12.246
REMARK INTRA:                  -1.957
REMARK UNBOUND:                -1.799
REMARK  Name = 
REMARK  11 active torsions:
REMARK  status: ('A' for Active; 'I' for Inactive)
REMARK    1  A    between atoms: C_1  and  O_2
REMARK    2  A    between atoms: O_2  and  C_3
REMARK    3  A    between atoms: C_5  and  O_6
REMARK    4  A    between atoms: C_7  and  C_21
REMARK    5  A    between atoms: C_8  and  O_20
REMARK    6  A    between atoms: C_9  and  C_10
REMARK    7  A    between atoms: C_10  and  C_12
REMARK    8  A    between atoms: C_12  and  C_13
REMARK    9  A    between atoms: C_13  and  C_14
REMARK   10  A    between atoms: C_21  and  C_22
REMARK   11  A    between atoms: C_27  and  O_28
REMARK                            x       y       z     vdW  Elec       q    Type
REMARK                         _______ _______ _______ _____ _____    ______ ____
ROOT
ATOM      1  C   UNL     1      82.872  49.907  42.997  0.00  0.00    +0.138 A 
ATOM      2  C   UNL     1      83.334  51.232  42.954  0.00  0.00    +0.023 A 
ATOM      3  C   UNL     1      84.578  51.576  43.488  0.00  0.00    +0.127 A 
ATOM      4  C   UNL     1      85.385  50.595  44.094  0.00  0.00    +0.041 A 
ATOM      5  C   UNL     1      84.915  49.265  44.180  0.00  0.00    +0.138 A 
ATOM      6  C   UNL     1      83.665  48.919  43.611  0.00  0.00    +0.101 A 
ENDROOT
BRANCH   1   8
ATOM      7  C   UNL     1      80.364  49.883  42.949  0.00  0.00    +0.079 C 
ATOM      8  O   UNL     1      81.642  49.536  42.425  0.00  0.00    -0.494 OA
ENDBRANCH   1   8
BRANCH   3   9
ATOM      9  O   UNL     1      85.013  52.900  43.421  0.00  0.00    -0.506 OA
ATOM     10  H   UNL     1      85.880  53.124  43.700  0.00  0.00    +0.000 HD
ENDBRANCH   3   9
BRANCH   6  11
ATOM     11  C   UNL     1      83.198  47.518  43.621  0.00  0.00    +0.171 C 
ATOM     12  O   UNL     1      82.247  47.187  44.380  0.00  0.00    -0.292 OA
BRANCH  11  13
ATOM     13  C   UNL     1      83.840  46.480  42.743  0.00  0.00    +0.015 C 
BRANCH  13  14
ATOM     14  C   UNL     1      84.439  45.351  43.588  0.00  0.00    -0.021 C 
BRANCH  14  15
ATOM     15  C   UNL     1      85.877  45.112  43.211  0.00  0.00    -0.047 A 
ATOM     16  C   UNL     1      86.592  46.080  42.488  0.00  0.00    -0.059 A 
ATOM     17  C   UNL     1      87.938  45.869  42.169  0.00  0.00    -0.062 A 
ATOM     18  C   UNL     1      88.579  44.697  42.580  0.00  0.00    -0.062 A 
ATOM     19  C   UNL     1      87.878  43.734  43.309  0.00  0.00    -0.062 A 
ATOM     20  C   UNL     1      86.531  43.941  43.628  0.00  0.00    -0.059 A 
ENDBRANCH  14  15
ENDBRANCH  13  14
ENDBRANCH  11  13
ENDBRANCH   6  11
BRANCH   5  21
ATOM     21  O   UNL     1      85.685  48.313  44.857  0.00  0.00    -0.506 OA
ATOM     22  H   UNL     1      85.937  47.522  44.425  0.00  0.00    +0.000 HD
ENDBRANCH   5  21
BRANCH   4  23
ATOM     23  C   UNL     1      86.751  50.970  44.634  0.00  0.00    +0.008 C 
BRANCH  23  24
ATOM     24  C   UNL     1      87.831  50.699  43.612  0.00  0.00    -0.001 A 
ATOM     25  C   UNL     1      88.462  49.442  43.578  0.00  0.00    -0.055 A 
ATOM     26  C   UNL     1      89.487  49.186  42.663  0.00  0.00    -0.061 A 
ATOM     27  C   UNL     1      89.892  50.180  41.772  0.00  0.00    -0.058 A 
ATOM     28  C   UNL     1      89.270  51.430  41.788  0.00  0.00    -0.020 A 
ATOM     29  C   UNL     1      88.240  51.697  42.702  0.00  0.00    +0.120 A 
BRANCH  29  30
ATOM     30  O   UNL     1      87.625  52.949  42.704  0.00  0.00    -0.506 OA
ATOM     31  H   UNL     1      87.794  53.554  42.009  0.00  0.00    +0.000 HD
ENDBRANCH  29  30
ENDBRANCH  23  24
ENDBRANCH   4  23
TORSDOF 10
ENDMDL
MODEL 6
REMARK VINA RESULT:    -8.268      2.655      5.493
REMARK INTER + INTRA:         -14.176
REMARK INTER:                 -11.879
REMARK INTRA:                  -2.297
REMARK UNBOUND:                -1.799
REMARK  Name = 
REMARK  11 active torsions:
REMARK  status: ('A' for Active; 'I' for Inactive)
REMARK    1  A    between atoms: C_1  and  O_2
REMARK    2  A    between atoms: O_2  and  C_3
REMARK    3  A    between atoms: C_5  and  O_6
REMARK    4  A    between atoms: C_7  and  C_21
REMARK    5  A    between atoms: C_8  and  O_20
REMARK    6  A    between atoms: C_9  and  C_10
REMARK    7  A    between atoms: C_10  and  C_12
REMARK    8  A    between atoms: C_12  and  C_13
REMARK    9  A    between atoms: C_13  and  C_14
REMARK   10  A    between atoms: C_21  and  C_22
REMARK   11  A    between atoms: C_27  and  O_28
REMARK                            x       y       z     vdW  Elec       q    Type
REMARK                         _______ _______ _______ _____ _____    ______ ____
ROOT
ATOM      1  C   UNL     1      83.830  49.874  43.454  0.00  0.00    +0.138 A 
ATOM      2  C   UNL     1      82.957  50.787  42.838  0.00  0.00    +0.023 A 
ATOM      3  C   UNL     1      83.450  51.910  42.169  0.00  0.00    +0.127 A 
ATOM      4  C   UNL     1      84.836  52.152  42.114  0.00  0.00    +0.041 A 
ATOM      5  C   UNL     1      85.721  51.263  42.764  0.00  0.00    +0.138 A 
ATOM      6  C   UNL     1      85.217  50.112  43.415  0.00  0.00    +0.101 A 
ENDROOT
BRANCH   1   8
ATOM      7  C   UNL     1      82.424  47.798  43.527  0.00  0.00    +0.079 C 
ATOM      8  O   UNL     1      83.353  48.716  44.094  0.00  0.00    -0.494 OA
ENDBRANCH   1   8
BRANCH   3   9
ATOM      9  O   UNL     1      82.558  52.793  41.559  0.00  0.00    -0.506 OA
ATOM     10  H   UNL     1      81.723  52.961  41.950  0.00  0.00    +0.000 HD
ENDBRANCH   3   9
BRANCH   6  11
ATOM     11  C   UNL     1      86.137  49.132  44.027  0.00  0.00    +0.171 C 
ATOM     12  O   UNL     1      86.719  48.287  43.294  0.00  0.00    -0.292 OA
BRANCH  11  13
ATOM     13  C   UNL     1      86.388  49.124  45.509  0.00  0.00    +0.015 C 
BRANCH  13  14
ATOM     14  C   UNL     1      87.441  50.172  45.885  0.00  0.00    -0.021 C 
BRANCH  14  15
ATOM     15  C   UNL     1      86.833  51.252  46.740  0.00  0.00    -0.047 A 
ATOM     16  C   UNL     1      86.487  52.492  46.179  0.00  0.00    -0.059 A 
ATOM     17  C   UNL     1      85.890  53.480  46.969  0.00  0.00    -0.062 A 
ATOM     18  C   UNL     1      85.625  53.232  48.319  0.00  0.00    -0.062 A 
ATOM     19  C   UNL     1      85.955  51.997  48.882  0.00  0.00    -0.062 A 
ATOM     20  C   UNL     1      86.555  51.007  48.095  0.00  0.00    -0.059 A 
ENDBRANCH  14  15
ENDBRANCH  13  14
ENDBRANCH  11  13
ENDBRANCH   6  11
BRANCH   5  21
ATOM     21  O   UNL     1      87.090  51.554  42.775  0.00  0.00    -0.506 OA
ATOM     22  H   UNL     1      87.644  51.175  43.428  0.00  0.00    +0.000 HD
ENDBRANCH   5  21
BRANCH   4  23
ATOM     23  C   UNL     1      85.362  53.351  41.351  0.00  0.00    +0.008 C 
BRANCH  23  24
ATOM     24  C   UNL     1      85.434  54.570  42.242  0.00  0.00    -0.001 A 
ATOM     25  C   UNL     1      86.507  54.717  43.140  0.00  0.00    -0.055 A 
ATOM     26  C   UNL     1      86.570  55.820  43.996  0.00  0.00    -0.061 A 
ATOM     27  C   UNL     1      85.566  56.787  43.965  0.00  0.00    -0.058 A 
ATOM     28  C   UNL     1      84.499  56.659  43.074  0.00  0.00    -0.020 A 
ATOM     29  C   UNL     1      84.426  55.557  42.210  0.00  0.00    +0.120 A 
BRANCH  29  30
ATOM     30  O   UNL     1      83.355  55.444  41.323  0.00  0.00    -0.506 OA
ATOM     31  H   UNL     1      83.452  54.948  40.533  0.00  0.00    +0.000 HD
ENDBRANCH  29  30
ENDBRANCH  23  24
ENDBRANCH   4  23
TORSDOF 10
ENDMDL
MODEL 7
REMARK VINA RESULT:    -8.155      1.855      2.836
REMARK INTER + INTRA:         -14.007
REMARK INTER:                 -12.274
REMARK INTRA:                  -1.733
REMARK UNBOUND:                -1.799
REMARK  Name = 
REMARK  11 active torsions:
REMARK  status: ('A' for Active; 'I' for Inactive)
REMARK    1  A    between atoms: C_1  and  O_2
REMARK    2  A    between atoms: O_2  and  C_3
REMARK    3  A    between atoms: C_5  and  O_6
REMARK    4  A    between atoms: C_7  and  C_21
REMARK    5  A    between atoms: C_8  and  O_20
REMARK    6  A    between atoms: C_9  and  C_10
REMARK    7  A    between atoms: C_10  and  C_12
REMARK    8  A    between atoms: C_12  and  C_13
REMARK    9  A    between atoms: C_13  and  C_14
REMARK   10  A    between atoms: C_21  and  C_22
REMARK   11  A    between atoms: C_27  and  O_28
REMARK                            x       y       z     vdW  Elec       q    Type
REMARK                         _______ _______ _______ _____ _____    ______ ____
ROOT
ATOM      1  C   UNL     1      84.617  52.227  43.002  0.00  0.00    +0.138 A 
ATOM      2  C   UNL     1      84.245  52.282  44.356  0.00  0.00    +0.023 A 
ATOM      3  C   UNL     1      84.867  53.173  45.234  0.00  0.00    +0.127 A 
ATOM      4  C   UNL     1      85.892  54.023  44.776  0.00  0.00    +0.041 A 
ATOM      5  C   UNL     1      86.303  53.948  43.426  0.00  0.00    +0.138 A 
ATOM      6  C   UNL     1      85.649  53.063  42.535  0.00  0.00    +0.101 A 
ENDROOT
BRANCH   1   8
ATOM      7  C   UNL     1      82.576  51.382  41.814  0.00  0.00    +0.079 C 
ATOM      8  O   UNL     1      83.972  51.367  42.096  0.00  0.00    -0.494 OA
ENDBRANCH   1   8
BRANCH   3   9
ATOM      9  O   UNL     1      84.469  53.211  46.571  0.00  0.00    -0.506 OA
ATOM     10  H   UNL     1      84.013  53.960  46.904  0.00  0.00    +0.000 HD
ENDBRANCH   3   9
BRANCH   6  11
ATOM     11  C   UNL     1      86.012  53.034  41.104  0.00  0.00    +0.171 C 
ATOM     12  O   UNL     1      85.505  53.880  40.318  0.00  0.00    -0.292 OA
BRANCH  11  13
ATOM     13  C   UNL     1      86.975  52.011  40.569  0.00  0.00    +0.015 C 
BRANCH  13  14
ATOM     14  C   UNL     1      88.391  52.276  41.089  0.00  0.00    -0.021 C 
BRANCH  14  15
ATOM     15  C   UNL     1      88.923  51.071  41.819  0.00  0.00    -0.047 A 
ATOM     16  C   UNL     1      89.990  50.331  41.285  0.00  0.00    -0.059 A 
ATOM     17  C   UNL     1      90.504  49.232  41.982  0.00  0.00    -0.062 A 
ATOM     18  C   UNL     1      89.963  48.874  43.221  0.00  0.00    -0.062 A 
ATOM     19  C   UNL     1      88.909  49.612  43.764  0.00  0.00    -0.062 A 
ATOM     20  C   UNL     1      88.391  50.710  43.068  0.00  0.00    -0.059 A 
ENDBRANCH  14  15
ENDBRANCH  13  14
ENDBRANCH  11  13
ENDBRANCH   6  11
BRANCH   5  21
ATOM     21  O   UNL     1      87.377  54.736  42.997  0.00  0.00    -0.506 OA
ATOM     22  H   UNL     1      87.238  55.633  42.768  0.00  0.00    +0.000 HD
ENDBRANCH   5  21
BRANCH   4  23
ATOM     23  C   UNL     1      86.532  55.014  45.728  0.00  0.00    +0.008 C 
BRANCH  23  24
ATOM     24  C   UNL     1      85.813  56.343  45.689  0.00  0.00    -0.001 A 
ATOM     25  C   UNL     1      86.139  57.287  44.697  0.00  0.00    -0.055 A 
ATOM     26  C   UNL     1      85.510  58.534  44.670  0.00  0.00    -0.061 A 
ATOM     27  C   UNL     1      84.548  58.852  45.628  0.00  0.00    -0.058 A 
ATOM     28  C   UNL     1      84.208  57.924  46.614  0.00  0.00    -0.020 A 
ATOM     29  C   UNL     1      84.833  56.669  46.651  0.00  0.00    +0.120 A 
BRANCH  29  30
ATOM     30  O   UNL     1      84.480  55.750  47.639  0.00  0.00    -0.506 OA
ATOM     31  H   UNL     1      85.015  54.995  47.788  0.00  0.00    +0.000 HD
ENDBRANCH  29  30
ENDBRANCH  23  24
ENDBRANCH   4  23
TORSDOF 10
ENDMDL
MODEL 8
REMARK VINA RESULT:    -8.052      1.790      6.720
REMARK INTER + INTRA:         -13.853
REMARK INTER:                 -12.044
REMARK INTRA:                  -1.809
REMARK UNBOUND:                -1.799
REMARK  Name = 
REMARK  11 active torsions:
REMARK  status: ('A' for Active; 'I' for Inactive)
REMARK    1  A    between atoms: C_1  and  O_2
REMARK    2  A    between atoms: O_2  and  C_3
REMARK    3  A    between atoms: C_5  and  O_6
REMARK    4  A    between atoms: C_7  and  C_21
REMARK    5  A    between atoms: C_8  and  O_20
REMARK    6  A    between atoms: C_9  and  C_10
REMARK    7  A    between atoms: C_10  and  C_12
REMARK    8  A    between atoms: C_12  and  C_13
REMARK    9  A    between atoms: C_13  and  C_14
REMARK   10  A    between atoms: C_21  and  C_22
REMARK   11  A    between atoms: C_27  and  O_28
REMARK                            x       y       z     vdW  Elec       q    Type
REMARK                         _______ _______ _______ _____ _____    ______ ____
ROOT
ATOM      1  C   UNL     1      83.871  52.935  42.299  0.00  0.00    +0.138 A 
ATOM      2  C   UNL     1      84.150  51.636  42.755  0.00  0.00    +0.023 A 
ATOM      3  C   UNL     1      85.404  51.316  43.282  0.00  0.00    +0.127 A 
ATOM      4  C   UNL     1      86.415  52.292  43.351  0.00  0.00    +0.041 A 
ATOM      5  C   UNL     1      86.160  53.592  42.858  0.00  0.00    +0.138 A 
ATOM      6  C   UNL     1      84.879  53.917  42.351  0.00  0.00    +0.101 A 
ENDROOT
BRANCH   1   8
ATOM      7  C   UNL     1      81.481  52.409  41.750  0.00  0.00    +0.079 C 
ATOM      8  O   UNL     1      82.601  53.286  41.806  0.00  0.00    -0.494 OA
ENDBRANCH   1   8
BRANCH   3   9
ATOM      9  O   UNL     1      85.648  50.019  43.736  0.00  0.00    -0.506 OA
ATOM     10  H   UNL     1      86.157  49.428  43.217  0.00  0.00    +0.000 HD
ENDBRANCH   3   9
BRANCH   6  11
ATOM     11  C   UNL     1      84.573  55.293  41.909  0.00  0.00    +0.171 C 
ATOM     12  O   UNL     1      84.882  55.652  40.741  0.00  0.00    -0.292 OA
BRANCH  11  13
ATOM     13  C   UNL     1      83.900  56.272  42.831  0.00  0.00    +0.015 C 
BRANCH  13  14
ATOM     14  C   UNL     1      84.939  57.059  43.636  0.00  0.00    -0.021 C 
BRANCH  14  15
ATOM     15  C   UNL     1      85.043  56.519  45.038  0.00  0.00    -0.047 A 
ATOM     16  C   UNL     1      83.899  56.413  45.845  0.00  0.00    -0.059 A 
ATOM     17  C   UNL     1      83.994  55.879  47.135  0.00  0.00    -0.062 A 
ATOM     18  C   UNL     1      85.228  55.439  47.621  0.00  0.00    -0.062 A 
ATOM     19  C   UNL     1      86.369  55.530  46.820  0.00  0.00    -0.062 A 
ATOM     20  C   UNL     1      86.278  56.066  45.531  0.00  0.00    -0.059 A 
ENDBRANCH  14  15
ENDBRANCH  13  14
ENDBRANCH  11  13
ENDBRANCH   6  11
BRANCH   5  21
ATOM     21  O   UNL     1      87.195  54.533  42.853  0.00  0.00    -0.506 OA
ATOM     22  H   UNL     1      88.083  54.253  42.750  0.00  0.00    +0.000 HD
ENDBRANCH   5  21
BRANCH   4  23
ATOM     23  C   UNL     1      87.759  51.945  43.962  0.00  0.00    +0.008 C 
BRANCH  23  24
ATOM     24  C   UNL     1      88.581  51.101  43.015  0.00  0.00    -0.001 A 
ATOM     25  C   UNL     1      88.993  51.635  41.779  0.00  0.00    -0.055 A 
ATOM     26  C   UNL     1      89.722  50.856  40.877  0.00  0.00    -0.061 A 
ATOM     27  C   UNL     1      90.052  49.540  41.198  0.00  0.00    -0.058 A 
ATOM     28  C   UNL     1      89.658  48.998  42.423  0.00  0.00    -0.020 A 
ATOM     29  C   UNL     1      88.925  49.770  43.336  0.00  0.00    +0.120 A 
BRANCH  29  30
ATOM     30  O   UNL     1      88.541  49.217  44.557  0.00  0.00    -0.506 OA
ATOM     31  H   UNL     1      87.632  49.138  44.770  0.00  0.00    +0.000 HD
ENDBRANCH  29  30
ENDBRANCH  23  24
ENDBRANCH   4  23
TORSDOF 10
ENDMDL
MODEL 9
REMARK VINA RESULT:    -7.934      2.115      5.776
REMARK INTER + INTRA:         -13.676
REMARK INTER:                 -11.876
REMARK INTRA:                  -1.799
REMARK UNBOUND:                -1.799
REMARK  Name = 
REMARK  11 active torsions:
REMARK  status: ('A' for Active; 'I' for Inactive)
REMARK    1  A    between atoms: C_1  and  O_2
REMARK    2  A    between atoms: O_2  and  C_3
REMARK    3  A    between atoms: C_5  and  O_6
REMARK    4  A    between atoms: C_7  and  C_21
REMARK    5  A    between atoms: C_8  and  O_20
REMARK    6  A    between atoms: C_9  and  C_10
REMARK    7  A    between atoms: C_10  and  C_12
REMARK    8  A    between atoms: C_12  and  C_13
REMARK    9  A    between atoms: C_13  and  C_14
REMARK   10  A    between atoms: C_21  and  C_22
REMARK   11  A    between atoms: C_27  and  O_28
REMARK                            x       y       z     vdW  Elec       q    Type
REMARK                         _______ _______ _______ _____ _____    ______ ____
ROOT
ATOM      1  C   UNL     1      88.521  50.180  42.535  0.00  0.00    +0.138 A 
ATOM      2  C   UNL     1      88.925  51.226  41.690  0.00  0.00    +0.023 A 
ATOM      3  C   UNL     1      88.019  52.208  41.280  0.00  0.00    +0.127 A 
ATOM      4  C   UNL     1      86.676  52.154  41.701  0.00  0.00    +0.041 A 
ATOM      5  C   UNL     1      86.248  51.084  42.519  0.00  0.00    +0.138 A 
ATOM      6  C   UNL     1      87.178  50.109  42.953  0.00  0.00    +0.101 A 
ENDROOT
BRANCH   1   8
ATOM      7  C   UNL     1      90.757  49.045  42.503  0.00  0.00    +0.079 C 
ATOM      8  O   UNL     1      89.430  49.209  42.992  0.00  0.00    -0.494 OA
ENDBRANCH   1   8
BRANCH   3   9
ATOM      9  O   UNL     1      88.453  53.240  40.447  0.00  0.00    -0.506 OA
ATOM     10  H   UNL     1      87.828  53.773  39.996  0.00  0.00    +0.000 HD
ENDBRANCH   3   9
BRANCH   6  11
ATOM     11  C   UNL     1      86.763  49.033  43.875  0.00  0.00    +0.171 C 
ATOM     12  O   UNL     1      86.684  47.849  43.450  0.00  0.00    -0.292 OA
BRANCH  11  13
ATOM     13  C   UNL     1      86.430  49.327  45.312  0.00  0.00    +0.015 C 
BRANCH  13  14
ATOM     14  C   UNL     1      87.463  50.282  45.921  0.00  0.00    -0.021 C 
BRANCH  14  15
ATOM     15  C   UNL     1      86.789  51.294  46.809  0.00  0.00    -0.047 A 
ATOM     16  C   UNL     1      86.581  51.017  48.170  0.00  0.00    -0.059 A 
ATOM     17  C   UNL     1      85.986  51.973  49.000  0.00  0.00    -0.062 A 
ATOM     18  C   UNL     1      85.607  53.214  48.480  0.00  0.00    -0.062 A 
ATOM     19  C   UNL     1      85.821  53.501  47.129  0.00  0.00    -0.062 A 
ATOM     20  C   UNL     1      86.414  52.546  46.296  0.00  0.00    -0.059 A 
ENDBRANCH  14  15
ENDBRANCH  13  14
ENDBRANCH  11  13
ENDBRANCH   6  11
BRANCH   5  21
ATOM     21  O   UNL     1      84.896  50.992  42.865  0.00  0.00    -0.506 OA
ATOM     22  H   UNL     1      84.505  51.648  43.408  0.00  0.00    +0.000 HD
ENDBRANCH   5  21
BRANCH   4  23
ATOM     23  C   UNL     1      85.711  53.246  41.284  0.00  0.00    +0.008 C 
BRANCH  23  24
ATOM     24  C   UNL     1      85.663  54.349  42.317  0.00  0.00    -0.001 A 
ATOM     25  C   UNL     1      86.757  54.547  43.180  0.00  0.00    -0.055 A 
ATOM     26  C   UNL     1      86.714  55.538  44.164  0.00  0.00    -0.061 A 
ATOM     27  C   UNL     1      85.583  56.343  44.297  0.00  0.00    -0.058 A 
ATOM     28  C   UNL     1      84.493  56.163  43.444  0.00  0.00    -0.020 A 
ATOM     29  C   UNL     1      84.525  55.171  42.452  0.00  0.00    +0.120 A 
BRANCH  29  30
ATOM     30  O   UNL     1      83.430  55.006  41.604  0.00  0.00    -0.506 OA
ATOM     31  H   UNL     1      83.270  55.626  40.919  0.00  0.00    +0.000 HD
ENDBRANCH  29  30
ENDBRANCH  23  24
ENDBRANCH   4  23
TORSDOF 10
ENDMDL
