MODEL 1
REMARK VINA RESULT:    -8.798      0.000      0.000
REMARK INTER + INTRA:         -14.632
REMARK INTER:                 -13.023
REMARK INTRA:                  -1.610
REMARK UNBOUND:                -1.463
REMARK  Name = 
REMARK  11 active torsions:
REMARK  status: ('A' for Active; 'I' for Inactive)
REMARK    1  A    between atoms: C_1  and  O_2
REMARK    2  A    between atoms: O_2  and  C_3
REMARK    3  A    between atoms: C_5  and  O_6
REMARK    4  A    between atoms: C_7  and  C_21
REMARK    5  A    between atoms: C_8  and  O_20
REMARK    6  A    between atoms: C_9  and  C_10
REMARK    7  A    between atoms: C_10  and  C_12
REMARK    8  A    between atoms: C_12  and  C_13
REMARK    9  A    between atoms: C_13  and  C_14
REMARK   10  A    between atoms: C_21  and  C_22
REMARK   11  A    between atoms: C_27  and  O_28
REMARK                            x       y       z     vdW  Elec       q    Type
REMARK                         _______ _______ _______ _____ _____    ______ ____
ROOT
ATOM      1  C   UNL     1      84.659  55.438  42.296  0.00  0.00    +0.138 A 
ATOM      2  C   UNL     1      84.204  56.546  43.028  0.00  0.00    +0.023 A 
ATOM      3  C   UNL     1      84.648  56.776  44.333  0.00  0.00    +0.127 A 
ATOM      4  C   UNL     1      85.553  55.885  44.941  0.00  0.00    +0.041 A 
ATOM      5  C   UNL     1      85.987  54.744  44.230  0.00  0.00    +0.138 A 
ATOM      6  C   UNL     1      85.555  54.533  42.898  0.00  0.00    +0.101 A 
ENDROOT
BRANCH   1   8
ATOM      7  C   UNL     1      82.936  54.865  40.566  0.00  0.00    +0.079 C 
ATOM      8  O   UNL     1      84.256  55.216  40.967  0.00  0.00    -0.494 OA
ENDBRANCH   1   8
BRANCH   3   9
ATOM      9  O   UNL     1      84.184  57.892  45.031  0.00  0.00    -0.506 OA
ATOM     10  H   UNL     1      84.739  58.319  45.654  0.00  0.00    +0.000 HD
ENDBRANCH   3   9
BRANCH   6  11
ATOM     11  C   UNL     1      86.066  53.390  42.115  0.00  0.00    +0.171 C 
ATOM     12  O   UNL     1      87.239  53.429  41.654  0.00  0.00    -0.292 OA
BRANCH  11  13
ATOM     13  C   UNL     1      85.209  52.182  41.856  0.00  0.00    +0.015 C 
BRANCH  13  14
ATOM     14  C   UNL     1      84.921  51.434  43.162  0.00  0.00    -0.021 C 
BRANCH  14  15
ATOM     15  C   UNL     1      83.483  50.991  43.214  0.00  0.00    -0.047 A 
ATOM     16  C   UNL     1      82.509  51.650  42.447  0.00  0.00    -0.059 A 
ATOM     17  C   UNL     1      81.180  51.213  42.471  0.00  0.00    -0.062 A 
ATOM     18  C   UNL     1      80.819  50.111  43.251  0.00  0.00    -0.062 A 
ATOM     19  C   UNL     1      81.785  49.443  44.008  0.00  0.00    -0.062 A 
ATOM     20  C   UNL     1      83.114  49.879  43.988  0.00  0.00    -0.059 A 
ENDBRANCH  14  15
ENDBRANCH  13  14
ENDBRANCH  11  13
ENDBRANCH   6  11
BRANCH   5  21
ATOM     21  O   UNL     1      86.821  53.821  44.869  0.00  0.00    -0.506 OA
ATOM     22  H   UNL     1      86.913  53.839  45.801  0.00  0.00    +0.000 HD
ENDBRANCH   5  21
BRANCH   4  23
ATOM     23  C   UNL     1      86.059  56.165  46.342  0.00  0.00    +0.008 C 
BRANCH  23  24
ATOM     24  C   UNL     1      85.348  55.300  47.357  0.00  0.00    -0.001 A 
ATOM     25  C   UNL     1      85.926  54.086  47.770  0.00  0.00    -0.055 A 
ATOM     26  C   UNL     1      85.264  53.257  48.680  0.00  0.00    -0.061 A 
ATOM     27  C   UNL     1      84.021  53.632  49.190  0.00  0.00    -0.058 A 
ATOM     28  C   UNL     1      83.438  54.837  48.796  0.00  0.00    -0.020 A 
ATOM     29  C   UNL     1      84.093  55.676  47.883  0.00  0.00    +0.120 A 
BRANCH  29  30
ATOM     30  O   UNL     1      83.500  56.880  47.501  0.00  0.00    -0.506 OA
ATOM     31  H   UNL     1      83.923  57.432  46.873  0.00  0.00    +0.000 HD
ENDBRANCH  29  30
ENDBRANCH  23  24
ENDBRANCH   4  23
TORSDOF 10
ENDMDL
MODEL 2
REMARK VINA RESULT:    -8.547      2.336      3.553
REMARK INTER + INTRA:         -14.257
REMARK INTER:                 -13.019
REMARK INTRA:                  -1.239
REMARK UNBOUND:                -1.463
REMARK  Name = 
REMARK  11 active torsions:
REMARK  status: ('A' for Active; 'I' for Inactive)
REMARK    1  A    between atoms: C_1  and  O_2
REMARK    2  A    between atoms: O_2  and  C_3
REMARK    3  A    between atoms: C_5  and  O_6
REMARK    4  A    between atoms: C_7  and  C_21
REMARK    5  A    between atoms: C_8  and  O_20
REMARK    6  A    between atoms: C_9  and  C_10
REMARK    7  A    between atoms: C_10  and  C_12
REMARK    8  A    between atoms: C_12  and  C_13
REMARK    9  A    between atoms: C_13  and  C_14
REMARK   10  A    between atoms: C_21  and  C_22
REMARK   11  A    between atoms: C_27  and  O_28
REMARK                            x       y       z     vdW  Elec       q    Type
REMARK                         _______ _______ _______ _____ _____    ______ ____
ROOT
ATOM      1  C   UNL     1      84.520  54.847  41.960  0.00  0.00    +0.138 A 
ATOM      2  C   UNL     1      84.155  56.107  42.462  0.00  0.00    +0.023 A 
ATOM      3  C   UNL     1      84.638  56.556  43.694  0.00  0.00    +0.127 A 
ATOM      4  C   UNL     1      85.491  55.740  44.461  0.00  0.00    +0.041 A 
ATOM      5  C   UNL     1      85.832  54.454  43.986  0.00  0.00    +0.138 A 
ATOM      6  C   UNL     1      85.363  54.017  42.724  0.00  0.00    +0.101 A 
ENDROOT
BRANCH   1   8
ATOM      7  C   UNL     1      84.512  54.925  39.453  0.00  0.00    +0.079 C 
ATOM      8  O   UNL     1      84.078  54.398  40.703  0.00  0.00    -0.494 OA
ENDBRANCH   1   8
BRANCH   3   9
ATOM      9  O   UNL     1      84.265  57.817  44.160  0.00  0.00    -0.506 OA
ATOM     10  H   UNL     1      84.755  58.575  43.908  0.00  0.00    +0.000 HD
ENDBRANCH   3   9
BRANCH   6  11
ATOM     11  C   UNL     1      85.779  52.709  42.179  0.00  0.00    +0.171 C 
ATOM     12  O   UNL     1      85.143  51.671  42.506  0.00  0.00    -0.292 OA
BRANCH  11  13
ATOM     13  C   UNL     1      86.949  52.597  41.242  0.00  0.00    +0.015 C 
BRANCH  13  14
ATOM     14  C   UNL     1      88.269  52.611  42.021  0.00  0.00    -0.021 C 
BRANCH  14  15
ATOM     15  C   UNL     1      88.700  51.209  42.360  0.00  0.00    -0.047 A 
ATOM     16  C   UNL     1      89.532  50.491  41.486  0.00  0.00    -0.059 A 
ATOM     17  C   UNL     1      89.958  49.201  41.820  0.00  0.00    -0.062 A 
ATOM     18  C   UNL     1      89.566  48.626  43.033  0.00  0.00    -0.062 A 
ATOM     19  C   UNL     1      88.749  49.339  43.914  0.00  0.00    -0.062 A 
ATOM     20  C   UNL     1      88.318  50.628  43.581  0.00  0.00    -0.059 A 
ENDBRANCH  14  15
ENDBRANCH  13  14
ENDBRANCH  11  13
ENDBRANCH   6  11
BRANCH   5  21
ATOM     21  O   UNL     1      86.613  53.617  44.791  0.00  0.00    -0.506 OA
ATOM     22  H   UNL     1      87.306  53.114  44.412  0.00  0.00    +0.000 HD
ENDBRANCH   5  21
BRANCH   4  23
ATOM     23  C   UNL     1      86.041  56.252  45.777  0.00  0.00    +0.008 C 
BRANCH  23  24
ATOM     24  C   UNL     1      85.328  55.614  46.947  0.00  0.00    -0.001 A 
ATOM     25  C   UNL     1      85.922  54.533  47.624  0.00  0.00    -0.055 A 
ATOM     26  C   UNL     1      85.260  53.908  48.683  0.00  0.00    -0.061 A 
ATOM     27  C   UNL     1      84.000  54.356  49.082  0.00  0.00    -0.058 A 
ATOM     28  C   UNL     1      83.401  55.432  48.426  0.00  0.00    -0.020 A 
ATOM     29  C   UNL     1      84.057  56.067  47.360  0.00  0.00    +0.120 A 
BRANCH  29  30
ATOM     30  O   UNL     1      83.447  57.144  46.717  0.00  0.00    -0.506 OA
ATOM     31  H   UNL     1      83.090  57.849  47.220  0.00  0.00    +0.000 HD
ENDBRANCH  29  30
ENDBRANCH  23  24
ENDBRANCH   4  23
TORSDOF 10
ENDMDL
MODEL 3
REMARK VINA RESULT:    -8.547      3.904      6.167
REMARK INTER + INTRA:         -14.257
REMARK INTER:                 -12.370
REMARK INTRA:                  -1.887
REMARK UNBOUND:                -1.463
REMARK  Name = 
REMARK  11 active torsions:
REMARK  status: ('A' for Active; 'I' for Inactive)
REMARK    1  A    between atoms: C_1  and  O_2
REMARK    2  A    between atoms: O_2  and  C_3
REMARK    3  A    between atoms: C_5  and  O_6
REMARK    4  A    between atoms: C_7  and  C_21
REMARK    5  A    between atoms: C_8  and  O_20
REMARK    6  A    between atoms: C_9  and  C_10
REMARK    7  A    between atoms: C_10  and  C_12
REMARK    8  A    between atoms: C_12  and  C_13
REMARK    9  A    between atoms: C_13  and  C_14
REMARK   10  A    between atoms: C_21  and  C_22
REMARK   11  A    between atoms: C_27  and  O_28
REMARK                            x       y       z     vdW  Elec       q    Type
REMARK                         _______ _______ _______ _____ _____    ______ ____
ROOT
ATOM      1  C   UNL     1      85.049  53.018  41.104  0.00  0.00    +0.138 A 
ATOM      2  C   UNL     1      83.697  52.817  41.425  0.00  0.00    +0.023 A 
ATOM      3  C   UNL     1      83.330  52.059  42.540  0.00  0.00    +0.127 A 
ATOM      4  C   UNL     1      84.316  51.470  43.353  0.00  0.00    +0.041 A 
ATOM      5  C   UNL     1      85.679  51.630  43.018  0.00  0.00    +0.138 A 
ATOM      6  C   UNL     1      86.045  52.424  41.904  0.00  0.00    +0.101 A 
ENDROOT
BRANCH   1   8
ATOM      7  C   UNL     1      84.607  54.780  39.375  0.00  0.00    +0.079 C 
ATOM      8  O   UNL     1      85.437  53.814  40.012  0.00  0.00    -0.494 OA
ENDBRANCH   1   8
BRANCH   3   9
ATOM      9  O   UNL     1      81.977  51.885  42.838  0.00  0.00    -0.506 OA
ATOM     10  H   UNL     1      81.618  51.022  42.902  0.00  0.00    +0.000 HD
ENDBRANCH   3   9
BRANCH   6  11
ATOM     11  C   UNL     1      87.467  52.668  41.590  0.00  0.00    +0.171 C 
ATOM     12  O   UNL     1      88.039  53.687  42.063  0.00  0.00    -0.292 OA
BRANCH  11  13
ATOM     13  C   UNL     1      88.242  51.723  40.715  0.00  0.00    +0.015 C 
BRANCH  13  14
ATOM     14  C   UNL     1      89.558  51.319  41.388  0.00  0.00    -0.021 C 
BRANCH  14  15
ATOM     15  C   UNL     1      89.516  49.875  41.813  0.00  0.00    -0.047 A 
ATOM     16  C   UNL     1      88.423  49.064  41.465  0.00  0.00    -0.059 A 
ATOM     17  C   UNL     1      88.403  47.715  41.831  0.00  0.00    -0.062 A 
ATOM     18  C   UNL     1      89.478  47.164  42.537  0.00  0.00    -0.062 A 
ATOM     19  C   UNL     1      90.573  47.961  42.877  0.00  0.00    -0.062 A 
ATOM     20  C   UNL     1      90.595  49.313  42.513  0.00  0.00    -0.059 A 
ENDBRANCH  14  15
ENDBRANCH  13  14
ENDBRANCH  11  13
ENDBRANCH   6  11
BRANCH   5  21
ATOM     21  O   UNL     1      86.649  50.974  43.782  0.00  0.00    -0.506 OA
ATOM     22  H   UNL     1      86.476  50.121  44.129  0.00  0.00    +0.000 HD
ENDBRANCH   5  21
BRANCH   4  23
ATOM     23  C   UNL     1      83.907  50.683  44.583  0.00  0.00    +0.008 C 
BRANCH  23  24
ATOM     24  C   UNL     1      83.678  49.228  44.242  0.00  0.00    -0.001 A 
ATOM     25  C   UNL     1      84.778  48.368  44.069  0.00  0.00    -0.055 A 
ATOM     26  C   UNL     1      84.585  47.029  43.719  0.00  0.00    -0.061 A 
ATOM     27  C   UNL     1      83.294  46.533  43.540  0.00  0.00    -0.058 A 
ATOM     28  C   UNL     1      82.192  47.372  43.715  0.00  0.00    -0.020 A 
ATOM     29  C   UNL     1      82.374  48.717  44.067  0.00  0.00    +0.120 A 
BRANCH  29  30
ATOM     30  O   UNL     1      81.263  49.543  44.243  0.00  0.00    -0.506 OA
ATOM     31  H   UNL     1      81.005  49.802  45.105  0.00  0.00    +0.000 HD
ENDBRANCH  29  30
ENDBRANCH  23  24
ENDBRANCH   4  23
TORSDOF 10
ENDMDL
MODEL 4
REMARK VINA RESULT:    -8.503      2.349      5.628
REMARK INTER + INTRA:         -14.191
REMARK INTER:                 -11.861
REMARK INTRA:                  -2.331
REMARK UNBOUND:                -1.463
REMARK  Name = 
REMARK  11 active torsions:
REMARK  status: ('A' for Active; 'I' for Inactive)
REMARK    1  A    between atoms: C_1  and  O_2
REMARK    2  A    between atoms: O_2  and  C_3
REMARK    3  A    between atoms: C_5  and  O_6
REMARK    4  A    between atoms: C_7  and  C_21
REMARK    5  A    between atoms: C_8  and  O_20
REMARK    6  A    between atoms: C_9  and  C_10
REMARK    7  A    between atoms: C_10  and  C_12
REMARK    8  A    between atoms: C_12  and  C_13
REMARK    9  A    between atoms: C_13  and  C_14
REMARK   10  A    between atoms: C_21  and  C_22
REMARK   11  A    between atoms: C_27  and  O_28
REMARK                            x       y       z     vdW  Elec       q    Type
REMARK                         _______ _______ _______ _____ _____    ______ ____
ROOT
ATOM      1  C   UNL     1      83.923  50.028  43.844  0.00  0.00    +0.138 A 
ATOM      2  C   UNL     1      83.047  50.933  43.223  0.00  0.00    +0.023 A 
ATOM      3  C   UNL     1      83.534  52.054  42.547  0.00  0.00    +0.127 A 
ATOM      4  C   UNL     1      84.919  52.302  42.491  0.00  0.00    +0.041 A 
ATOM      5  C   UNL     1      85.809  51.422  43.146  0.00  0.00    +0.138 A 
ATOM      6  C   UNL     1      85.310  50.272  43.804  0.00  0.00    +0.101 A 
ENDROOT
BRANCH   1   8
ATOM      7  C   UNL     1      82.736  47.819  43.854  0.00  0.00    +0.079 C 
ATOM      8  O   UNL     1      83.452  48.872  44.491  0.00  0.00    -0.494 OA
ENDBRANCH   1   8
BRANCH   3   9
ATOM      9  O   UNL     1      82.638  52.930  41.932  0.00  0.00    -0.506 OA
ATOM     10  H   UNL     1      82.794  53.221  41.055  0.00  0.00    +0.000 HD
ENDBRANCH   3   9
BRANCH   6  11
ATOM     11  C   UNL     1      86.234  49.300  44.422  0.00  0.00    +0.171 C 
ATOM     12  O   UNL     1      86.834  48.465  43.692  0.00  0.00    -0.292 OA
BRANCH  11  13
ATOM     13  C   UNL     1      86.468  49.288  45.907  0.00  0.00    +0.015 C 
BRANCH  13  14
ATOM     14  C   UNL     1      87.522  50.330  46.296  0.00  0.00    -0.021 C 
BRANCH  14  15
ATOM     15  C   UNL     1      86.889  51.465  47.057  0.00  0.00    -0.047 A 
ATOM     16  C   UNL     1      86.667  52.702  46.431  0.00  0.00    -0.059 A 
ATOM     17  C   UNL     1      86.047  53.744  47.130  0.00  0.00    -0.062 A 
ATOM     18  C   UNL     1      85.636  53.552  48.453  0.00  0.00    -0.062 A 
ATOM     19  C   UNL     1      85.842  52.320  49.078  0.00  0.00    -0.062 A 
ATOM     20  C   UNL     1      86.464  51.277  48.382  0.00  0.00    -0.059 A 
ENDBRANCH  14  15
ENDBRANCH  13  14
ENDBRANCH  11  13
ENDBRANCH   6  11
BRANCH   5  21
ATOM     21  O   UNL     1      87.175  51.719  43.156  0.00  0.00    -0.506 OA
ATOM     22  H   UNL     1      87.782  51.123  43.548  0.00  0.00    +0.000 HD
ENDBRANCH   5  21
BRANCH   4  23
ATOM     23  C   UNL     1      85.439  53.500  41.721  0.00  0.00    +0.008 C 
BRANCH  23  24
ATOM     24  C   UNL     1      85.512  54.723  42.606  0.00  0.00    -0.001 A 
ATOM     25  C   UNL     1      86.608  54.895  43.472  0.00  0.00    -0.055 A 
ATOM     26  C   UNL     1      86.672  56.001  44.324  0.00  0.00    -0.061 A 
ATOM     27  C   UNL     1      85.647  56.948  44.319  0.00  0.00    -0.058 A 
ATOM     28  C   UNL     1      84.557  56.794  43.460  0.00  0.00    -0.020 A 
ATOM     29  C   UNL     1      84.482  55.688  42.601  0.00  0.00    +0.120 A 
BRANCH  29  30
ATOM     30  O   UNL     1      83.389  55.550  41.746  0.00  0.00    -0.506 OA
ATOM     31  H   UNL     1      82.991  56.310  41.369  0.00  0.00    +0.000 HD
ENDBRANCH  29  30
ENDBRANCH  23  24
ENDBRANCH   4  23
TORSDOF 10
ENDMDL
MODEL 5
REMARK VINA RESULT:    -8.352      2.236      6.128
REMARK INTER + INTRA:         -13.964
REMARK INTER:                 -12.148
REMARK INTRA:                  -1.816
REMARK UNBOUND:                -1.463
REMARK  Name = 
REMARK  11 active torsions:
REMARK  status: ('A' for Active; 'I' for Inactive)
REMARK    1  A    between atoms: C_1  and  O_2
REMARK    2  A    between atoms: O_2  and  C_3
REMARK    3  A    between atoms: C_5  and  O_6
REMARK    4  A    between atoms: C_7  and  C_21
REMARK    5  A    between atoms: C_8  and  O_20
REMARK    6  A    between atoms: C_9  and  C_10
REMARK    7  A    between atoms: C_10  and  C_12
REMARK    8  A    between atoms: C_12  and  C_13
REMARK    9  A    between atoms: C_13  and  C_14
REMARK   10  A    between atoms: C_21  and  C_22
REMARK   11  A    between atoms: C_27  and  O_28
REMARK                            x       y       z     vdW  Elec       q    Type
REMARK                         _______ _______ _______ _____ _____    ______ ____
ROOT
ATOM      1  C   UNL     1      84.994  56.590  45.059  0.00  0.00    +0.138 A 
ATOM      2  C   UNL     1      85.066  56.820  43.676  0.00  0.00    +0.023 A 
ATOM      3  C   UNL     1      84.838  55.786  42.764  0.00  0.00    +0.127 A 
ATOM      4  C   UNL     1      84.546  54.488  43.223  0.00  0.00    +0.041 A 
ATOM      5  C   UNL     1      84.511  54.234  44.612  0.00  0.00    +0.138 A 
ATOM      6  C   UNL     1      84.714  55.293  45.530  0.00  0.00    +0.101 A 
ENDROOT
BRANCH   1   8
ATOM      7  C   UNL     1      84.266  58.701  46.201  0.00  0.00    +0.079 C 
ATOM      8  O   UNL     1      85.178  57.629  45.990  0.00  0.00    -0.494 OA
ENDBRANCH   1   8
BRANCH   3   9
ATOM      9  O   UNL     1      84.907  56.049  41.395  0.00  0.00    -0.506 OA
ATOM     10  H   UNL     1      84.752  55.361  40.777  0.00  0.00    +0.000 HD
ENDBRANCH   3   9
BRANCH   6  11
ATOM     11  C   UNL     1      84.599  55.060  46.984  0.00  0.00    +0.171 C 
ATOM     12  O   UNL     1      83.486  55.230  47.552  0.00  0.00    -0.292 OA
BRANCH  11  13
ATOM     13  C   UNL     1      85.786  54.624  47.796  0.00  0.00    +0.015 C 
BRANCH  13  14
ATOM     14  C   UNL     1      85.506  53.286  48.489  0.00  0.00    -0.021 C 
BRANCH  14  15
ATOM     15  C   UNL     1      86.385  52.202  47.924  0.00  0.00    -0.047 A 
ATOM     16  C   UNL     1      86.699  51.069  48.691  0.00  0.00    -0.059 A 
ATOM     17  C   UNL     1      87.487  50.048  48.151  0.00  0.00    -0.062 A 
ATOM     18  C   UNL     1      87.958  50.147  46.838  0.00  0.00    -0.062 A 
ATOM     19  C   UNL     1      87.641  51.266  46.063  0.00  0.00    -0.062 A 
ATOM     20  C   UNL     1      86.854  52.290  46.602  0.00  0.00    -0.059 A 
ENDBRANCH  14  15
ENDBRANCH  13  14
ENDBRANCH  11  13
ENDBRANCH   6  11
BRANCH   5  21
ATOM     21  O   UNL     1      84.302  52.926  45.060  0.00  0.00    -0.506 OA
ATOM     22  H   UNL     1      83.739  52.351  44.580  0.00  0.00    +0.000 HD
ENDBRANCH   5  21
BRANCH   4  23
ATOM     23  C   UNL     1      84.260  53.383  42.225  0.00  0.00    +0.008 C 
BRANCH  23  24
ATOM     24  C   UNL     1      85.539  52.702  41.791  0.00  0.00    -0.001 A 
ATOM     25  C   UNL     1      86.142  51.746  42.629  0.00  0.00    -0.055 A 
ATOM     26  C   UNL     1      87.342  51.134  42.259  0.00  0.00    -0.061 A 
ATOM     27  C   UNL     1      87.953  51.468  41.050  0.00  0.00    -0.058 A 
ATOM     28  C   UNL     1      87.364  52.410  40.205  0.00  0.00    -0.020 A 
ATOM     29  C   UNL     1      86.158  53.030  40.567  0.00  0.00    +0.120 A 
BRANCH  29  30
ATOM     30  O   UNL     1      85.579  53.966  39.710  0.00  0.00    -0.506 OA
ATOM     31  H   UNL     1      84.738  53.798  39.333  0.00  0.00    +0.000 HD
ENDBRANCH  29  30
ENDBRANCH  23  24
ENDBRANCH   4  23
TORSDOF 10
ENDMDL
MODEL 6
REMARK VINA RESULT:    -8.341      2.555      5.951
REMARK INTER + INTRA:         -13.949
REMARK INTER:                 -11.780
REMARK INTRA:                  -2.169
REMARK UNBOUND:                -1.463
REMARK  Name = 
REMARK  11 active torsions:
REMARK  status: ('A' for Active; 'I' for Inactive)
REMARK    1  A    between atoms: C_1  and  O_2
REMARK    2  A    between atoms: O_2  and  C_3
REMARK    3  A    between atoms: C_5  and  O_6
REMARK    4  A    between atoms: C_7  and  C_21
REMARK    5  A    between atoms: C_8  and  O_20
REMARK    6  A    between atoms: C_9  and  C_10
REMARK    7  A    between atoms: C_10  and  C_12
REMARK    8  A    between atoms: C_12  and  C_13
REMARK    9  A    between atoms: C_13  and  C_14
REMARK   10  A    between atoms: C_21  and  C_22
REMARK   11  A    between atoms: C_27  and  O_28
REMARK                            x       y       z     vdW  Elec       q    Type
REMARK                         _______ _______ _______ _____ _____    ______ ____
ROOT
ATOM      1  C   UNL     1      87.980  50.390  43.613  0.00  0.00    +0.138 A 
ATOM      2  C   UNL     1      88.315  51.145  42.477  0.00  0.00    +0.023 A 
ATOM      3  C   UNL     1      87.451  52.129  41.990  0.00  0.00    +0.127 A 
ATOM      4  C   UNL     1      86.218  52.369  42.626  0.00  0.00    +0.041 A 
ATOM      5  C   UNL     1      85.852  51.589  43.746  0.00  0.00    +0.138 A 
ATOM      6  C   UNL     1      86.744  50.614  44.251  0.00  0.00    +0.101 A 
ENDROOT
BRANCH   1   8
ATOM      7  C   UNL     1      89.958  48.858  43.442  0.00  0.00    +0.079 C 
ATOM      8  O   UNL     1      88.857  49.426  44.143  0.00  0.00    -0.494 OA
ENDBRANCH   1   8
BRANCH   3   9
ATOM      9  O   UNL     1      87.816  52.868  40.864  0.00  0.00    -0.506 OA
ATOM     10  H   UNL     1      87.324  52.789  40.070  0.00  0.00    +0.000 HD
ENDBRANCH   3   9
BRANCH   6  11
ATOM     11  C   UNL     1      86.410  49.849  45.470  0.00  0.00    +0.171 C 
ATOM     12  O   UNL     1      85.650  48.847  45.383  0.00  0.00    -0.292 OA
BRANCH  11  13
ATOM     13  C   UNL     1      86.960  50.248  46.811  0.00  0.00    +0.015 C 
BRANCH  13  14
ATOM     14  C   UNL     1      87.392  51.718  46.803  0.00  0.00    -0.021 C 
BRANCH  14  15
ATOM     15  C   UNL     1      86.313  52.590  47.388  0.00  0.00    -0.047 A 
ATOM     16  C   UNL     1      85.641  52.201  48.558  0.00  0.00    -0.059 A 
ATOM     17  C   UNL     1      84.663  53.031  49.117  0.00  0.00    -0.062 A 
ATOM     18  C   UNL     1      84.359  54.257  48.518  0.00  0.00    -0.062 A 
ATOM     19  C   UNL     1      85.031  54.657  47.361  0.00  0.00    -0.062 A 
ATOM     20  C   UNL     1      86.008  53.828  46.797  0.00  0.00    -0.059 A 
ENDBRANCH  14  15
ENDBRANCH  13  14
ENDBRANCH  11  13
ENDBRANCH   6  11
BRANCH   5  21
ATOM     21  O   UNL     1      84.591  51.778  44.322  0.00  0.00    -0.506 OA
ATOM     22  H   UNL     1      83.886  52.118  43.808  0.00  0.00    +0.000 HD
ENDBRANCH   5  21
BRANCH   4  23
ATOM     23  C   UNL     1      85.307  53.467  42.113  0.00  0.00    +0.008 C 
BRANCH  23  24
ATOM     24  C   UNL     1      85.502  54.743  42.899  0.00  0.00    -0.001 A 
ATOM     25  C   UNL     1      86.729  54.988  43.542  0.00  0.00    -0.055 A 
ATOM     26  C   UNL     1      86.913  56.146  44.303  0.00  0.00    -0.061 A 
ATOM     27  C   UNL     1      85.877  57.072  44.428  0.00  0.00    -0.058 A 
ATOM     28  C   UNL     1      84.657  56.847  43.790  0.00  0.00    -0.020 A 
ATOM     29  C   UNL     1      84.461  55.688  43.024  0.00  0.00    +0.120 A 
BRANCH  29  30
ATOM     30  O   UNL     1      83.237  55.478  42.389  0.00  0.00    -0.506 OA
ATOM     31  H   UNL     1      82.848  54.625  42.392  0.00  0.00    +0.000 HD
ENDBRANCH  29  30
ENDBRANCH  23  24
ENDBRANCH   4  23
TORSDOF 10
ENDMDL
MODEL 7
REMARK VINA RESULT:    -8.226      2.399      4.775
REMARK INTER + INTRA:         -13.776
REMARK INTER:                 -11.529
REMARK INTRA:                  -2.247
REMARK UNBOUND:                -1.463
REMARK  Name = 
REMARK  11 active torsions:
REMARK  status: ('A' for Active; 'I' for Inactive)
REMARK    1  A    between atoms: C_1  and  O_2
REMARK    2  A    between atoms: O_2  and  C_3
REMARK    3  A    between atoms: C_5  and  O_6
REMARK    4  A    between atoms: C_7  and  C_21
REMARK    5  A    between atoms: C_8  and  O_20
REMARK    6  A    between atoms: C_9  and  C_10
REMARK    7  A    between atoms: C_10  and  C_12
REMARK    8  A    between atoms: C_12  and  C_13
REMARK    9  A    between atoms: C_13  and  C_14
REMARK   10  A    between atoms: C_21  and  C_22
REMARK   11  A    between atoms: C_27  and  O_28
REMARK                            x       y       z     vdW  Elec       q    Type
REMARK                         _______ _______ _______ _____ _____    ______ ____
ROOT
ATOM      1  C   UNL     1      86.108  52.119  41.598  0.00  0.00    +0.138 A 
ATOM      2  C   UNL     1      85.915  53.359  40.968  0.00  0.00    +0.023 A 
ATOM      3  C   UNL     1      85.076  54.325  41.528  0.00  0.00    +0.127 A 
ATOM      4  C   UNL     1      84.396  54.063  42.732  0.00  0.00    +0.041 A 
ATOM      5  C   UNL     1      84.550  52.804  43.355  0.00  0.00    +0.138 A 
ATOM      6  C   UNL     1      85.424  51.840  42.798  0.00  0.00    +0.101 A 
ENDROOT
BRANCH   1   8
ATOM      7  C   UNL     1      88.344  51.389  40.728  0.00  0.00    +0.079 C 
ATOM      8  O   UNL     1      86.983  51.152  41.071  0.00  0.00    -0.494 OA
ENDBRANCH   1   8
BRANCH   3   9
ATOM      9  O   UNL     1      84.912  55.552  40.882  0.00  0.00    -0.506 OA
ATOM     10  H   UNL     1      84.058  55.831  40.615  0.00  0.00    +0.000 HD
ENDBRANCH   3   9
BRANCH   6  11
ATOM     11  C   UNL     1      85.658  50.553  43.482  0.00  0.00    +0.171 C 
ATOM     12  O   UNL     1      84.712  49.726  43.588  0.00  0.00    -0.292 OA
BRANCH  11  13
ATOM     13  C   UNL     1      87.006  50.213  44.055  0.00  0.00    +0.015 C 
BRANCH  13  14
ATOM     14  C   UNL     1      87.605  51.422  44.782  0.00  0.00    -0.021 C 
BRANCH  14  15
ATOM     15  C   UNL     1      87.135  51.467  46.212  0.00  0.00    -0.047 A 
ATOM     16  C   UNL     1      87.518  50.464  47.117  0.00  0.00    -0.059 A 
ATOM     17  C   UNL     1      87.108  50.527  48.453  0.00  0.00    -0.062 A 
ATOM     18  C   UNL     1      86.324  51.598  48.895  0.00  0.00    -0.062 A 
ATOM     19  C   UNL     1      85.949  52.606  48.003  0.00  0.00    -0.062 A 
ATOM     20  C   UNL     1      86.355  52.544  46.666  0.00  0.00    -0.059 A 
ENDBRANCH  14  15
ENDBRANCH  13  14
ENDBRANCH  11  13
ENDBRANCH   6  11
BRANCH   5  21
ATOM     21  O   UNL     1      83.808  52.520  44.507  0.00  0.00    -0.506 OA
ATOM     22  H   UNL     1      83.929  53.033  45.281  0.00  0.00    +0.000 HD
ENDBRANCH   5  21
BRANCH   4  23
ATOM     23  C   UNL     1      83.520  55.133  43.352  0.00  0.00    +0.008 C 
BRANCH  23  24
ATOM     24  C   UNL     1      84.275  55.905  44.410  0.00  0.00    -0.001 A 
ATOM     25  C   UNL     1      84.323  55.421  45.730  0.00  0.00    -0.055 A 
ATOM     26  C   UNL     1      84.986  56.141  46.727  0.00  0.00    -0.061 A 
ATOM     27  C   UNL     1      85.610  57.349  46.418  0.00  0.00    -0.058 A 
ATOM     28  C   UNL     1      85.577  57.840  45.112  0.00  0.00    -0.020 A 
ATOM     29  C   UNL     1      84.914  57.125  44.103  0.00  0.00    +0.120 A 
BRANCH  29  30
ATOM     30  O   UNL     1      84.894  57.626  42.801  0.00  0.00    -0.506 OA
ATOM     31  H   UNL     1      84.209  58.208  42.534  0.00  0.00    +0.000 HD
ENDBRANCH  29  30
ENDBRANCH  23  24
ENDBRANCH   4  23
TORSDOF 10
ENDMDL
MODEL 8
REMARK VINA RESULT:    -8.205      2.922      6.501
REMARK INTER + INTRA:         -13.745
REMARK INTER:                 -11.768
REMARK INTRA:                  -1.977
REMARK UNBOUND:                -1.463
REMARK  Name = 
REMARK  11 active torsions:
REMARK  status: ('A' for Active; 'I' for Inactive)
REMARK    1  A    between atoms: C_1  and  O_2
REMARK    2  A    between atoms: O_2  and  C_3
REMARK    3  A    between atoms: C_5  and  O_6
REMARK    4  A    between atoms: C_7  and  C_21
REMARK    5  A    between atoms: C_8  and  O_20
REMARK    6  A    between atoms: C_9  and  C_10
REMARK    7  A    between atoms: C_10  and  C_12
REMARK    8  A    between atoms: C_12  and  C_13
REMARK    9  A    between atoms: C_13  and  C_14
REMARK   10  A    between atoms: C_21  and  C_22
REMARK   11  A    between atoms: C_27  and  O_28
REMARK                            x       y       z     vdW  Elec       q    Type
REMARK                         _______ _______ _______ _____ _____    ______ ____
ROOT
ATOM      1  C   UNL     1      84.085  52.946  43.332  0.00  0.00    +0.138 A 
ATOM      2  C   UNL     1      83.392  51.730  43.450  0.00  0.00    +0.023 A 
ATOM      3  C   UNL     1      83.988  50.621  44.057  0.00  0.00    +0.127 A 
ATOM      4  C   UNL     1      85.304  50.704  44.548  0.00  0.00    +0.041 A 
ATOM      5  C   UNL     1      86.026  51.909  44.399  0.00  0.00    +0.138 A 
ATOM      6  C   UNL     1      85.407  53.037  43.810  0.00  0.00    +0.101 A 
ENDROOT
BRANCH   1   8
ATOM      7  C   UNL     1      83.234  54.262  41.374  0.00  0.00    +0.079 C 
ATOM      8  O   UNL     1      83.484  54.084  42.764  0.00  0.00    -0.494 OA
ENDBRANCH   1   8
BRANCH   3   9
ATOM      9  O   UNL     1      83.270  49.430  44.167  0.00  0.00    -0.506 OA
ATOM     10  H   UNL     1      83.688  48.611  43.982  0.00  0.00    +0.000 HD
ENDBRANCH   3   9
BRANCH   6  11
ATOM     11  C   UNL     1      86.120  54.327  43.723  0.00  0.00    +0.171 C 
ATOM     12  O   UNL     1      87.034  54.473  42.866  0.00  0.00    -0.292 OA
BRANCH  11  13
ATOM     13  C   UNL     1      85.777  55.467  44.640  0.00  0.00    +0.015 C 
BRANCH  13  14
ATOM     14  C   UNL     1      86.552  55.354  45.957  0.00  0.00    -0.021 C 
BRANCH  14  15
ATOM     15  C   UNL     1      85.657  54.850  47.058  0.00  0.00    -0.047 A 
ATOM     16  C   UNL     1      85.915  53.614  47.673  0.00  0.00    -0.059 A 
ATOM     17  C   UNL     1      85.102  53.165  48.719  0.00  0.00    -0.062 A 
ATOM     18  C   UNL     1      84.035  53.951  49.163  0.00  0.00    -0.062 A 
ATOM     19  C   UNL     1      83.778  55.186  48.564  0.00  0.00    -0.062 A 
ATOM     20  C   UNL     1      84.588  55.638  47.516  0.00  0.00    -0.059 A 
ENDBRANCH  14  15
ENDBRANCH  13  14
ENDBRANCH  11  13
ENDBRANCH   6  11
BRANCH   5  21
ATOM     21  O   UNL     1      87.361  51.958  44.816  0.00  0.00    -0.506 OA
ATOM     22  H   UNL     1      87.571  52.233  45.686  0.00  0.00    +0.000 HD
ENDBRANCH   5  21
BRANCH   4  23
ATOM     23  C   UNL     1      85.927  49.507  45.241  0.00  0.00    +0.008 C 
BRANCH  23  24
ATOM     24  C   UNL     1      86.521  48.548  44.234  0.00  0.00    -0.001 A 
ATOM     25  C   UNL     1      87.701  48.895  43.550  0.00  0.00    -0.055 A 
ATOM     26  C   UNL     1      88.243  48.036  42.591  0.00  0.00    -0.061 A 
ATOM     27  C   UNL     1      87.617  46.823  42.305  0.00  0.00    -0.058 A 
ATOM     28  C   UNL     1      86.450  46.462  42.980  0.00  0.00    -0.020 A 
ATOM     29  C   UNL     1      85.897  47.316  43.946  0.00  0.00    +0.120 A 
BRANCH  29  30
ATOM     30  O   UNL     1      84.732  46.941  44.616  0.00  0.00    -0.506 OA
ATOM     31  H   UNL     1      83.968  46.702  44.128  0.00  0.00    +0.000 HD
ENDBRANCH  29  30
ENDBRANCH  23  24
ENDBRANCH   4  23
TORSDOF 10
ENDMDL
MODEL 9
REMARK VINA RESULT:    -8.159      4.974      8.041
REMARK INTER + INTRA:         -13.677
REMARK INTER:                 -12.214
REMARK INTRA:                  -1.463
REMARK UNBOUND:                -1.463
REMARK  Name = 
REMARK  11 active torsions:
REMARK  status: ('A' for Active; 'I' for Inactive)
REMARK    1  A    between atoms: C_1  and  O_2
REMARK    2  A    between atoms: O_2  and  C_3
REMARK    3  A    between atoms: C_5  and  O_6
REMARK    4  A    between atoms: C_7  and  C_21
REMARK    5  A    between atoms: C_8  and  O_20
REMARK    6  A    between atoms: C_9  and  C_10
REMARK    7  A    between atoms: C_10  and  C_12
REMARK    8  A    between atoms: C_12  and  C_13
REMARK    9  A    between atoms: C_13  and  C_14
REMARK   10  A    between atoms: C_21  and  C_22
REMARK   11  A    between atoms: C_27  and  O_28
REMARK                            x       y       z     vdW  Elec       q    Type
REMARK                         _______ _______ _______ _____ _____    ______ ____
ROOT
ATOM      1  C   UNL     1      87.163  45.699  42.684  0.00  0.00    +0.138 A 
ATOM      2  C   UNL     1      88.435  46.065  42.211  0.00  0.00    +0.023 A 
ATOM      3  C   UNL     1      88.933  47.354  42.416  0.00  0.00    +0.127 A 
ATOM      4  C   UNL     1      88.156  48.315  43.090  0.00  0.00    +0.041 A 
ATOM      5  C   UNL     1      86.859  47.973  43.534  0.00  0.00    +0.138 A 
ATOM      6  C   UNL     1      86.373  46.656  43.349  0.00  0.00    +0.101 A 
ENDROOT
BRANCH   1   8
ATOM      7  C   UNL     1      87.228  43.231  43.123  0.00  0.00    +0.079 C 
ATOM      8  O   UNL     1      86.665  44.394  42.525  0.00  0.00    -0.494 OA
ENDBRANCH   1   8
BRANCH   3   9
ATOM      9  O   UNL     1      90.203  47.683  41.943  0.00  0.00    -0.506 OA
ATOM     10  H   UNL     1      90.953  47.569  42.493  0.00  0.00    +0.000 HD
ENDBRANCH   3   9
BRANCH   6  11
ATOM     11  C   UNL     1      85.053  46.261  43.881  0.00  0.00    +0.171 C 
ATOM     12  O   UNL     1      84.971  45.795  45.050  0.00  0.00    -0.292 OA
BRANCH  11  13
ATOM     13  C   UNL     1      83.808  46.405  43.052  0.00  0.00    +0.015 C 
BRANCH  13  14
ATOM     14  C   UNL     1      82.559  46.349  43.938  0.00  0.00    -0.021 C 
BRANCH  14  15
ATOM     15  C   UNL     1      81.740  47.603  43.779  0.00  0.00    -0.047 A 
ATOM     16  C   UNL     1      80.363  47.591  44.053  0.00  0.00    -0.059 A 
ATOM     17  C   UNL     1      79.612  48.766  43.938  0.00  0.00    -0.062 A 
ATOM     18  C   UNL     1      80.233  49.960  43.560  0.00  0.00    -0.062 A 
ATOM     19  C   UNL     1      81.605  49.982  43.297  0.00  0.00    -0.062 A 
ATOM     20  C   UNL     1      82.358  48.808  43.409  0.00  0.00    -0.059 A 
ENDBRANCH  14  15
ENDBRANCH  13  14
ENDBRANCH  11  13
ENDBRANCH   6  11
BRANCH   5  21
ATOM     21  O   UNL     1      86.062  48.956  44.129  0.00  0.00    -0.506 OA
ATOM     22  H   UNL     1      85.397  49.386  43.630  0.00  0.00    +0.000 HD
ENDBRANCH   5  21
BRANCH   4  23
ATOM     23  C   UNL     1      88.722  49.699  43.342  0.00  0.00    +0.008 C 
BRANCH  23  24
ATOM     24  C   UNL     1      88.474  50.608  42.160  0.00  0.00    -0.001 A 
ATOM     25  C   UNL     1      89.382  50.621  41.085  0.00  0.00    -0.055 A 
ATOM     26  C   UNL     1      89.187  51.482  40.002  0.00  0.00    -0.061 A 
ATOM     27  C   UNL     1      88.085  52.337  39.977  0.00  0.00    -0.058 A 
ATOM     28  C   UNL     1      87.171  52.330  41.033  0.00  0.00    -0.020 A 
ATOM     29  C   UNL     1      87.357  51.470  42.126  0.00  0.00    +0.120 A 
BRANCH  29  30
ATOM     30  O   UNL     1      86.434  51.472  43.171  0.00  0.00    -0.506 OA
ATOM     31  H   UNL     1      86.654  51.074  43.991  0.00  0.00    +0.000 HD
ENDBRANCH  29  30
ENDBRANCH  23  24
ENDBRANCH   4  23
TORSDOF 10
ENDMDL
