=
 OpenBabel08112514243D

 57 63  0  0  1  0  0  0  0  0999 V2000
   85.9060   51.5140   43.6930 C   0  0  0  0  0  0  0  0  0  0  0  0
   85.4180   52.6860   43.0730 C   0  0  0  0  0  0  0  0  0  0  0  0
   84.0640   52.7550   42.6780 C   0  0  0  0  0  0  0  0  0  0  0  0
   83.1950   51.6640   42.9320 C   0  0  0  0  0  0  0  0  0  0  0  0
   83.6590   50.5860   43.7120 C   0  0  0  0  0  0  0  0  0  0  0  0
   85.0170   50.4900   44.0720 C   0  0  0  0  0  0  0  0  0  0  0  0
   82.7600   49.5890   44.1180 O   0  0  0  0  0  0  0  0  0  0  0  0
   81.3470   49.7670   44.0470 C   0  0  1  0  0  3  0  0  0  0  0  0
   80.9630   50.3530   42.6840 C   0  0  0  0  0  2  0  0  0  0  0  0
   81.8190   51.5470   42.3620 C   0  0  0  0  0  0  0  0  0  0  0  0
   81.3950   52.3580   41.4980 O   0  0  0  0  0  0  0  0  0  0  0  0
   80.6390   48.4540   44.2850 C   0  0  0  0  0  0  0  0  0  0  0  0
   81.3770   47.2640   44.3970 C   0  0  0  0  0  3  0  0  0  0  0  0
   80.7300   46.0520   44.6650 C   0  0  0  0  0  3  0  0  0  0  0  0
   79.3430   46.0220   44.8330 C   0  0  0  0  0  3  0  0  0  0  0  0
   78.6010   47.2010   44.7350 C   0  0  0  0  0  3  0  0  0  0  0  0
   79.2440   48.4150   44.4700 C   0  0  0  0  0  3  0  0  0  0  0  0
   87.7970   51.5620   45.2730 C   0  0  0  0  0  1  0  0  0  0  0  0
   87.2710   51.3680   43.9640 O   0  0  0  0  0  0  0  0  0  0  0  0
   83.6160   53.9300   42.0660 O   0  0  0  0  0  0  0  0  0  0  0  0
   84.1150   54.7190   42.1450 H   0  0  0  0  0  0  0  0  0  0  0  0
   86.2980   53.9170   42.9390 C   0  0  0  0  0  2  0  0  0  0  0  0
   85.8460   55.0030   43.8890 C   0  0  0  0  0  0  0  0  0  0  0  0
   86.0710   54.8600   45.2670 C   0  0  0  0  0  3  0  0  0  0  0  0
   85.7360   55.8860   46.1620 C   0  0  0  0  0  0  0  0  0  0  0  0
   85.1290   57.0530   45.6720 C   0  0  0  0  0  3  0  0  0  0  0  0
   84.8790   57.1970   44.3050 C   0  0  0  0  0  3  0  0  0  0  0  0
   85.2440   56.1840   43.4090 C   0  0  0  0  0  0  0  0  0  0  0  0
   85.0090   56.3480   42.0440 O   0  0  0  0  0  0  0  0  0  0  0  0
   85.1560   55.6350   41.4540 H   0  0  0  0  0  0  0  0  0  0  0  0
   86.0900   55.7520   47.6200 C   0  0  0  0  0  2  0  0  0  0  0  0
   85.3420   54.5870   48.2350 C   0  0  0  0  0  0  0  0  0  0  0  0
   86.0520   53.4000   48.5080 C   0  0  0  0  0  3  0  0  0  0  0  0
   85.4270   52.3240   49.1410 C   0  0  0  0  0  3  0  0  0  0  0  0
   84.0880   52.4170   49.5190 C   0  0  0  0  0  3  0  0  0  0  0  0
   83.3690   53.5850   49.2580 C   0  0  0  0  0  3  0  0  0  0  0  0
   83.9780   54.6730   48.6180 C   0  0  0  0  0  0  0  0  0  0  0  0
   83.1960   55.8050   48.3830 O   0  0  0  0  0  0  0  0  0  0  0  0
   83.2800   56.5560   48.9370 H   0  0  0  0  0  0  0  0  0  0  0  0
   85.5100   49.3110   44.8900 C   0  0  0  0  0  2  0  0  0  0  0  0
   86.1390   48.2230   44.0440 C   0  0  0  0  0  0  0  0  0  0  0  0
   87.1290   48.5660   43.1010 C   0  0  0  0  0  3  0  0  0  0  0  0
   87.7880   47.5740   42.3550 C   0  0  0  0  0  0  0  0  0  0  0  0
   87.4540   46.2280   42.5590 C   0  0  0  0  0  3  0  0  0  0  0  0
   86.4730   45.8770   43.4840 C   0  0  0  0  0  3  0  0  0  0  0  0
   85.8240   46.8610   44.2420 C   0  0  0  0  0  0  0  0  0  0  0  0
   84.8800   46.4810   45.1940 O   0  0  0  0  0  0  0  0  0  0  0  0
   84.5010   45.6250   45.1630 H   0  0  0  0  0  0  0  0  0  0  0  0
   88.9010   47.9410   41.4040 C   0  0  0  0  0  2  0  0  0  0  0  0
   89.1210   49.4340   41.3590 C   0  0  0  0  0  0  0  0  0  0  0  0
   88.2400   50.2480   40.6210 C   0  0  0  0  0  3  0  0  0  0  0  0
   88.4100   51.6360   40.5940 C   0  0  0  0  0  3  0  0  0  0  0  0
   89.4620   52.2250   41.2970 C   0  0  0  0  0  3  0  0  0  0  0  0
   90.3450   51.4270   42.0330 C   0  0  0  0  0  3  0  0  0  0  0  0
   90.1780   50.0330   42.0730 C   0  0  0  0  0  0  0  0  0  0  0  0
   91.0570   49.2450   42.8140 O   0  0  0  0  0  0  0  0  0  0  0  0
   91.1710   48.3410   42.5980 H   0  0  0  0  0  0  0  0  0  0  0  0
  1 19  1  0  0  0  0
  1  6  1  0  0  0  0
  2  1  2  0  0  0  0
  3  4  2  0  0  0  0
  3  2  1  0  0  0  0
  4  5  1  0  0  0  0
  5  6  2  0  0  0  0
  5  7  1  0  0  0  0
  6 40  1  0  0  0  0
  8  7  1  0  0  0  0
  8 12  1  6  0  0  0
  9  8  1  0  0  0  0
 10  9  1  0  0  0  0
 10  4  1  0  0  0  0
 11 10  2  0  0  0  0
 12 13  2  0  0  0  0
 12 17  1  0  0  0  0
 13 14  1  0  0  0  0
 14 15  2  0  0  0  0
 16 15  1  0  0  0  0
 17 16  2  0  0  0  0
 19 18  1  0  0  0  0
 20 21  1  0  0  0  0
 20  3  1  0  0  0  0
 22  2  1  0  0  0  0
 22 23  1  0  0  0  0
 23 24  1  0  0  0  0
 24 25  2  0  0  0  0
 25 31  1  0  0  0  0
 26 25  1  0  0  0  0
 27 26  2  0  0  0  0
 28 23  2  0  0  0  0
 28 27  1  0  0  0  0
 29 28  1  0  0  0  0
 30 29  1  0  0  0  0
 31 32  1  0  0  0  0
 32 33  2  0  0  0  0
 32 37  1  0  0  0  0
 33 34  1  0  0  0  0
 34 35  2  0  0  0  0
 36 35  1  0  0  0  0
 37 36  2  0  0  0  0
 38 37  1  0  0  0  0
 38 39  1  0  0  0  0
 41 46  1  0  0  0  0
 41 40  1  0  0  0  0
 42 41  2  0  0  0  0
 43 44  2  0  0  0  0
 43 42  1  0  0  0  0
 44 45  1  0  0  0  0
 45 46  2  0  0  0  0
 46 47  1  0  0  0  0
 48 47  1  0  0  0  0
 49 43  1  0  0  0  0
 50 49  1  0  0  0  0
 50 55  1  0  0  0  0
 51 50  2  0  0  0  0
 52 51  1  0  0  0  0
 52 53  2  0  0  0  0
 53 54  1  0  0  0  0
 54 55  2  0  0  0  0
 55 56  1  0  0  0  0
 57 56  1  0  0  0  0
M  END
>  <MODEL>
1

>  <REMARK>
 VINA RESULT:   -12.019      0.000      0.000
 INTER + INTRA:         -23.273
 INTER:                 -19.907
 INTRA:                  -3.366
 UNBOUND:                -2.471
  Name = 
  16 active torsions:
  status: ('A' for Active; 'I' for Inactive)
    1  A    between atoms: C_1  and  O_2
    2  A    between atoms: O_2  and  C_3
    3  A    between atoms: C_4  and  C_5
    4  A    between atoms: C_5  and  C_6
    5  A    between atoms: C_8  and  C_13
    6  A    between atoms: C_11  and  O_12
    7  A    between atoms: C_13  and  C_14
    8  A    between atoms: C_19  and  O_20
    9  A    between atoms: C_21  and  O_22
   10  A    between atoms: C_25  and  C_26
   11  A    between atoms: C_26  and  C_27
   12  A    between atoms: C_29  and  C_34
   13  A    between atoms: C_32  and  O_33
   14  A    between atoms: C_34  and  C_35
   15  A    between atoms: C_40  and  O_41
   16  A    between atoms: C_43  and  C_47
                            x       y       z     vdW  Elec       q    Type
                         _______ _______ _______ _____ _____    ______ ____

>  <TORSDO>
F 15

$$$$
=
 OpenBabel08112514243D

 57 63  0  0  1  0  0  0  0  0999 V2000
   87.2500   50.9390   44.1710 C   0  0  0  0  0  0  0  0  0  0  0  0
   88.0170   51.5290   43.1410 C   0  0  0  0  0  0  0  0  0  0  0  0
   88.7710   50.7090   42.2740 C   0  0  0  0  0  0  0  0  0  0  0  0
   88.7340   49.2990   42.4210 C   0  0  0  0  0  0  0  0  0  0  0  0
   87.8230   48.7300   43.3340 C   0  0  0  0  0  0  0  0  0  0  0  0
   87.1010   49.5400   44.2290 C   0  0  0  0  0  0  0  0  0  0  0  0
   87.6510   47.3380   43.3610 O   0  0  0  0  0  0  0  0  0  0  0  0
   88.1150   46.4960   42.3080 C   0  0  1  0  0  3  0  0  0  0  0  0
   89.5480   46.8800   41.9250 C   0  0  0  0  0  2  0  0  0  0  0  0
   89.6570   48.3650   41.7110 C   0  0  0  0  0  0  0  0  0  0  0  0
   90.6290   48.7900   41.0330 O   0  0  0  0  0  0  0  0  0  0  0  0
   88.0420   45.0450   42.7240 C   0  0  0  0  0  0  0  0  0  0  0  0
   89.0270   44.5010   43.5640 C   0  0  0  0  0  3  0  0  0  0  0  0
   88.9380   43.1710   43.9910 C   0  0  0  0  0  3  0  0  0  0  0  0
   87.8600   42.3790   43.5890 C   0  0  0  0  0  3  0  0  0  0  0  0
   86.8690   42.9130   42.7620 C   0  0  0  0  0  3  0  0  0  0  0  0
   86.9520   44.2420   42.3360 C   0  0  0  0  0  3  0  0  0  0  0  0
   87.2580   52.1170   46.3350 C   0  0  0  0  0  1  0  0  0  0  0  0
   86.6090   51.7360   45.1260 O   0  0  0  0  0  0  0  0  0  0  0  0
   89.5190   51.3280   41.2680 O   0  0  0  0  0  0  0  0  0  0  0  0
   89.5390   52.2630   41.2070 H   0  0  0  0  0  0  0  0  0  0  0  0
   87.9400   53.0230   42.8760 C   0  0  0  0  0  2  0  0  0  0  0  0
   86.5860   53.3980   42.3170 C   0  0  0  0  0  0  0  0  0  0  0  0
   85.6490   54.0440   43.1390 C   0  0  0  0  0  3  0  0  0  0  0  0
   84.4180   54.4750   42.6240 C   0  0  0  0  0  0  0  0  0  0  0  0
   84.1070   54.2180   41.2800 C   0  0  0  0  0  3  0  0  0  0  0  0
   85.0220   53.5560   40.4590 C   0  0  0  0  0  3  0  0  0  0  0  0
   86.2650   53.1540   40.9660 C   0  0  0  0  0  0  0  0  0  0  0  0
   87.1800   52.5120   40.1310 O   0  0  0  0  0  0  0  0  0  0  0  0
   86.9520   51.7000   39.7240 H   0  0  0  0  0  0  0  0  0  0  0  0
   83.4770   55.2630   43.4980 C   0  0  0  0  0  2  0  0  0  0  0  0
   84.2590   56.1490   44.4450 C   0  0  0  0  0  0  0  0  0  0  0  0
   84.5950   57.4520   44.0260 C   0  0  0  0  0  3  0  0  0  0  0  0
   85.2510   58.3340   44.8880 C   0  0  0  0  0  3  0  0  0  0  0  0
   85.5760   57.9310   46.1840 C   0  0  0  0  0  3  0  0  0  0  0  0
   85.2510   56.6450   46.6170 C   0  0  0  0  0  3  0  0  0  0  0  0
   84.5970   55.7460   45.7630 C   0  0  0  0  0  0  0  0  0  0  0  0
   84.3110   54.4730   46.2620 O   0  0  0  0  0  0  0  0  0  0  0  0
   84.0660   53.7850   45.6750 H   0  0  0  0  0  0  0  0  0  0  0  0
   86.1430   48.9130   45.2260 C   0  0  0  0  0  2  0  0  0  0  0  0
   84.9050   48.3310   44.5760 C   0  0  0  0  0  0  0  0  0  0  0  0
   83.9350   49.2000   44.0350 C   0  0  0  0  0  3  0  0  0  0  0  0
   82.8120   48.6940   43.3570 C   0  0  0  0  0  0  0  0  0  0  0  0
   82.6630   47.3070   43.2180 C   0  0  0  0  0  3  0  0  0  0  0  0
   83.6130   46.4380   43.7540 C   0  0  0  0  0  3  0  0  0  0  0  0
   84.7410   46.9380   44.4170 C   0  0  0  0  0  0  0  0  0  0  0  0
   85.7000   46.0510   44.9020 O   0  0  0  0  0  0  0  0  0  0  0  0
   86.0380   45.3760   44.3470 H   0  0  0  0  0  0  0  0  0  0  0  0
   81.8180   49.6300   42.7130 C   0  0  0  0  0  2  0  0  0  0  0  0
   80.5190   49.6700   43.4790 C   0  0  0  0  0  0  0  0  0  0  0  0
   80.1290   48.5600   44.2530 C   0  0  0  0  0  3  0  0  0  0  0  0
   78.9440   48.5920   44.9940 C   0  0  0  0  0  3  0  0  0  0  0  0
   78.1330   49.7280   44.9670 C   0  0  0  0  0  3  0  0  0  0  0  0
   78.5080   50.8380   44.2020 C   0  0  0  0  0  3  0  0  0  0  0  0
   79.7010   50.8180   43.4600 C   0  0  0  0  0  0  0  0  0  0  0  0
   80.0720   51.9290   42.7050 O   0  0  0  0  0  0  0  0  0  0  0  0
   79.7670   52.7820   42.9450 H   0  0  0  0  0  0  0  0  0  0  0  0
  1  6  1  0  0  0  0
  1 19  1  0  0  0  0
  2  1  2  0  0  0  0
  3  4  2  0  0  0  0
  3  2  1  0  0  0  0
  4  5  1  0  0  0  0
  5  7  1  0  0  0  0
  5  6  2  0  0  0  0
  6 40  1  0  0  0  0
  8 12  1  1  0  0  0
  8  7  1  0  0  0  0
  9  8  1  0  0  0  0
 10  9  1  0  0  0  0
 10  4  1  0  0  0  0
 11 10  2  0  0  0  0
 12 13  1  0  0  0  0
 13 14  2  0  0  0  0
 15 14  1  0  0  0  0
 16 15  2  0  0  0  0
 17 12  2  0  0  0  0
 17 16  1  0  0  0  0
 19 18  1  0  0  0  0
 20  3  1  0  0  0  0
 21 20  1  0  0  0  0
 22  2  1  0  0  0  0
 23 22  1  0  0  0  0
 23 24  1  0  0  0  0
 25 24  2  0  0  0  0
 25 31  1  0  0  0  0
 26 25  1  0  0  0  0
 27 28  1  0  0  0  0
 27 26  2  0  0  0  0
 28 23  2  0  0  0  0
 29 28  1  0  0  0  0
 30 29  1  0  0  0  0
 31 32  1  0  0  0  0
 32 37  1  0  0  0  0
 33 32  2  0  0  0  0
 33 34  1  0  0  0  0
 34 35  2  0  0  0  0
 35 36  1  0  0  0  0
 37 38  1  0  0  0  0
 37 36  2  0  0  0  0
 39 38  1  0  0  0  0
 41 40  1  0  0  0  0
 42 41  2  0  0  0  0
 43 42  1  0  0  0  0
 44 43  2  0  0  0  0
 44 45  1  0  0  0  0
 45 46  2  0  0  0  0
 46 41  1  0  0  0  0
 46 47  1  0  0  0  0
 48 47  1  0  0  0  0
 49 43  1  0  0  0  0
 49 50  1  0  0  0  0
 50 51  1  0  0  0  0
 51 52  2  0  0  0  0
 53 52  1  0  0  0  0
 54 53  2  0  0  0  0
 55 50  2  0  0  0  0
 55 54  1  0  0  0  0
 56 57  1  0  0  0  0
 56 55  1  0  0  0  0
M  END
>  <MODEL>
2

>  <REMARK>
 VINA RESULT:   -11.708      2.107      6.574
 INTER + INTRA:         -22.735
 INTER:                 -19.604
 INTRA:                  -3.131
 UNBOUND:                -2.471
  Name = 
  16 active torsions:
  status: ('A' for Active; 'I' for Inactive)
    1  A    between atoms: C_1  and  O_2
    2  A    between atoms: O_2  and  C_3
    3  A    between atoms: C_4  and  C_5
    4  A    between atoms: C_5  and  C_6
    5  A    between atoms: C_8  and  C_13
    6  A    between atoms: C_11  and  O_12
    7  A    between atoms: C_13  and  C_14
    8  A    between atoms: C_19  and  O_20
    9  A    between atoms: C_21  and  O_22
   10  A    between atoms: C_25  and  C_26
   11  A    between atoms: C_26  and  C_27
   12  A    between atoms: C_29  and  C_34
   13  A    between atoms: C_32  and  O_33
   14  A    between atoms: C_34  and  C_35
   15  A    between atoms: C_40  and  O_41
   16  A    between atoms: C_43  and  C_47
                            x       y       z     vdW  Elec       q    Type
                         _______ _______ _______ _____ _____    ______ ____

>  <TORSDO>
F 15

$$$$
=
 OpenBabel08112514243D

 57 63  0  0  1  0  0  0  0  0999 V2000
   86.0170   50.1890   44.4930 C   0  0  0  0  0  0  0  0  0  0  0  0
   85.1580   49.0930   44.7330 C   0  0  0  0  0  0  0  0  0  0  0  0
   83.8270   49.1310   44.2620 C   0  0  0  0  0  0  0  0  0  0  0  0
   83.3680   50.2530   43.5260 C   0  0  0  0  0  0  0  0  0  0  0  0
   84.2930   51.2460   43.1450 C   0  0  0  0  0  0  0  0  0  0  0  0
   85.6080   51.2360   43.6450 C   0  0  0  0  0  0  0  0  0  0  0  0
   83.8900   52.2660   42.2700 O   0  0  0  0  0  0  0  0  0  0  0  0
   82.6900   52.1780   41.5040 C   0  0  1  0  0  3  0  0  0  0  0  0
   81.5360   51.7100   42.3950 C   0  0  0  0  0  2  0  0  0  0  0  0
   81.9350   50.4910   43.1810 C   0  0  0  0  0  0  0  0  0  0  0  0
   81.0180   49.7670   43.6490 O   0  0  0  0  0  0  0  0  0  0  0  0
   82.3720   53.5120   40.8700 C   0  0  0  0  0  0  0  0  0  0  0  0
   83.3320   54.1650   40.0790 C   0  0  0  0  0  3  0  0  0  0  0  0
   83.0260   55.3770   39.4500 C   0  0  0  0  0  3  0  0  0  0  0  0
   81.7570   55.9410   39.6000 C   0  0  0  0  0  3  0  0  0  0  0  0
   80.7900   55.2950   40.3760 C   0  0  0  0  0  3  0  0  0  0  0  0
   81.0920   54.0820   41.0030 C   0  0  0  0  0  3  0  0  0  0  0  0
   87.4780   50.5790   46.4390 C   0  0  0  0  0  1  0  0  0  0  0  0
   87.2910   50.2330   45.0700 O   0  0  0  0  0  0  0  0  0  0  0  0
   83.0060   48.0300   44.5200 O   0  0  0  0  0  0  0  0  0  0  0  0
   82.6640   47.5240   43.8090 H   0  0  0  0  0  0  0  0  0  0  0  0
   85.6830   47.8230   45.3820 C   0  0  0  0  0  2  0  0  0  0  0  0
   85.9950   46.7780   44.3340 C   0  0  0  0  0  0  0  0  0  0  0  0
   87.0540   46.9880   43.4360 C   0  0  0  0  0  3  0  0  0  0  0  0
   87.4170   46.0010   42.5090 C   0  0  0  0  0  0  0  0  0  0  0  0
   86.6820   44.8070   42.4530 C   0  0  0  0  0  3  0  0  0  0  0  0
   85.6110   44.5970   43.3260 C   0  0  0  0  0  3  0  0  0  0  0  0
   85.2710   45.5700   44.2740 C   0  0  0  0  0  0  0  0  0  0  0  0
   84.2130   45.3410   45.1550 O   0  0  0  0  0  0  0  0  0  0  0  0
   83.4210   45.8330   45.0730 H   0  0  0  0  0  0  0  0  0  0  0  0
   88.6250   46.2060   41.6330 C   0  0  0  0  0  2  0  0  0  0  0  0
   89.4840   47.3280   42.1790 C   0  0  0  0  0  0  0  0  0  0  0  0
   90.5390   47.0040   43.0540 C   0  0  0  0  0  3  0  0  0  0  0  0
   91.4050   47.9920   43.5270 C   0  0  0  0  0  3  0  0  0  0  0  0
   91.2350   49.3180   43.1280 C   0  0  0  0  0  3  0  0  0  0  0  0
   90.1960   49.6590   42.2610 C   0  0  0  0  0  3  0  0  0  0  0  0
   89.3150   48.6800   41.7810 C   0  0  0  0  0  0  0  0  0  0  0  0
   88.2930   49.0950   40.9240 O   0  0  0  0  0  0  0  0  0  0  0  0
   87.8000   49.8670   41.1220 H   0  0  0  0  0  0  0  0  0  0  0  0
   86.5870   52.3260   43.2480 C   0  0  0  0  0  2  0  0  0  0  0  0
   86.2320   53.6820   43.8220 C   0  0  0  0  0  0  0  0  0  0  0  0
   86.3280   53.8910   45.2120 C   0  0  0  0  0  3  0  0  0  0  0  0
   86.0800   55.1570   45.7700 C   0  0  0  0  0  0  0  0  0  0  0  0
   85.7370   56.2220   44.9260 C   0  0  0  0  0  3  0  0  0  0  0  0
   85.6320   56.0260   43.5500 C   0  0  0  0  0  3  0  0  0  0  0  0
   85.8930   54.7700   42.9880 C   0  0  0  0  0  0  0  0  0  0  0  0
   85.8280   54.6100   41.6050 O   0  0  0  0  0  0  0  0  0  0  0  0
   85.9700   53.7670   41.2230 H   0  0  0  0  0  0  0  0  0  0  0  0
   86.2620   55.3930   47.2500 C   0  0  0  0  0  2  0  0  0  0  0  0
   85.4050   54.4590   48.0690 C   0  0  0  0  0  0  0  0  0  0  0  0
   85.9110   53.2020   48.4530 C   0  0  0  0  0  3  0  0  0  0  0  0
   85.1430   52.3370   49.2370 C   0  0  0  0  0  3  0  0  0  0  0  0
   83.8600   52.7130   49.6420 C   0  0  0  0  0  3  0  0  0  0  0  0
   83.3450   53.9580   49.2670 C   0  0  0  0  0  3  0  0  0  0  0  0
   84.1120   54.8380   48.4850 C   0  0  0  0  0  0  0  0  0  0  0  0
   83.5960   56.0810   48.1200 O   0  0  0  0  0  0  0  0  0  0  0  0
   84.1600   56.7330   47.7550 H   0  0  0  0  0  0  0  0  0  0  0  0
  1  2  1  0  0  0  0
  1 19  1  0  0  0  0
  2 22  1  0  0  0  0
  3 20  1  0  0  0  0
  3  2  2  0  0  0  0
  4  3  1  0  0  0  0
  5  4  2  0  0  0  0
  5  6  1  0  0  0  0
  6  1  2  0  0  0  0
  7  5  1  0  0  0  0
  8 12  1  1  0  0  0
  8  7  1  0  0  0  0
  8  9  1  0  0  0  0
  9 10  1  0  0  0  0
 10  4  1  0  0  0  0
 10 11  2  0  0  0  0
 12 17  1  0  0  0  0
 13 12  2  0  0  0  0
 14 15  2  0  0  0  0
 14 13  1  0  0  0  0
 15 16  1  0  0  0  0
 16 17  2  0  0  0  0
 19 18  1  0  0  0  0
 21 20  1  0  0  0  0
 23 22  1  0  0  0  0
 24 23  2  0  0  0  0
 25 24  1  0  0  0  0
 26 25  2  0  0  0  0
 26 27  1  0  0  0  0
 27 28  2  0  0  0  0
 28 23  1  0  0  0  0
 28 29  1  0  0  0  0
 30 29  1  0  0  0  0
 31 32  1  0  0  0  0
 31 25  1  0  0  0  0
 32 33  1  0  0  0  0
 33 34  2  0  0  0  0
 35 34  1  0  0  0  0
 36 35  2  0  0  0  0
 37 32  2  0  0  0  0
 37 36  1  0  0  0  0
 38 39  1  0  0  0  0
 38 37  1  0  0  0  0
 40  6  1  0  0  0  0
 40 41  1  0  0  0  0
 41 42  1  0  0  0  0
 42 43  2  0  0  0  0
 43 49  1  0  0  0  0
 44 43  1  0  0  0  0
 45 44  2  0  0  0  0
 46 45  1  0  0  0  0
 46 41  2  0  0  0  0
 47 46  1  0  0  0  0
 48 47  1  0  0  0  0
 49 50  1  0  0  0  0
 50 51  2  0  0  0  0
 50 55  1  0  0  0  0
 51 52  1  0  0  0  0
 52 53  2  0  0  0  0
 54 53  1  0  0  0  0
 55 54  2  0  0  0  0
 56 55  1  0  0  0  0
 57 56  1  0  0  0  0
M  END
>  <MODEL>
3

>  <REMARK>
 VINA RESULT:   -11.343      1.918      8.364
 INTER + INTRA:         -22.104
 INTER:                 -18.445
 INTRA:                  -3.660
 UNBOUND:                -2.471
  Name = 
  16 active torsions:
  status: ('A' for Active; 'I' for Inactive)
    1  A    between atoms: C_1  and  O_2
    2  A    between atoms: O_2  and  C_3
    3  A    between atoms: C_4  and  C_5
    4  A    between atoms: C_5  and  C_6
    5  A    between atoms: C_8  and  C_13
    6  A    between atoms: C_11  and  O_12
    7  A    between atoms: C_13  and  C_14
    8  A    between atoms: C_19  and  O_20
    9  A    between atoms: C_21  and  O_22
   10  A    between atoms: C_25  and  C_26
   11  A    between atoms: C_26  and  C_27
   12  A    between atoms: C_29  and  C_34
   13  A    between atoms: C_32  and  O_33
   14  A    between atoms: C_34  and  C_35
   15  A    between atoms: C_40  and  O_41
   16  A    between atoms: C_43  and  C_47
                            x       y       z     vdW  Elec       q    Type
                         _______ _______ _______ _____ _____    ______ ____

>  <TORSDO>
F 15

$$$$
=
 OpenBabel08112514243D

 57 63  0  0  1  0  0  0  0  0999 V2000
   85.5040   53.4660   43.9090 C   0  0  0  0  0  0  0  0  0  0  0  0
   84.7200   54.4110   43.2080 C   0  0  0  0  0  0  0  0  0  0  0  0
   83.4590   54.0320   42.6980 C   0  0  0  0  0  0  0  0  0  0  0  0
   82.9720   52.7190   42.9150 C   0  0  0  0  0  0  0  0  0  0  0  0
   83.6880   51.8560   43.7700 C   0  0  0  0  0  0  0  0  0  0  0  0
   84.9630   52.2110   44.2470 C   0  0  0  0  0  0  0  0  0  0  0  0
   83.1280   50.6220   44.1330 O   0  0  0  0  0  0  0  0  0  0  0  0
   81.7460   50.3290   43.9360 C   0  0  1  0  0  3  0  0  0  0  0  0
   81.3190   50.7490   42.5260 C   0  0  0  0  0  2  0  0  0  0  0  0
   81.7670   52.1550   42.2360 C   0  0  0  0  0  0  0  0  0  0  0  0
   81.1840   52.7780   41.3110 O   0  0  0  0  0  0  0  0  0  0  0  0
   81.4830   48.8580   44.1600 C   0  0  0  0  0  0  0  0  0  0  0  0
   82.2900   47.8940   43.5330 C   0  0  0  0  0  3  0  0  0  0  0  0
   82.0810   46.5310   43.7740 C   0  0  0  0  0  3  0  0  0  0  0  0
   81.0730   46.1230   44.6500 C   0  0  0  0  0  3  0  0  0  0  0  0
   80.2720   47.0730   45.2880 C   0  0  0  0  0  3  0  0  0  0  0  0
   80.4790   48.4360   45.0520 C   0  0  0  0  0  3  0  0  0  0  0  0
   87.8510   53.9590   43.3430 C   0  0  0  0  0  1  0  0  0  0  0  0
   86.8110   53.7760   44.2990 O   0  0  0  0  0  0  0  0  0  0  0  0
   82.7130   54.9930   42.0080 O   0  0  0  0  0  0  0  0  0  0  0  0
   82.1250   55.5530   42.4750 H   0  0  0  0  0  0  0  0  0  0  0  0
   85.1620   55.8610   43.1050 C   0  0  0  0  0  2  0  0  0  0  0  0
   84.8220   56.6140   44.3730 C   0  0  0  0  0  0  0  0  0  0  0  0
   84.1880   55.9440   45.4310 C   0  0  0  0  0  3  0  0  0  0  0  0
   83.9360   56.5960   46.6460 C   0  0  0  0  0  0  0  0  0  0  0  0
   84.2860   57.9470   46.7860 C   0  0  0  0  0  3  0  0  0  0  0  0
   84.8960   58.6310   45.7320 C   0  0  0  0  0  3  0  0  0  0  0  0
   85.1770   57.9690   44.5290 C   0  0  0  0  0  0  0  0  0  0  0  0
   85.8070   58.6560   43.4910 O   0  0  0  0  0  0  0  0  0  0  0  0
   86.1360   58.1850   42.7500 H   0  0  0  0  0  0  0  0  0  0  0  0
   83.3550   55.8230   47.8020 C   0  0  0  0  0  2  0  0  0  0  0  0
   84.1760   54.5780   48.0660 C   0  0  0  0  0  0  0  0  0  0  0  0
   85.5510   54.6000   47.7570 C   0  0  0  0  0  3  0  0  0  0  0  0
   86.3660   53.5040   48.0480 C   0  0  0  0  0  3  0  0  0  0  0  0
   85.8240   52.3730   48.6590 C   0  0  0  0  0  3  0  0  0  0  0  0
   84.4640   52.3330   48.9720 C   0  0  0  0  0  3  0  0  0  0  0  0
   83.6310   53.4220   48.6820 C   0  0  0  0  0  0  0  0  0  0  0  0
   82.2800   53.3090   49.0170 O   0  0  0  0  0  0  0  0  0  0  0  0
   81.7310   54.0690   49.0120 H   0  0  0  0  0  0  0  0  0  0  0  0
   85.7360   51.2610   45.1440 C   0  0  0  0  0  2  0  0  0  0  0  0
   86.5320   50.2290   44.3730 C   0  0  0  0  0  0  0  0  0  0  0  0
   87.6960   50.6270   43.6850 C   0  0  0  0  0  3  0  0  0  0  0  0
   88.5000   49.6820   43.0240 C   0  0  0  0  0  0  0  0  0  0  0  0
   88.1350   48.3290   43.0560 C   0  0  0  0  0  3  0  0  0  0  0  0
   86.9830   47.9250   43.7280 C   0  0  0  0  0  3  0  0  0  0  0  0
   86.1870   48.8600   44.4020 C   0  0  0  0  0  0  0  0  0  0  0  0
   85.0660   48.4250   45.1060 O   0  0  0  0  0  0  0  0  0  0  0  0
   84.9740   47.5200   45.3290 H   0  0  0  0  0  0  0  0  0  0  0  0
   89.7870   50.1030   42.3550 C   0  0  0  0  0  2  0  0  0  0  0  0
   89.5610   51.2400   41.3880 C   0  0  0  0  0  0  0  0  0  0  0  0
   90.4720   52.3140   41.3480 C   0  0  0  0  0  3  0  0  0  0  0  0
   90.2960   53.3600   40.4370 C   0  0  0  0  0  3  0  0  0  0  0  0
   89.2080   53.3490   39.5620 C   0  0  0  0  0  3  0  0  0  0  0  0
   88.2960   52.2890   39.5920 C   0  0  0  0  0  3  0  0  0  0  0  0
   88.4680   51.2290   40.4980 C   0  0  0  0  0  0  0  0  0  0  0  0
   87.5600   50.1720   40.5180 O   0  0  0  0  0  0  0  0  0  0  0  0
   87.2610   49.8280   41.3360 H   0  0  0  0  0  0  0  0  0  0  0  0
  1  6  1  0  0  0  0
  1 19  1  0  0  0  0
  2  1  2  0  0  0  0
  3  4  2  0  0  0  0
  3  2  1  0  0  0  0
  4  5  1  0  0  0  0
  5  7  1  0  0  0  0
  5  6  2  0  0  0  0
  6 40  1  0  0  0  0
  8  7  1  0  0  0  0
  8 12  1  6  0  0  0
  9  8  1  0  0  0  0
 10  9  1  0  0  0  0
 10  4  1  0  0  0  0
 11 10  2  0  0  0  0
 12 17  1  0  0  0  0
 13 14  1  0  0  0  0
 13 12  2  0  0  0  0
 14 15  2  0  0  0  0
 15 16  1  0  0  0  0
 17 16  2  0  0  0  0
 18 19  1  0  0  0  0
 20 21  1  0  0  0  0
 20  3  1  0  0  0  0
 22  2  1  0  0  0  0
 22 23  1  0  0  0  0
 23 28  2  0  0  0  0
 23 24  1  0  0  0  0
 24 25  2  0  0  0  0
 25 26  1  0  0  0  0
 25 31  1  0  0  0  0
 27 26  2  0  0  0  0
 28 27  1  0  0  0  0
 29 28  1  0  0  0  0
 30 29  1  0  0  0  0
 31 32  1  0  0  0  0
 32 37  1  0  0  0  0
 33 34  1  0  0  0  0
 33 32  2  0  0  0  0
 34 35  2  0  0  0  0
 35 36  1  0  0  0  0
 37 36  2  0  0  0  0
 37 38  1  0  0  0  0
 39 38  1  0  0  0  0
 41 46  1  0  0  0  0
 41 40  1  0  0  0  0
 42 41  2  0  0  0  0
 43 44  2  0  0  0  0
 43 42  1  0  0  0  0
 44 45  1  0  0  0  0
 45 46  2  0  0  0  0
 46 47  1  0  0  0  0
 47 48  1  0  0  0  0
 49 43  1  0  0  0  0
 50 49  1  0  0  0  0
 51 50  1  0  0  0  0
 52 51  2  0  0  0  0
 53 54  2  0  0  0  0
 53 52  1  0  0  0  0
 54 55  1  0  0  0  0
 55 56  1  0  0  0  0
 55 50  2  0  0  0  0
 56 57  1  0  0  0  0
M  END
>  <MODEL>
4

>  <REMARK>
 VINA RESULT:   -11.319      1.457      2.054
 INTER + INTRA:         -22.063
 INTER:                 -19.088
 INTRA:                  -2.975
 UNBOUND:                -2.471
  Name = 
  16 active torsions:
  status: ('A' for Active; 'I' for Inactive)
    1  A    between atoms: C_1  and  O_2
    2  A    between atoms: O_2  and  C_3
    3  A    between atoms: C_4  and  C_5
    4  A    between atoms: C_5  and  C_6
    5  A    between atoms: C_8  and  C_13
    6  A    between atoms: C_11  and  O_12
    7  A    between atoms: C_13  and  C_14
    8  A    between atoms: C_19  and  O_20
    9  A    between atoms: C_21  and  O_22
   10  A    between atoms: C_25  and  C_26
   11  A    between atoms: C_26  and  C_27
   12  A    between atoms: C_29  and  C_34
   13  A    between atoms: C_32  and  O_33
   14  A    between atoms: C_34  and  C_35
   15  A    between atoms: C_40  and  O_41
   16  A    between atoms: C_43  and  C_47
                            x       y       z     vdW  Elec       q    Type
                         _______ _______ _______ _____ _____    ______ ____

>  <TORSDO>
F 15

$$$$
=
 OpenBabel08112514243D

 57 63  0  0  1  0  0  0  0  0999 V2000
   88.2610   52.1560   42.1810 C   0  0  0  0  0  0  0  0  0  0  0  0
   88.4980   50.7980   42.4940 C   0  0  0  0  0  0  0  0  0  0  0  0
   88.0700   50.2830   43.7380 C   0  0  0  0  0  0  0  0  0  0  0  0
   87.3820   51.1190   44.6530 C   0  0  0  0  0  0  0  0  0  0  0  0
   86.9980   52.4120   44.2430 C   0  0  0  0  0  0  0  0  0  0  0  0
   87.4570   52.9460   43.0240 C   0  0  0  0  0  0  0  0  0  0  0  0
   86.1660   53.1810   45.0700 O   0  0  0  0  0  0  0  0  0  0  0  0
   85.4370   52.6080   46.1530 C   0  0  1  0  0  3  0  0  0  0  0  0
   86.3510   51.6890   46.9700 C   0  0  0  0  0  2  0  0  0  0  0  0
   87.0890   50.7400   46.0670 C   0  0  0  0  0  0  0  0  0  0  0  0
   87.5650   49.6930   46.5780 O   0  0  0  0  0  0  0  0  0  0  0  0
   84.8510   53.6950   47.0250 C   0  0  0  0  0  0  0  0  0  0  0  0
   84.6810   54.9930   46.5170 C   0  0  0  0  0  3  0  0  0  0  0  0
   84.0950   55.9910   47.3030 C   0  0  0  0  0  3  0  0  0  0  0  0
   83.6660   55.6970   48.6000 C   0  0  0  0  0  3  0  0  0  0  0  0
   83.8200   54.4060   49.1120 C   0  0  0  0  0  3  0  0  0  0  0  0
   84.4030   53.4050   48.3280 C   0  0  0  0  0  3  0  0  0  0  0  0
   90.1590   53.1360   40.9530 C   0  0  0  0  0  1  0  0  0  0  0  0
   88.7980   52.7220   41.0200 O   0  0  0  0  0  0  0  0  0  0  0  0
   88.3230   48.9360   44.0140 O   0  0  0  0  0  0  0  0  0  0  0  0
   87.6280   48.3780   44.3010 H   0  0  0  0  0  0  0  0  0  0  0  0
   89.0930   49.8570   41.4610 C   0  0  0  0  0  2  0  0  0  0  0  0
   89.3760   48.5020   42.0730 C   0  0  0  0  0  0  0  0  0  0  0  0
   88.4480   47.4600   41.9140 C   0  0  0  0  0  3  0  0  0  0  0  0
   88.7210   46.1740   42.4000 C   0  0  0  0  0  0  0  0  0  0  0  0
   89.9200   45.9410   43.0900 C   0  0  0  0  0  3  0  0  0  0  0  0
   90.8400   46.9760   43.2750 C   0  0  0  0  0  3  0  0  0  0  0  0
   90.5800   48.2530   42.7600 C   0  0  0  0  0  0  0  0  0  0  0  0
   91.5160   49.2740   42.9320 O   0  0  0  0  0  0  0  0  0  0  0  0
   92.4040   49.0640   43.1460 H   0  0  0  0  0  0  0  0  0  0  0  0
   87.7600   45.0490   42.1190 C   0  0  0  0  0  2  0  0  0  0  0  0
   86.4940   45.2260   42.9320 C   0  0  0  0  0  0  0  0  0  0  0  0
   85.4630   46.0300   42.4060 C   0  0  0  0  0  3  0  0  0  0  0  0
   84.2480   46.1660   43.0810 C   0  0  0  0  0  3  0  0  0  0  0  0
   84.0410   45.4970   44.2870 C   0  0  0  0  0  3  0  0  0  0  0  0
   85.0500   44.6950   44.8230 C   0  0  0  0  0  3  0  0  0  0  0  0
   86.2770   44.5520   44.1620 C   0  0  0  0  0  0  0  0  0  0  0  0
   87.2430   43.7410   44.7610 O   0  0  0  0  0  0  0  0  0  0  0  0
   87.4030   42.8790   44.4280 H   0  0  0  0  0  0  0  0  0  0  0  0
   87.0590   54.3500   42.6070 C   0  0  0  0  0  2  0  0  0  0  0  0
   85.5600   54.5310   42.4790 C   0  0  0  0  0  0  0  0  0  0  0  0
   84.7730   53.4590   42.0130 C   0  0  0  0  0  3  0  0  0  0  0  0
   83.3720   53.5660   41.9540 C   0  0  0  0  0  0  0  0  0  0  0  0
   82.7580   54.7550   42.3690 C   0  0  0  0  0  3  0  0  0  0  0  0
   83.5270   55.8250   42.8260 C   0  0  0  0  0  3  0  0  0  0  0  0
   84.9220   55.7170   42.9010 C   0  0  0  0  0  0  0  0  0  0  0  0
   85.6650   56.7830   43.4050 O   0  0  0  0  0  0  0  0  0  0  0  0
   85.2510   57.6070   43.5700 H   0  0  0  0  0  0  0  0  0  0  0  0
   82.5290   52.3880   41.5290 C   0  0  0  0  0  2  0  0  0  0  0  0
   82.6180   51.2560   42.5240 C   0  0  0  0  0  0  0  0  0  0  0  0
   83.8550   50.9460   43.1220 C   0  0  0  0  0  3  0  0  0  0  0  0
   83.9490   49.9220   44.0680 C   0  0  0  0  0  3  0  0  0  0  0  0
   82.8130   49.1930   44.4250 C   0  0  0  0  0  3  0  0  0  0  0  0
   81.5780   49.4900   43.8380 C   0  0  0  0  0  3  0  0  0  0  0  0
   81.4720   50.5220   42.8920 C   0  0  0  0  0  0  0  0  0  0  0  0
   80.2370   50.8180   42.3160 O   0  0  0  0  0  0  0  0  0  0  0  0
   80.1640   50.9120   41.3870 H   0  0  0  0  0  0  0  0  0  0  0  0
  1  2  2  0  0  0  0
  1  6  1  0  0  0  0
  2  3  1  0  0  0  0
  3 20  1  0  0  0  0
  3  4  2  0  0  0  0
  4 10  1  0  0  0  0
  5  4  1  0  0  0  0
  5  7  1  0  0  0  0
  6  5  2  0  0  0  0
  7  8  1  0  0  0  0
  8  9  1  0  0  0  0
  8 12  1  1  0  0  0
 10 11  2  0  0  0  0
 10  9  1  0  0  0  0
 12 17  1  0  0  0  0
 13 12  2  0  0  0  0
 13 14  1  0  0  0  0
 14 15  2  0  0  0  0
 15 16  1  0  0  0  0
 17 16  2  0  0  0  0
 18 19  1  0  0  0  0
 19  1  1  0  0  0  0
 20 21  1  0  0  0  0
 22 23  1  0  0  0  0
 22  2  1  0  0  0  0
 23 28  1  0  0  0  0
 24 23  2  0  0  0  0
 24 25  1  0  0  0  0
 25 26  2  0  0  0  0
 26 27  1  0  0  0  0
 28 29  1  0  0  0  0
 28 27  2  0  0  0  0
 29 30  1  0  0  0  0
 31 25  1  0  0  0  0
 31 32  1  0  0  0  0
 32 37  1  0  0  0  0
 33 32  2  0  0  0  0
 33 34  1  0  0  0  0
 34 35  2  0  0  0  0
 35 36  1  0  0  0  0
 37 38  1  0  0  0  0
 37 36  2  0  0  0  0
 39 38  1  0  0  0  0
 40  6  1  0  0  0  0
 41 40  1  0  0  0  0
 41 46  1  0  0  0  0
 42 41  2  0  0  0  0
 43 42  1  0  0  0  0
 43 44  2  0  0  0  0
 44 45  1  0  0  0  0
 45 46  2  0  0  0  0
 46 47  1  0  0  0  0
 47 48  1  0  0  0  0
 49 43  1  0  0  0  0
 49 50  1  0  0  0  0
 50 55  2  0  0  0  0
 50 51  1  0  0  0  0
 51 52  2  0  0  0  0
 52 53  1  0  0  0  0
 54 53  2  0  0  0  0
 55 54  1  0  0  0  0
 56 55  1  0  0  0  0
 57 56  1  0  0  0  0
M  END
>  <MODEL>
5

>  <REMARK>
 VINA RESULT:   -11.285      2.038      8.400
 INTER + INTRA:         -22.004
 INTER:                 -21.416
 INTRA:                  -0.587
 UNBOUND:                -2.471
  Name = 
  16 active torsions:
  status: ('A' for Active; 'I' for Inactive)
    1  A    between atoms: C_1  and  O_2
    2  A    between atoms: O_2  and  C_3
    3  A    between atoms: C_4  and  C_5
    4  A    between atoms: C_5  and  C_6
    5  A    between atoms: C_8  and  C_13
    6  A    between atoms: C_11  and  O_12
    7  A    between atoms: C_13  and  C_14
    8  A    between atoms: C_19  and  O_20
    9  A    between atoms: C_21  and  O_22
   10  A    between atoms: C_25  and  C_26
   11  A    between atoms: C_26  and  C_27
   12  A    between atoms: C_29  and  C_34
   13  A    between atoms: C_32  and  O_33
   14  A    between atoms: C_34  and  C_35
   15  A    between atoms: C_40  and  O_41
   16  A    between atoms: C_43  and  C_47
                            x       y       z     vdW  Elec       q    Type
                         _______ _______ _______ _____ _____    ______ ____

>  <TORSDO>
F 15

$$$$
=
 OpenBabel08112514243D

 57 63  0  0  1  0  0  0  0  0999 V2000
   84.8650   52.0310   44.0200 C   0  0  0  0  0  0  0  0  0  0  0  0
   84.9540   52.9850   42.9810 C   0  0  0  0  0  0  0  0  0  0  0  0
   86.0230   52.9190   42.0610 C   0  0  0  0  0  0  0  0  0  0  0  0
   86.9830   51.8810   42.1640 C   0  0  0  0  0  0  0  0  0  0  0  0
   86.7700   50.8410   43.0910 C   0  0  0  0  0  0  0  0  0  0  0  0
   85.7330   50.9220   44.0380 C   0  0  0  0  0  0  0  0  0  0  0  0
   87.6160   49.7210   43.0800 O   0  0  0  0  0  0  0  0  0  0  0  0
   88.4820   49.4360   41.9840 C   0  0  1  0  0  3  0  0  0  0  0  0
   89.2240   50.7080   41.5610 C   0  0  0  0  0  2  0  0  0  0  0  0
   88.2600   51.8500   41.3900 C   0  0  0  0  0  0  0  0  0  0  0  0
   88.6280   52.8300   40.6910 O   0  0  0  0  0  0  0  0  0  0  0  0
   89.4580   48.3440   42.3550 C   0  0  0  0  0  0  0  0  0  0  0  0
   90.4630   48.5890   43.3060 C   0  0  0  0  0  3  0  0  0  0  0  0
   91.3400   47.5680   43.6890 C   0  0  0  0  0  3  0  0  0  0  0  0
   91.2130   46.2930   43.1320 C   0  0  0  0  0  3  0  0  0  0  0  0
   90.2100   46.0350   42.1940 C   0  0  0  0  0  3  0  0  0  0  0  0
   89.3300   47.0520   41.8110 C   0  0  0  0  0  3  0  0  0  0  0  0
   82.7010   51.3900   45.0080 C   0  0  0  0  0  1  0  0  0  0  0  0
   83.8980   52.1600   45.0230 O   0  0  0  0  0  0  0  0  0  0  0  0
   86.0800   53.8810   41.0480 O   0  0  0  0  0  0  0  0  0  0  0  0
   85.8730   54.7740   41.2390 H   0  0  0  0  0  0  0  0  0  0  0  0
   83.8480   54.0040   42.7680 C   0  0  0  0  0  2  0  0  0  0  0  0
   84.1970   55.3190   43.4310 C   0  0  0  0  0  0  0  0  0  0  0  0
   84.1660   55.4210   44.8310 C   0  0  0  0  0  3  0  0  0  0  0  0
   84.5630   56.6020   45.4740 C   0  0  0  0  0  0  0  0  0  0  0  0
   84.9550   57.7060   44.7020 C   0  0  0  0  0  3  0  0  0  0  0  0
   84.9680   57.6230   43.3070 C   0  0  0  0  0  3  0  0  0  0  0  0
   84.6020   56.4320   42.6670 C   0  0  0  0  0  0  0  0  0  0  0  0
   84.6380   56.3530   41.2750 O   0  0  0  0  0  0  0  0  0  0  0  0
   85.3850   56.6720   40.8070 H   0  0  0  0  0  0  0  0  0  0  0  0
   84.6260   56.6490   46.9780 C   0  0  0  0  0  2  0  0  0  0  0  0
   84.6470   55.2450   47.5460 C   0  0  0  0  0  0  0  0  0  0  0  0
   85.8450   54.5070   47.4730 C   0  0  0  0  0  3  0  0  0  0  0  0
   85.9380   53.2370   48.0470 C   0  0  0  0  0  3  0  0  0  0  0  0
   84.8390   52.6870   48.7080 C   0  0  0  0  0  3  0  0  0  0  0  0
   83.6440   53.4030   48.7900 C   0  0  0  0  0  3  0  0  0  0  0  0
   83.5320   54.6760   48.2160 C   0  0  0  0  0  0  0  0  0  0  0  0
   82.3040   55.3310   48.3300 O   0  0  0  0  0  0  0  0  0  0  0  0
   82.0720   56.0020   47.7180 H   0  0  0  0  0  0  0  0  0  0  0  0
   85.5310   49.8080   45.0490 C   0  0  0  0  0  2  0  0  0  0  0  0
   84.9850   48.5370   44.4320 C   0  0  0  0  0  0  0  0  0  0  0  0
   83.6350   48.4890   44.0290 C   0  0  0  0  0  3  0  0  0  0  0  0
   83.1160   47.3540   43.3830 C   0  0  0  0  0  0  0  0  0  0  0  0
   83.9570   46.2600   43.1380 C   0  0  0  0  0  3  0  0  0  0  0  0
   85.2920   46.2930   43.5390 C   0  0  0  0  0  3  0  0  0  0  0  0
   85.8190   47.4290   44.1680 C   0  0  0  0  0  0  0  0  0  0  0  0
   87.1670   47.4560   44.5160 O   0  0  0  0  0  0  0  0  0  0  0  0
   87.8240   47.4730   43.8480 H   0  0  0  0  0  0  0  0  0  0  0  0
   81.6910   47.3390   42.8830 C   0  0  0  0  0  2  0  0  0  0  0  0
   80.7700   48.0850   43.8170 C   0  0  0  0  0  0  0  0  0  0  0  0
   80.1760   49.2910   43.3960 C   0  0  0  0  0  3  0  0  0  0  0  0
   79.2960   49.9800   44.2360 C   0  0  0  0  0  3  0  0  0  0  0  0
   79.0020   49.4770   45.5050 C   0  0  0  0  0  3  0  0  0  0  0  0
   79.5860   48.2800   45.9350 C   0  0  0  0  0  3  0  0  0  0  0  0
   80.4660   47.5760   45.0960 C   0  0  0  0  0  0  0  0  0  0  0  0
   81.0380   46.3810   45.5280 O   0  0  0  0  0  0  0  0  0  0  0  0
   80.9810   46.1340   46.4300 H   0  0  0  0  0  0  0  0  0  0  0  0
  1  6  1  0  0  0  0
  1 19  1  0  0  0  0
  2  1  2  0  0  0  0
  3  4  2  0  0  0  0
  3  2  1  0  0  0  0
  4  5  1  0  0  0  0
  5  6  2  0  0  0  0
  6 40  1  0  0  0  0
  7  5  1  0  0  0  0
  8 12  1  1  0  0  0
  8  7  1  0  0  0  0
  9  8  1  0  0  0  0
 10  9  1  0  0  0  0
 10  4  1  0  0  0  0
 11 10  2  0  0  0  0
 12 13  1  0  0  0  0
 13 14  2  0  0  0  0
 15 14  1  0  0  0  0
 16 15  2  0  0  0  0
 17 16  1  0  0  0  0
 17 12  2  0  0  0  0
 18 19  1  0  0  0  0
 20 21  1  0  0  0  0
 20  3  1  0  0  0  0
 22  2  1  0  0  0  0
 22 23  1  0  0  0  0
 23 24  1  0  0  0  0
 24 25  2  0  0  0  0
 25 31  1  0  0  0  0
 26 25  1  0  0  0  0
 27 26  2  0  0  0  0
 28 27  1  0  0  0  0
 28 23  2  0  0  0  0
 29 28  1  0  0  0  0
 30 29  1  0  0  0  0
 31 32  1  0  0  0  0
 32 37  1  0  0  0  0
 33 32  2  0  0  0  0
 33 34  1  0  0  0  0
 34 35  2  0  0  0  0
 35 36  1  0  0  0  0
 37 38  1  0  0  0  0
 37 36  2  0  0  0  0
 39 38  1  0  0  0  0
 41 40  1  0  0  0  0
 42 41  2  0  0  0  0
 43 42  1  0  0  0  0
 44 43  2  0  0  0  0
 44 45  1  0  0  0  0
 45 46  2  0  0  0  0
 46 41  1  0  0  0  0
 46 47  1  0  0  0  0
 48 47  1  0  0  0  0
 49 43  1  0  0  0  0
 49 50  1  0  0  0  0
 50 55  1  0  0  0  0
 51 50  2  0  0  0  0
 51 52  1  0  0  0  0
 52 53  2  0  0  0  0
 53 54  1  0  0  0  0
 55 56  1  0  0  0  0
 55 54  2  0  0  0  0
 56 57  1  0  0  0  0
M  END
>  <MODEL>
6

>  <REMARK>
 VINA RESULT:   -10.663      1.708      6.046
 INTER + INTRA:         -20.927
 INTER:                 -17.664
 INTRA:                  -3.263
 UNBOUND:                -2.471
  Name = 
  16 active torsions:
  status: ('A' for Active; 'I' for Inactive)
    1  A    between atoms: C_1  and  O_2
    2  A    between atoms: O_2  and  C_3
    3  A    between atoms: C_4  and  C_5
    4  A    between atoms: C_5  and  C_6
    5  A    between atoms: C_8  and  C_13
    6  A    between atoms: C_11  and  O_12
    7  A    between atoms: C_13  and  C_14
    8  A    between atoms: C_19  and  O_20
    9  A    between atoms: C_21  and  O_22
   10  A    between atoms: C_25  and  C_26
   11  A    between atoms: C_26  and  C_27
   12  A    between atoms: C_29  and  C_34
   13  A    between atoms: C_32  and  O_33
   14  A    between atoms: C_34  and  C_35
   15  A    between atoms: C_40  and  O_41
   16  A    between atoms: C_43  and  C_47
                            x       y       z     vdW  Elec       q    Type
                         _______ _______ _______ _____ _____    ______ ____

>  <TORSDO>
F 15

$$$$
=
 OpenBabel08112514243D

 57 63  0  0  1  0  0  0  0  0999 V2000
   85.5370   52.6890   43.3840 C   0  0  0  0  0  0  0  0  0  0  0  0
   86.1100   53.1710   42.1850 C   0  0  0  0  0  0  0  0  0  0  0  0
   86.8740   52.3010   41.3770 C   0  0  0  0  0  0  0  0  0  0  0  0
   87.0380   50.9440   41.7540 C   0  0  0  0  0  0  0  0  0  0  0  0
   86.3080   50.4460   42.8520 C   0  0  0  0  0  0  0  0  0  0  0  0
   85.5790   51.3140   43.6860 C   0  0  0  0  0  0  0  0  0  0  0  0
   86.3250   49.0700   43.1260 O   0  0  0  0  0  0  0  0  0  0  0  0
   86.7860   48.1130   42.1740 C   0  0  1  0  0  3  0  0  0  0  0  0
   88.1090   48.5820   41.5610 C   0  0  0  0  0  2  0  0  0  0  0  0
   87.9990   50.0080   41.0970 C   0  0  0  0  0  0  0  0  0  0  0  0
   88.8330   50.4150   40.2450 O   0  0  0  0  0  0  0  0  0  0  0  0
   86.9470   46.7590   42.8260 C   0  0  0  0  0  0  0  0  0  0  0  0
   86.0000   46.3080   43.7600 C   0  0  0  0  0  3  0  0  0  0  0  0
   86.1180   45.0360   44.3300 C   0  0  0  0  0  3  0  0  0  0  0  0
   87.1770   44.2010   43.9650 C   0  0  0  0  0  3  0  0  0  0  0  0
   88.1180   44.6350   43.0280 C   0  0  0  0  0  3  0  0  0  0  0  0
   88.0020   45.9050   42.4530 C   0  0  0  0  0  3  0  0  0  0  0  0
   85.4940   54.7950   44.6620 C   0  0  0  0  0  1  0  0  0  0  0  0
   84.8970   53.5640   44.2680 O   0  0  0  0  0  0  0  0  0  0  0  0
   87.4270   52.8130   40.2000 O   0  0  0  0  0  0  0  0  0  0  0  0
   87.0130   53.5290   39.7600 H   0  0  0  0  0  0  0  0  0  0  0  0
   85.8110   54.5760   41.6930 C   0  0  0  0  0  2  0  0  0  0  0  0
   84.4270   54.6470   41.0860 C   0  0  0  0  0  0  0  0  0  0  0  0
   83.3340   54.1040   41.7820 C   0  0  0  0  0  3  0  0  0  0  0  0
   82.0310   54.2270   41.2810 C   0  0  0  0  0  0  0  0  0  0  0  0
   81.8250   54.8660   40.0480 C   0  0  0  0  0  3  0  0  0  0  0  0
   82.9080   55.3890   39.3370 C   0  0  0  0  0  3  0  0  0  0  0  0
   84.2060   55.2940   39.8540 C   0  0  0  0  0  0  0  0  0  0  0  0
   85.2770   55.8380   39.1440 O   0  0  0  0  0  0  0  0  0  0  0  0
   85.1170   56.4480   38.4510 H   0  0  0  0  0  0  0  0  0  0  0  0
   80.8660   53.7350   42.1000 C   0  0  0  0  0  2  0  0  0  0  0  0
   81.0130   52.2540   42.3820 C   0  0  0  0  0  0  0  0  0  0  0  0
   82.2070   51.6100   41.9980 C   0  0  0  0  0  3  0  0  0  0  0  0
   82.4220   50.2640   42.3020 C   0  0  0  0  0  3  0  0  0  0  0  0
   81.4540   49.5420   42.9990 C   0  0  0  0  0  3  0  0  0  0  0  0
   80.2660   50.1620   43.3890 C   0  0  0  0  0  3  0  0  0  0  0  0
   80.0310   51.5110   43.0880 C   0  0  0  0  0  0  0  0  0  0  0  0
   78.8170   52.0630   43.5020 O   0  0  0  0  0  0  0  0  0  0  0  0
   78.1150   52.1630   42.8890 H   0  0  0  0  0  0  0  0  0  0  0  0
   84.8190   50.7680   44.8810 C   0  0  0  0  0  2  0  0  0  0  0  0
   85.5090   51.0450   46.2010 C   0  0  0  0  0  0  0  0  0  0  0  0
   85.0760   52.1280   46.9930 C   0  0  0  0  0  3  0  0  0  0  0  0
   85.6420   52.3670   48.2580 C   0  0  0  0  0  0  0  0  0  0  0  0
   86.6460   51.5120   48.7320 C   0  0  0  0  0  3  0  0  0  0  0  0
   87.0870   50.4420   47.9550 C   0  0  0  0  0  3  0  0  0  0  0  0
   86.5160   50.1900   46.7000 C   0  0  0  0  0  0  0  0  0  0  0  0
   86.9400   49.0870   45.9630 O   0  0  0  0  0  0  0  0  0  0  0  0
   87.5930   49.1900   45.2990 H   0  0  0  0  0  0  0  0  0  0  0  0
   85.1200   53.4790   49.1350 C   0  0  0  0  0  2  0  0  0  0  0  0
   84.9620   54.7660   48.3610 C   0  0  0  0  0  0  0  0  0  0  0  0
   86.1050   55.4730   47.9400 C   0  0  0  0  0  3  0  0  0  0  0  0
   85.9790   56.6500   47.1970 C   0  0  0  0  0  3  0  0  0  0  0  0
   84.7120   57.1370   46.8680 C   0  0  0  0  0  3  0  0  0  0  0  0
   83.5680   56.4440   47.2800 C   0  0  0  0  0  3  0  0  0  0  0  0
   83.6850   55.2560   48.0220 C   0  0  0  0  0  0  0  0  0  0  0  0
   82.5410   54.5670   48.4230 O   0  0  0  0  0  0  0  0  0  0  0  0
   82.0790   54.0300   47.8100 H   0  0  0  0  0  0  0  0  0  0  0  0
  1  6  1  0  0  0  0
  1 19  1  0  0  0  0
  2  1  2  0  0  0  0
  3  4  2  0  0  0  0
  3  2  1  0  0  0  0
  4  5  1  0  0  0  0
  5  7  1  0  0  0  0
  5  6  2  0  0  0  0
  6 40  1  0  0  0  0
  8 12  1  1  0  0  0
  8  7  1  0  0  0  0
  9  8  1  0  0  0  0
 10  9  1  0  0  0  0
 10  4  1  0  0  0  0
 11 10  2  0  0  0  0
 12 13  1  0  0  0  0
 13 14  2  0  0  0  0
 15 14  1  0  0  0  0
 16 15  2  0  0  0  0
 17 12  2  0  0  0  0
 17 16  1  0  0  0  0
 19 18  1  0  0  0  0
 20  3  1  0  0  0  0
 21 20  1  0  0  0  0
 22  2  1  0  0  0  0
 23 22  1  0  0  0  0
 23 24  1  0  0  0  0
 25 24  2  0  0  0  0
 25 31  1  0  0  0  0
 26 25  1  0  0  0  0
 27 28  1  0  0  0  0
 27 26  2  0  0  0  0
 28 23  2  0  0  0  0
 29 28  1  0  0  0  0
 30 29  1  0  0  0  0
 31 32  1  0  0  0  0
 32 37  1  0  0  0  0
 33 34  1  0  0  0  0
 33 32  2  0  0  0  0
 34 35  2  0  0  0  0
 35 36  1  0  0  0  0
 37 36  2  0  0  0  0
 37 38  1  0  0  0  0
 39 38  1  0  0  0  0
 40 41  1  0  0  0  0
 41 46  2  0  0  0  0
 41 42  1  0  0  0  0
 42 43  2  0  0  0  0
 43 44  1  0  0  0  0
 43 49  1  0  0  0  0
 45 44  2  0  0  0  0
 46 45  1  0  0  0  0
 47 46  1  0  0  0  0
 48 47  1  0  0  0  0
 50 49  1  0  0  0  0
 51 50  2  0  0  0  0
 52 51  1  0  0  0  0
 53 52  2  0  0  0  0
 53 54  1  0  0  0  0
 54 55  2  0  0  0  0
 55 50  1  0  0  0  0
 55 56  1  0  0  0  0
 57 56  1  0  0  0  0
M  END
>  <MODEL>
7

>  <REMARK>
 VINA RESULT:   -10.517      2.041      6.659
 INTER + INTRA:         -20.674
 INTER:                 -18.564
 INTRA:                  -2.110
 UNBOUND:                -2.471
  Name = 
  16 active torsions:
  status: ('A' for Active; 'I' for Inactive)
    1  A    between atoms: C_1  and  O_2
    2  A    between atoms: O_2  and  C_3
    3  A    between atoms: C_4  and  C_5
    4  A    between atoms: C_5  and  C_6
    5  A    between atoms: C_8  and  C_13
    6  A    between atoms: C_11  and  O_12
    7  A    between atoms: C_13  and  C_14
    8  A    between atoms: C_19  and  O_20
    9  A    between atoms: C_21  and  O_22
   10  A    between atoms: C_25  and  C_26
   11  A    between atoms: C_26  and  C_27
   12  A    between atoms: C_29  and  C_34
   13  A    between atoms: C_32  and  O_33
   14  A    between atoms: C_34  and  C_35
   15  A    between atoms: C_40  and  O_41
   16  A    between atoms: C_43  and  C_47
                            x       y       z     vdW  Elec       q    Type
                         _______ _______ _______ _____ _____    ______ ____

>  <TORSDO>
F 15

$$$$
=
 OpenBabel08112514243D

 57 63  0  0  1  0  0  0  0  0999 V2000
   84.8130   51.7990   44.0540 C   0  0  0  0  0  0  0  0  0  0  0  0
   84.9550   52.8880   43.1630 C   0  0  0  0  0  0  0  0  0  0  0  0
   86.0920   52.9640   42.3280 C   0  0  0  0  0  0  0  0  0  0  0  0
   87.0690   51.9370   42.3650 C   0  0  0  0  0  0  0  0  0  0  0  0
   86.8140   50.7770   43.1240 C   0  0  0  0  0  0  0  0  0  0  0  0
   85.7060   50.7120   43.9900 C   0  0  0  0  0  0  0  0  0  0  0  0
   87.6860   49.6830   43.0290 O   0  0  0  0  0  0  0  0  0  0  0  0
   88.6400   49.5640   41.9750 C   0  0  1  0  0  3  0  0  0  0  0  0
   89.3780   50.8930   41.7860 C   0  0  0  0  0  2  0  0  0  0  0  0
   88.4010   52.0320   41.6960 C   0  0  0  0  0  0  0  0  0  0  0  0
   88.7940   53.1040   41.1660 O   0  0  0  0  0  0  0  0  0  0  0  0
   89.6140   48.4470   42.2700 C   0  0  0  0  0  0  0  0  0  0  0  0
   90.2290   48.3620   43.5300 C   0  0  0  0  0  3  0  0  0  0  0  0
   91.0940   47.3030   43.8260 C   0  0  0  0  0  3  0  0  0  0  0  0
   91.3440   46.3160   42.8680 C   0  0  0  0  0  3  0  0  0  0  0  0
   90.7290   46.3850   41.6160 C   0  0  0  0  0  3  0  0  0  0  0  0
   89.8610   47.4400   41.3180 C   0  0  0  0  0  3  0  0  0  0  0  0
   83.9290   52.3140   46.2950 C   0  0  0  0  0  1  0  0  0  0  0  0
   83.7710   51.7750   44.9870 O   0  0  0  0  0  0  0  0  0  0  0  0
   86.2000   54.0560   41.4620 O   0  0  0  0  0  0  0  0  0  0  0  0
   86.9930   54.1990   40.9850 H   0  0  0  0  0  0  0  0  0  0  0  0
   83.8420   53.9090   43.0030 C   0  0  0  0  0  2  0  0  0  0  0  0
   84.3210   55.2880   43.4020 C   0  0  0  0  0  0  0  0  0  0  0  0
   84.6690   55.5430   44.7380 C   0  0  0  0  0  3  0  0  0  0  0  0
   85.1920   56.7870   45.1190 C   0  0  0  0  0  0  0  0  0  0  0  0
   85.3280   57.7990   44.1570 C   0  0  0  0  0  3  0  0  0  0  0  0
   84.9630   57.5640   42.8290 C   0  0  0  0  0  3  0  0  0  0  0  0
   84.4710   56.3100   42.4440 C   0  0  0  0  0  0  0  0  0  0  0  0
   84.1290   56.0790   41.1110 O   0  0  0  0  0  0  0  0  0  0  0  0
   84.4460   55.3140   40.6720 H   0  0  0  0  0  0  0  0  0  0  0  0
   85.6600   56.9990   46.5350 C   0  0  0  0  0  2  0  0  0  0  0  0
   85.1160   55.9090   47.4360 C   0  0  0  0  0  0  0  0  0  0  0  0
   86.0000   54.9110   47.8940 C   0  0  0  0  0  3  0  0  0  0  0  0
   85.5650   53.9260   48.7840 C   0  0  0  0  0  3  0  0  0  0  0  0
   84.2450   53.9270   49.2370 C   0  0  0  0  0  3  0  0  0  0  0  0
   83.3560   54.9070   48.7940 C   0  0  0  0  0  3  0  0  0  0  0  0
   83.7740   55.9000   47.8970 C   0  0  0  0  0  0  0  0  0  0  0  0
   82.8280   56.8440   47.4910 O   0  0  0  0  0  0  0  0  0  0  0  0
   82.8980   57.2420   46.6460 H   0  0  0  0  0  0  0  0  0  0  0  0
   85.4580   49.4680   44.8230 C   0  0  0  0  0  2  0  0  0  0  0  0
   84.5850   48.4480   44.1210 C   0  0  0  0  0  0  0  0  0  0  0  0
   85.1910   47.4050   43.3910 C   0  0  0  0  0  3  0  0  0  0  0  0
   84.4140   46.3980   42.7930 C   0  0  0  0  0  0  0  0  0  0  0  0
   83.0190   46.4360   42.9300 C   0  0  0  0  0  3  0  0  0  0  0  0
   82.4080   47.4660   43.6440 C   0  0  0  0  0  3  0  0  0  0  0  0
   83.1790   48.4630   44.2560 C   0  0  0  0  0  0  0  0  0  0  0  0
   82.5490   49.4550   45.0040 O   0  0  0  0  0  0  0  0  0  0  0  0
   82.9780   49.8250   45.7500 H   0  0  0  0  0  0  0  0  0  0  0  0
   85.0720   45.2420   42.0800 C   0  0  0  0  0  2  0  0  0  0  0  0
   86.1970   44.6560   42.8970 C   0  0  0  0  0  0  0  0  0  0  0  0
   87.5320   44.8730   42.5060 C   0  0  0  0  0  3  0  0  0  0  0  0
   88.5880   44.3640   43.2690 C   0  0  0  0  0  3  0  0  0  0  0  0
   88.3230   43.6290   44.4260 C   0  0  0  0  0  3  0  0  0  0  0  0
   87.0010   43.4060   44.8260 C   0  0  0  0  0  3  0  0  0  0  0  0
   85.9340   43.9200   44.0700 C   0  0  0  0  0  0  0  0  0  0  0  0
   84.6190   43.6990   44.4780 O   0  0  0  0  0  0  0  0  0  0  0  0
   84.0840   44.4210   44.7450 H   0  0  0  0  0  0  0  0  0  0  0  0
  1 19  1  0  0  0  0
  2  1  2  0  0  0  0
  3  4  2  0  0  0  0
  3  2  1  0  0  0  0
  4  5  1  0  0  0  0
  5  6  2  0  0  0  0
  6  1  1  0  0  0  0
  6 40  1  0  0  0  0
  7  5  1  0  0  0  0
  8 12  1  1  0  0  0
  8  7  1  0  0  0  0
  9  8  1  0  0  0  0
 10  9  1  0  0  0  0
 10  4  1  0  0  0  0
 11 10  2  0  0  0  0
 12 13  1  0  0  0  0
 13 14  2  0  0  0  0
 15 14  1  0  0  0  0
 16 15  2  0  0  0  0
 17 16  1  0  0  0  0
 17 12  2  0  0  0  0
 19 18  1  0  0  0  0
 20  3  1  0  0  0  0
 21 20  1  0  0  0  0
 22  2  1  0  0  0  0
 22 23  1  0  0  0  0
 23 24  1  0  0  0  0
 24 25  2  0  0  0  0
 25 31  1  0  0  0  0
 26 25  1  0  0  0  0
 27 26  2  0  0  0  0
 28 27  1  0  0  0  0
 28 23  2  0  0  0  0
 29 28  1  0  0  0  0
 30 29  1  0  0  0  0
 31 32  1  0  0  0  0
 32 33  2  0  0  0  0
 32 37  1  0  0  0  0
 33 34  1  0  0  0  0
 34 35  2  0  0  0  0
 36 35  1  0  0  0  0
 37 36  2  0  0  0  0
 38 37  1  0  0  0  0
 39 38  1  0  0  0  0
 41 46  1  0  0  0  0
 41 40  1  0  0  0  0
 42 41  2  0  0  0  0
 43 44  2  0  0  0  0
 43 42  1  0  0  0  0
 44 45  1  0  0  0  0
 45 46  2  0  0  0  0
 46 47  1  0  0  0  0
 47 48  1  0  0  0  0
 49 43  1  0  0  0  0
 49 50  1  0  0  0  0
 50 55  1  0  0  0  0
 51 50  2  0  0  0  0
 51 52  1  0  0  0  0
 52 53  2  0  0  0  0
 53 54  1  0  0  0  0
 55 56  1  0  0  0  0
 55 54  2  0  0  0  0
 56 57  1  0  0  0  0
M  END
>  <MODEL>
8

>  <REMARK>
 VINA RESULT:   -10.387      1.915      5.553
 INTER + INTRA:         -20.450
 INTER:                 -17.105
 INTRA:                  -3.344
 UNBOUND:                -2.471
  Name = 
  16 active torsions:
  status: ('A' for Active; 'I' for Inactive)
    1  A    between atoms: C_1  and  O_2
    2  A    between atoms: O_2  and  C_3
    3  A    between atoms: C_4  and  C_5
    4  A    between atoms: C_5  and  C_6
    5  A    between atoms: C_8  and  C_13
    6  A    between atoms: C_11  and  O_12
    7  A    between atoms: C_13  and  C_14
    8  A    between atoms: C_19  and  O_20
    9  A    between atoms: C_21  and  O_22
   10  A    between atoms: C_25  and  C_26
   11  A    between atoms: C_26  and  C_27
   12  A    between atoms: C_29  and  C_34
   13  A    between atoms: C_32  and  O_33
   14  A    between atoms: C_34  and  C_35
   15  A    between atoms: C_40  and  O_41
   16  A    between atoms: C_43  and  C_47
                            x       y       z     vdW  Elec       q    Type
                         _______ _______ _______ _____ _____    ______ ____

>  <TORSDO>
F 15

$$$$
=
 OpenBabel08112514243D

 57 63  0  0  1  0  0  0  0  0999 V2000
   85.8810   49.0290   44.2960 C   0  0  0  0  0  0  0  0  0  0  0  0
   84.9420   48.0070   44.5680 C   0  0  0  0  0  0  0  0  0  0  0  0
   83.5820   48.2040   44.2450 C   0  0  0  0  0  0  0  0  0  0  0  0
   83.1680   49.4100   43.6240 C   0  0  0  0  0  0  0  0  0  0  0  0
   84.1460   50.3320   43.2000 C   0  0  0  0  0  0  0  0  0  0  0  0
   85.4970   50.1630   43.5550 C   0  0  0  0  0  0  0  0  0  0  0  0
   83.7630   51.4400   42.4300 O   0  0  0  0  0  0  0  0  0  0  0  0
   82.4890   51.5170   41.7940 C   0  0  1  0  0  3  0  0  0  0  0  0
   81.3880   51.1060   42.7770 C   0  0  0  0  0  2  0  0  0  0  0  0
   81.7390   49.8070   43.4480 C   0  0  0  0  0  0  0  0  0  0  0  0
   80.8040   49.1460   43.9720 O   0  0  0  0  0  0  0  0  0  0  0  0
   82.2450   52.9140   41.2710 C   0  0  0  0  0  0  0  0  0  0  0  0
   81.0360   53.5720   41.5510 C   0  0  0  0  0  3  0  0  0  0  0  0
   80.8250   54.8840   41.1100 C   0  0  0  0  0  3  0  0  0  0  0  0
   81.8230   55.5500   40.3950 C   0  0  0  0  0  3  0  0  0  0  0  0
   83.0340   54.9090   40.1200 C   0  0  0  0  0  3  0  0  0  0  0  0
   83.2500   53.6000   40.5620 C   0  0  0  0  0  3  0  0  0  0  0  0
   87.7010   49.6920   45.8180 C   0  0  0  0  0  1  0  0  0  0  0  0
   87.2040   48.9140   44.7340 O   0  0  0  0  0  0  0  0  0  0  0  0
   82.6820   47.1730   44.5290 O   0  0  0  0  0  0  0  0  0  0  0  0
   82.5850   46.8660   45.4090 H   0  0  0  0  0  0  0  0  0  0  0  0
   85.3980   46.6540   45.0860 C   0  0  0  0  0  2  0  0  0  0  0  0
   85.9850   45.8230   43.9670 C   0  0  0  0  0  0  0  0  0  0  0  0
   87.2790   46.1030   43.4990 C   0  0  0  0  0  3  0  0  0  0  0  0
   87.8790   45.2980   42.5200 C   0  0  0  0  0  0  0  0  0  0  0  0
   87.1570   44.2270   41.9740 C   0  0  0  0  0  3  0  0  0  0  0  0
   85.8600   43.9530   42.4150 C   0  0  0  0  0  3  0  0  0  0  0  0
   85.2740   44.7380   43.4170 C   0  0  0  0  0  0  0  0  0  0  0  0
   83.9860   44.4430   43.8650 O   0  0  0  0  0  0  0  0  0  0  0  0
   83.7550   43.5600   44.0770 H   0  0  0  0  0  0  0  0  0  0  0  0
   89.3080   45.5530   42.1150 C   0  0  0  0  0  2  0  0  0  0  0  0
   89.6150   47.0350   42.1810 C   0  0  0  0  0  0  0  0  0  0  0  0
   88.8780   47.9120   41.3590 C   0  0  0  0  0  3  0  0  0  0  0  0
   89.0720   49.2930   41.4350 C   0  0  0  0  0  3  0  0  0  0  0  0
   89.9970   49.8200   42.3360 C   0  0  0  0  0  3  0  0  0  0  0  0
   90.7360   48.9670   43.1580 C   0  0  0  0  0  3  0  0  0  0  0  0
   90.5580   47.5790   43.0910 C   0  0  0  0  0  0  0  0  0  0  0  0
   91.3370   46.7860   43.9370 O   0  0  0  0  0  0  0  0  0  0  0  0
   91.6400   47.1320   44.7540 H   0  0  0  0  0  0  0  0  0  0  0  0
   86.5360   51.1770   43.1140 C   0  0  0  0  0  2  0  0  0  0  0  0
   86.1270   52.6080   43.3950 C   0  0  0  0  0  0  0  0  0  0  0  0
   85.8350   52.9960   44.7180 C   0  0  0  0  0  3  0  0  0  0  0  0
   85.5270   54.3330   45.0260 C   0  0  0  0  0  0  0  0  0  0  0  0
   85.5160   55.2880   43.9990 C   0  0  0  0  0  3  0  0  0  0  0  0
   85.7970   54.9140   42.6860 C   0  0  0  0  0  3  0  0  0  0  0  0
   86.1200   53.5860   42.3770 C   0  0  0  0  0  0  0  0  0  0  0  0
   86.4440   53.2480   41.0650 O   0  0  0  0  0  0  0  0  0  0  0  0
   86.6360   53.9200   40.4410 H   0  0  0  0  0  0  0  0  0  0  0  0
   85.2920   54.7570   46.4560 C   0  0  0  0  0  2  0  0  0  0  0  0
   84.8720   56.2040   46.5410 C   0  0  0  0  0  0  0  0  0  0  0  0
   85.6090   57.1880   45.8540 C   0  0  0  0  0  3  0  0  0  0  0  0
   85.2160   58.5290   45.8970 C   0  0  0  0  0  3  0  0  0  0  0  0
   84.0880   58.9040   46.6290 C   0  0  0  0  0  3  0  0  0  0  0  0
   83.3460   57.9370   47.3170 C   0  0  0  0  0  3  0  0  0  0  0  0
   83.7290   56.5850   47.2730 C   0  0  0  0  0  0  0  0  0  0  0  0
   82.9820   55.6260   47.9540 O   0  0  0  0  0  0  0  0  0  0  0  0
   83.3860   55.1020   48.6180 H   0  0  0  0  0  0  0  0  0  0  0  0
  1  2  1  0  0  0  0
  1 19  1  0  0  0  0
  2 22  1  0  0  0  0
  3 20  1  0  0  0  0
  3  2  2  0  0  0  0
  4  3  1  0  0  0  0
  5  6  1  0  0  0  0
  5  4  2  0  0  0  0
  6  1  2  0  0  0  0
  7  5  1  0  0  0  0
  8 12  1  1  0  0  0
  8  7  1  0  0  0  0
  8  9  1  0  0  0  0
  9 10  1  0  0  0  0
 10  4  1  0  0  0  0
 10 11  2  0  0  0  0
 12 13  1  0  0  0  0
 14 13  2  0  0  0  0
 15 14  1  0  0  0  0
 16 15  2  0  0  0  0
 16 17  1  0  0  0  0
 17 12  2  0  0  0  0
 19 18  1  0  0  0  0
 20 21  1  0  0  0  0
 23 22  1  0  0  0  0
 24 23  1  0  0  0  0
 25 24  2  0  0  0  0
 26 27  2  0  0  0  0
 26 25  1  0  0  0  0
 27 28  1  0  0  0  0
 28 29  1  0  0  0  0
 28 23  2  0  0  0  0
 29 30  1  0  0  0  0
 31 32  1  0  0  0  0
 31 25  1  0  0  0  0
 32 37  1  0  0  0  0
 33 34  1  0  0  0  0
 33 32  2  0  0  0  0
 34 35  2  0  0  0  0
 35 36  1  0  0  0  0
 37 36  2  0  0  0  0
 37 38  1  0  0  0  0
 38 39  1  0  0  0  0
 40 41  1  0  0  0  0
 40  6  1  0  0  0  0
 41 42  1  0  0  0  0
 42 43  2  0  0  0  0
 43 49  1  0  0  0  0
 44 43  1  0  0  0  0
 45 44  2  0  0  0  0
 46 45  1  0  0  0  0
 46 41  2  0  0  0  0
 47 46  1  0  0  0  0
 48 47  1  0  0  0  0
 49 50  1  0  0  0  0
 50 55  1  0  0  0  0
 51 52  1  0  0  0  0
 51 50  2  0  0  0  0
 52 53  2  0  0  0  0
 53 54  1  0  0  0  0
 55 54  2  0  0  0  0
 55 56  1  0  0  0  0
 56 57  1  0  0  0  0
M  END
>  <MODEL>
9

>  <REMARK>
 VINA RESULT:    -9.906      2.115      8.469
 INTER + INTRA:         -19.615
 INTER:                 -17.144
 INTRA:                  -2.471
 UNBOUND:                -2.471
  Name = 
  16 active torsions:
  status: ('A' for Active; 'I' for Inactive)
    1  A    between atoms: C_1  and  O_2
    2  A    between atoms: O_2  and  C_3
    3  A    between atoms: C_4  and  C_5
    4  A    between atoms: C_5  and  C_6
    5  A    between atoms: C_8  and  C_13
    6  A    between atoms: C_11  and  O_12
    7  A    between atoms: C_13  and  C_14
    8  A    between atoms: C_19  and  O_20
    9  A    between atoms: C_21  and  O_22
   10  A    between atoms: C_25  and  C_26
   11  A    between atoms: C_26  and  C_27
   12  A    between atoms: C_29  and  C_34
   13  A    between atoms: C_32  and  O_33
   14  A    between atoms: C_34  and  C_35
   15  A    between atoms: C_40  and  O_41
   16  A    between atoms: C_43  and  C_47
                            x       y       z     vdW  Elec       q    Type
                         _______ _______ _______ _____ _____    ______ ____

>  <TORSDO>
F 15

$$$$
