=
 OpenBabel09092515023D

 57 63  0  0  1  0  0  0  0  0999 V2000
   85.9690   51.6020   43.4550 C   0  0  0  0  0  0  0  0  0  0  0  0
   85.5080   52.8080   42.8820 C   0  0  0  0  0  0  0  0  0  0  0  0
   84.1600   52.9180   42.4730 C   0  0  0  0  0  0  0  0  0  0  0  0
   83.2710   51.8310   42.6650 C   0  0  0  0  0  0  0  0  0  0  0  0
   83.7070   50.7110   43.4020 C   0  0  0  0  0  0  0  0  0  0  0  0
   85.0580   50.5770   43.7750 C   0  0  0  0  0  0  0  0  0  0  0  0
   82.7870   49.7110   43.7500 O   0  0  0  0  0  0  0  0  0  0  0  0
   81.3780   49.9160   43.6690 C   0  0  1  0  0  3  0  0  0  0  0  0
   81.0220   50.5690   42.3290 C   0  0  0  0  0  2  0  0  0  0  0  0
   81.9010   51.7620   42.0730 C   0  0  0  0  0  0  0  0  0  0  0  0
   81.5020   52.6180   41.2410 O   0  0  0  0  0  0  0  0  0  0  0  0
   80.6450   48.6050   43.8380 C   0  0  0  0  0  0  0  0  0  0  0  0
   79.2940   48.5970   44.2220 C   0  0  0  0  0  3  0  0  0  0  0  0
   78.5970   47.3880   44.3340 C   0  0  0  0  0  3  0  0  0  0  0  0
   79.2430   46.1810   44.0530 C   0  0  0  0  0  3  0  0  0  0  0  0
   80.5830   46.1790   43.6590 C   0  0  0  0  0  3  0  0  0  0  0  0
   81.2820   47.3850   43.5440 C   0  0  0  0  0  3  0  0  0  0  0  0
   87.8250   51.4690   45.0690 C   0  0  0  0  0  1  0  0  0  0  0  0
   87.3270   51.4210   43.7360 O   0  0  0  0  0  0  0  0  0  0  0  0
   83.7400   54.1260   41.9090 O   0  0  0  0  0  0  0  0  0  0  0  0
   83.0090   54.1400   41.3230 H   0  0  0  0  0  0  0  0  0  0  0  0
   86.4090   54.0290   42.8150 C   0  0  0  0  0  2  0  0  0  0  0  0
   86.0150   55.0430   43.8670 C   0  0  0  0  0  0  0  0  0  0  0  0
   86.2750   54.7760   45.2210 C   0  0  0  0  0  3  0  0  0  0  0  0
   85.9940   55.7310   46.2080 C   0  0  0  0  0  0  0  0  0  0  0  0
   85.4080   56.9510   45.8380 C   0  0  0  0  0  3  0  0  0  0  0  0
   85.1240   57.2180   44.4960 C   0  0  0  0  0  3  0  0  0  0  0  0
   85.4350   56.2750   43.5070 C   0  0  0  0  0  0  0  0  0  0  0  0
   85.1660   56.5610   42.1680 O   0  0  0  0  0  0  0  0  0  0  0  0
   84.2850   56.5300   41.8500 H   0  0  0  0  0  0  0  0  0  0  0  0
   86.3840   55.4640   47.6390 C   0  0  0  0  0  2  0  0  0  0  0  0
   85.6380   54.2560   48.1690 C   0  0  0  0  0  0  0  0  0  0  0  0
   86.3400   53.0440   48.3200 C   0  0  0  0  0  3  0  0  0  0  0  0
   85.7180   51.9220   48.8730 C   0  0  0  0  0  3  0  0  0  0  0  0
   84.3890   51.9950   49.2890 C   0  0  0  0  0  3  0  0  0  0  0  0
   83.6780   53.1880   49.1480 C   0  0  0  0  0  3  0  0  0  0  0  0
   84.2840   54.3210   48.5910 C   0  0  0  0  0  0  0  0  0  0  0  0
   83.5100   55.4770   48.4730 O   0  0  0  0  0  0  0  0  0  0  0  0
   83.2370   55.9380   49.2430 H   0  0  0  0  0  0  0  0  0  0  0  0
   85.5210   49.3530   44.5440 C   0  0  0  0  0  2  0  0  0  0  0  0
   85.8440   48.1750   43.6490 C   0  0  0  0  0  0  0  0  0  0  0  0
   86.9820   48.2280   42.8210 C   0  0  0  0  0  3  0  0  0  0  0  0
   87.3540   47.1230   42.0350 C   0  0  0  0  0  0  0  0  0  0  0  0
   86.5800   45.9560   42.0840 C   0  0  0  0  0  3  0  0  0  0  0  0
   85.4480   45.8940   42.8950 C   0  0  0  0  0  3  0  0  0  0  0  0
   85.0820   46.9870   43.6920 C   0  0  0  0  0  0  0  0  0  0  0  0
   83.9730   46.8830   44.5300 O   0  0  0  0  0  0  0  0  0  0  0  0
   84.0310   46.3920   45.3250 H   0  0  0  0  0  0  0  0  0  0  0  0
   88.6180   47.1580   41.2100 C   0  0  0  0  0  2  0  0  0  0  0  0
   89.7590   47.7870   41.9720 C   0  0  0  0  0  0  0  0  0  0  0  0
   90.5060   47.0110   42.8790 C   0  0  0  0  0  3  0  0  0  0  0  0
   91.5850   47.5690   43.5700 C   0  0  0  0  0  3  0  0  0  0  0  0
   91.9280   48.9070   43.3690 C   0  0  0  0  0  3  0  0  0  0  0  0
   91.1930   49.6900   42.4710 C   0  0  0  0  0  3  0  0  0  0  0  0
   90.1120   49.1360   41.7660 C   0  0  0  0  0  0  0  0  0  0  0  0
   89.3880   49.9200   40.8680 O   0  0  0  0  0  0  0  0  0  0  0  0
   88.4520   49.9070   40.8850 H   0  0  0  0  0  0  0  0  0  0  0  0
  1 19  1  0  0  0  0
  1  6  1  0  0  0  0
  2  1  2  0  0  0  0
  3  4  2  0  0  0  0
  3  2  1  0  0  0  0
  4  5  1  0  0  0  0
  5  7  1  0  0  0  0
  5  6  2  0  0  0  0
  6 40  1  0  0  0  0
  8  7  1  0  0  0  0
  8 12  1  6  0  0  0
  9  8  1  0  0  0  0
 10  9  1  0  0  0  0
 10  4  1  0  0  0  0
 11 10  2  0  0  0  0
 12 13  1  0  0  0  0
 13 14  2  0  0  0  0
 15 14  1  0  0  0  0
 16 15  2  0  0  0  0
 17 16  1  0  0  0  0
 17 12  2  0  0  0  0
 19 18  1  0  0  0  0
 20  3  1  0  0  0  0
 21 20  1  0  0  0  0
 22  2  1  0  0  0  0
 22 23  1  0  0  0  0
 23 24  1  0  0  0  0
 24 25  2  0  0  0  0
 25 31  1  0  0  0  0
 26 25  1  0  0  0  0
 27 26  2  0  0  0  0
 28 23  2  0  0  0  0
 28 27  1  0  0  0  0
 29 28  1  0  0  0  0
 30 29  1  0  0  0  0
 31 32  1  0  0  0  0
 32 33  2  0  0  0  0
 32 37  1  0  0  0  0
 33 34  1  0  0  0  0
 34 35  2  0  0  0  0
 36 35  1  0  0  0  0
 37 36  2  0  0  0  0
 38 37  1  0  0  0  0
 38 39  1  0  0  0  0
 41 46  1  0  0  0  0
 41 40  1  0  0  0  0
 42 41  2  0  0  0  0
 43 44  2  0  0  0  0
 43 42  1  0  0  0  0
 44 45  1  0  0  0  0
 45 46  2  0  0  0  0
 46 47  1  0  0  0  0
 47 48  1  0  0  0  0
 49 50  1  0  0  0  0
 49 43  1  0  0  0  0
 50 51  1  0  0  0  0
 51 52  2  0  0  0  0
 53 52  1  0  0  0  0
 54 53  2  0  0  0  0
 55 50  2  0  0  0  0
 55 54  1  0  0  0  0
 56 57  1  0  0  0  0
 56 55  1  0  0  0  0
M  END
>  <MODEL>
1

>  <REMARK>
 VINA RESULT:   -13.506      0.000      0.000
 INTER + INTRA:         -23.875
 INTER:                 -20.501
 INTRA:                  -3.374
 UNBOUND:                -0.500
  Name = 
  16 active torsions:
  status: ('A' for Active; 'I' for Inactive)
    1  A    between atoms: C_1  and  O_2
    2  A    between atoms: O_2  and  C_3
    3  A    between atoms: C_4  and  C_5
    4  A    between atoms: C_5  and  C_6
    5  A    between atoms: C_8  and  C_13
    6  A    between atoms: C_11  and  O_12
    7  A    between atoms: C_13  and  C_14
    8  A    between atoms: C_19  and  O_20
    9  A    between atoms: C_21  and  O_22
   10  A    between atoms: C_25  and  C_26
   11  A    between atoms: C_26  and  C_27
   12  A    between atoms: C_29  and  C_34
   13  A    between atoms: C_32  and  O_33
   14  A    between atoms: C_34  and  C_35
   15  A    between atoms: C_40  and  O_41
   16  A    between atoms: C_43  and  C_47
                            x       y       z     vdW  Elec       q    Type
                         _______ _______ _______ _____ _____    ______ ____

>  <TORSDO>
F 15

$$$$
=
 OpenBabel09092515023D

 57 63  0  0  1  0  0  0  0  0999 V2000
   85.7590   52.4730   43.6210 C   0  0  0  0  0  0  0  0  0  0  0  0
   85.1660   53.5010   42.8550 C   0  0  0  0  0  0  0  0  0  0  0  0
   83.8600   53.3290   42.3460 C   0  0  0  0  0  0  0  0  0  0  0  0
   83.1400   52.1400   42.6280 C   0  0  0  0  0  0  0  0  0  0  0  0
   83.6810   51.2140   43.5430 C   0  0  0  0  0  0  0  0  0  0  0  0
   84.9970   51.3580   44.0200 C   0  0  0  0  0  0  0  0  0  0  0  0
   82.9040   50.1250   43.9650 O   0  0  0  0  0  0  0  0  0  0  0  0
   81.4930   50.0770   43.7610 C   0  0  1  0  0  3  0  0  0  0  0  0
   81.1590   50.4840   42.3230 C   0  0  0  0  0  2  0  0  0  0  0  0
   81.8580   51.7660   41.9610 C   0  0  0  0  0  0  0  0  0  0  0  0
   81.4030   52.4290   40.9930 O   0  0  0  0  0  0  0  0  0  0  0  0
   80.9650   48.6940   44.0630 C   0  0  0  0  0  0  0  0  0  0  0  0
   79.5870   48.4880   44.2460 C   0  0  0  0  0  3  0  0  0  0  0  0
   79.0880   47.2020   44.4780 C   0  0  0  0  0  3  0  0  0  0  0  0
   79.9590   46.1110   44.5210 C   0  0  0  0  0  3  0  0  0  0  0  0
   81.3300   46.3020   44.3290 C   0  0  0  0  0  3  0  0  0  0  0  0
   81.8330   47.5860   44.0940 C   0  0  0  0  0  3  0  0  0  0  0  0
   88.1480   52.7040   43.0640 C   0  0  0  0  0  1  0  0  0  0  0  0
   87.0990   52.5620   44.0150 O   0  0  0  0  0  0  0  0  0  0  0  0
   83.3060   54.3660   41.5900 O   0  0  0  0  0  0  0  0  0  0  0  0
   82.5210   54.7880   41.8790 H   0  0  0  0  0  0  0  0  0  0  0  0
   85.8650   54.8380   42.6780 C   0  0  0  0  0  2  0  0  0  0  0  0
   85.6300   55.7270   43.8800 C   0  0  0  0  0  0  0  0  0  0  0  0
   86.0050   55.2820   45.1580 C   0  0  0  0  0  3  0  0  0  0  0  0
   85.8740   56.1160   46.2770 C   0  0  0  0  0  0  0  0  0  0  0  0
   85.3220   57.3960   46.1180 C   0  0  0  0  0  3  0  0  0  0  0  0
   84.9240   57.8410   44.8550 C   0  0  0  0  0  3  0  0  0  0  0  0
   85.0860   57.0180   43.7330 C   0  0  0  0  0  0  0  0  0  0  0  0
   84.7050   57.4820   42.4730 O   0  0  0  0  0  0  0  0  0  0  0  0
   84.5700   58.3980   42.3320 H   0  0  0  0  0  0  0  0  0  0  0  0
   86.3850   55.6550   47.6170 C   0  0  0  0  0  2  0  0  0  0  0  0
   85.6790   54.3830   48.0380 C   0  0  0  0  0  0  0  0  0  0  0  0
   86.4080   53.1770   48.0400 C   0  0  0  0  0  3  0  0  0  0  0  0
   85.8250   51.9900   48.4900 C   0  0  0  0  0  3  0  0  0  0  0  0
   84.5080   51.9900   48.9500 C   0  0  0  0  0  3  0  0  0  0  0  0
   83.7700   53.1750   48.9550 C   0  0  0  0  0  3  0  0  0  0  0  0
   84.3380   54.3730   48.5030 C   0  0  0  0  0  0  0  0  0  0  0  0
   83.5380   55.5180   48.5300 O   0  0  0  0  0  0  0  0  0  0  0  0
   82.7590   55.5570   48.0110 H   0  0  0  0  0  0  0  0  0  0  0  0
   85.5780   50.3390   44.9830 C   0  0  0  0  0  2  0  0  0  0  0  0
   86.8210   49.6570   44.4500 C   0  0  0  0  0  0  0  0  0  0  0  0
   86.6970   48.7000   43.4220 C   0  0  0  0  0  3  0  0  0  0  0  0
   87.8350   48.1040   42.8510 C   0  0  0  0  0  0  0  0  0  0  0  0
   89.1060   48.4740   43.3120 C   0  0  0  0  0  3  0  0  0  0  0  0
   89.2410   49.4150   44.3320 C   0  0  0  0  0  3  0  0  0  0  0  0
   88.1100   50.0230   44.8940 C   0  0  0  0  0  0  0  0  0  0  0  0
   88.2730   50.9940   45.8790 O   0  0  0  0  0  0  0  0  0  0  0  0
   88.2360   50.7550   46.7840 H   0  0  0  0  0  0  0  0  0  0  0  0
   87.7000   47.1390   41.6980 C   0  0  0  0  0  2  0  0  0  0  0  0
   87.5420   45.7180   42.1820 C   0  0  0  0  0  0  0  0  0  0  0  0
   88.6850   44.9470   42.4690 C   0  0  0  0  0  3  0  0  0  0  0  0
   88.5580   43.6400   42.9470 C   0  0  0  0  0  3  0  0  0  0  0  0
   87.2900   43.0860   43.1390 C   0  0  0  0  0  3  0  0  0  0  0  0
   86.1460   43.8410   42.8570 C   0  0  0  0  0  3  0  0  0  0  0  0
   86.2640   45.1580   42.3830 C   0  0  0  0  0  0  0  0  0  0  0  0
   85.1210   45.9080   42.1110 O   0  0  0  0  0  0  0  0  0  0  0  0
   84.6160   46.2640   42.8150 H   0  0  0  0  0  0  0  0  0  0  0  0
  1 19  1  0  0  0  0
  1  6  1  0  0  0  0
  2  1  2  0  0  0  0
  3  4  2  0  0  0  0
  3  2  1  0  0  0  0
  4  5  1  0  0  0  0
  5  7  1  0  0  0  0
  5  6  2  0  0  0  0
  6 40  1  0  0  0  0
  8  7  1  0  0  0  0
  8 12  1  6  0  0  0
  9  8  1  0  0  0  0
 10  9  1  0  0  0  0
 10  4  1  0  0  0  0
 11 10  2  0  0  0  0
 12 17  2  0  0  0  0
 12 13  1  0  0  0  0
 13 14  2  0  0  0  0
 14 15  1  0  0  0  0
 16 15  2  0  0  0  0
 17 16  1  0  0  0  0
 18 19  1  0  0  0  0
 20 21  1  0  0  0  0
 20  3  1  0  0  0  0
 22  2  1  0  0  0  0
 22 23  1  0  0  0  0
 23 24  1  0  0  0  0
 24 25  2  0  0  0  0
 25 31  1  0  0  0  0
 26 25  1  0  0  0  0
 27 26  2  0  0  0  0
 28 23  2  0  0  0  0
 28 27  1  0  0  0  0
 29 28  1  0  0  0  0
 30 29  1  0  0  0  0
 31 32  1  0  0  0  0
 32 33  2  0  0  0  0
 32 37  1  0  0  0  0
 33 34  1  0  0  0  0
 34 35  2  0  0  0  0
 35 36  1  0  0  0  0
 37 38  1  0  0  0  0
 37 36  2  0  0  0  0
 39 38  1  0  0  0  0
 41 46  1  0  0  0  0
 41 40  1  0  0  0  0
 42 41  2  0  0  0  0
 43 44  2  0  0  0  0
 43 42  1  0  0  0  0
 44 45  1  0  0  0  0
 45 46  2  0  0  0  0
 46 47  1  0  0  0  0
 47 48  1  0  0  0  0
 49 50  1  0  0  0  0
 49 43  1  0  0  0  0
 50 55  2  0  0  0  0
 50 51  1  0  0  0  0
 51 52  2  0  0  0  0
 52 53  1  0  0  0  0
 54 53  2  0  0  0  0
 55 54  1  0  0  0  0
 56 55  1  0  0  0  0
 56 57  1  0  0  0  0
M  END
>  <MODEL>
2

>  <REMARK>
 VINA RESULT:   -12.400      1.317      2.601
 INTER + INTRA:         -21.962
 INTER:                 -19.236
 INTRA:                  -2.726
 UNBOUND:                -0.500
  Name = 
  16 active torsions:
  status: ('A' for Active; 'I' for Inactive)
    1  A    between atoms: C_1  and  O_2
    2  A    between atoms: O_2  and  C_3
    3  A    between atoms: C_4  and  C_5
    4  A    between atoms: C_5  and  C_6
    5  A    between atoms: C_8  and  C_13
    6  A    between atoms: C_11  and  O_12
    7  A    between atoms: C_13  and  C_14
    8  A    between atoms: C_19  and  O_20
    9  A    between atoms: C_21  and  O_22
   10  A    between atoms: C_25  and  C_26
   11  A    between atoms: C_26  and  C_27
   12  A    between atoms: C_29  and  C_34
   13  A    between atoms: C_32  and  O_33
   14  A    between atoms: C_34  and  C_35
   15  A    between atoms: C_40  and  O_41
   16  A    between atoms: C_43  and  C_47
                            x       y       z     vdW  Elec       q    Type
                         _______ _______ _______ _____ _____    ______ ____

>  <TORSDO>
F 15

$$$$
=
 OpenBabel09092515023D

 57 63  0  0  1  0  0  0  0  0999 V2000
   88.3910   52.0870   42.0200 C   0  0  0  0  0  0  0  0  0  0  0  0
   88.5850   50.7140   42.2900 C   0  0  0  0  0  0  0  0  0  0  0  0
   88.1370   50.1730   43.5160 C   0  0  0  0  0  0  0  0  0  0  0  0
   87.4710   51.0000   44.4550 C   0  0  0  0  0  0  0  0  0  0  0  0
   87.1290   52.3170   44.0850 C   0  0  0  0  0  0  0  0  0  0  0  0
   87.6080   52.8750   42.8850 C   0  0  0  0  0  0  0  0  0  0  0  0
   86.3170   53.0840   44.9330 O   0  0  0  0  0  0  0  0  0  0  0  0
   85.5670   52.5010   45.9960 C   0  0  1  0  0  3  0  0  0  0  0  0
   86.4500   51.5290   46.7860 C   0  0  0  0  0  2  0  0  0  0  0  0
   87.1620   50.5870   45.8560 C   0  0  0  0  0  0  0  0  0  0  0  0
   87.6040   49.5100   46.3350 O   0  0  0  0  0  0  0  0  0  0  0  0
   85.0110   53.5770   46.9000 C   0  0  0  0  0  0  0  0  0  0  0  0
   84.6150   54.8130   46.3650 C   0  0  0  0  0  3  0  0  0  0  0  0
   84.0550   55.7960   47.1890 C   0  0  0  0  0  3  0  0  0  0  0  0
   83.8800   55.5470   48.5530 C   0  0  0  0  0  3  0  0  0  0  0  0
   84.2600   54.3160   49.0940 C   0  0  0  0  0  3  0  0  0  0  0  0
   84.8170   53.3310   48.2730 C   0  0  0  0  0  3  0  0  0  0  0  0
   88.3380   52.5430   39.5990 C   0  0  0  0  0  1  0  0  0  0  0  0
   88.9490   52.6730   40.8780 O   0  0  0  0  0  0  0  0  0  0  0  0
   88.3480   48.8110   43.7500 O   0  0  0  0  0  0  0  0  0  0  0  0
   88.8650   48.3080   43.1520 H   0  0  0  0  0  0  0  0  0  0  0  0
   89.1550   49.7870   41.2300 C   0  0  0  0  0  2  0  0  0  0  0  0
   89.3980   48.4070   41.8010 C   0  0  0  0  0  0  0  0  0  0  0  0
   88.4340   47.4020   41.6220 C   0  0  0  0  0  3  0  0  0  0  0  0
   88.6690   46.0940   42.0700 C   0  0  0  0  0  0  0  0  0  0  0  0
   89.8660   45.8020   42.7410 C   0  0  0  0  0  3  0  0  0  0  0  0
   90.8220   46.8000   42.9440 C   0  0  0  0  0  3  0  0  0  0  0  0
   90.6000   48.0990   42.4680 C   0  0  0  0  0  0  0  0  0  0  0  0
   91.5710   49.0820   42.6580 O   0  0  0  0  0  0  0  0  0  0  0  0
   92.4260   48.8440   42.9590 H   0  0  0  0  0  0  0  0  0  0  0  0
   87.6670   45.0100   41.7680 C   0  0  0  0  0  2  0  0  0  0  0  0
   86.4090   45.2170   42.5850 C   0  0  0  0  0  0  0  0  0  0  0  0
   85.3550   45.9630   42.0210 C   0  0  0  0  0  3  0  0  0  0  0  0
   84.1460   46.1210   42.7020 C   0  0  0  0  0  3  0  0  0  0  0  0
   83.9680   45.5310   43.9540 C   0  0  0  0  0  3  0  0  0  0  0  0
   85.0000   44.7880   44.5290 C   0  0  0  0  0  3  0  0  0  0  0  0
   86.2210   44.6240   43.8610 C   0  0  0  0  0  0  0  0  0  0  0  0
   87.2120   43.8750   44.5000 O   0  0  0  0  0  0  0  0  0  0  0  0
   86.9790   43.2790   45.1850 H   0  0  0  0  0  0  0  0  0  0  0  0
   87.2540   54.3030   42.5110 C   0  0  0  0  0  2  0  0  0  0  0  0
   85.7630   54.5300   42.3740 C   0  0  0  0  0  0  0  0  0  0  0  0
   84.9500   53.4970   41.8650 C   0  0  0  0  0  3  0  0  0  0  0  0
   83.5540   53.6460   41.7970 C   0  0  0  0  0  0  0  0  0  0  0  0
   82.9690   54.8390   42.2450 C   0  0  0  0  0  3  0  0  0  0  0  0
   83.7640   55.8700   42.7440 C   0  0  0  0  0  3  0  0  0  0  0  0
   85.1540   55.7200   42.8290 C   0  0  0  0  0  0  0  0  0  0  0  0
   85.9220   56.7470   43.3750 O   0  0  0  0  0  0  0  0  0  0  0  0
   86.7360   56.9860   42.9780 H   0  0  0  0  0  0  0  0  0  0  0  0
   82.6830   52.5070   41.3250 C   0  0  0  0  0  2  0  0  0  0  0  0
   82.7760   51.3190   42.2510 C   0  0  0  0  0  0  0  0  0  0  0  0
   84.0270   50.9350   42.7700 C   0  0  0  0  0  3  0  0  0  0  0  0
   84.1280   49.8560   43.6530 C   0  0  0  0  0  3  0  0  0  0  0  0
   82.9850   49.1450   44.0230 C   0  0  0  0  0  3  0  0  0  0  0  0
   81.7350   49.5160   43.5130 C   0  0  0  0  0  3  0  0  0  0  0  0
   81.6220   50.6040   42.6310 C   0  0  0  0  0  0  0  0  0  0  0  0
   80.3740   50.9730   42.1330 O   0  0  0  0  0  0  0  0  0  0  0  0
   79.8360   51.5700   42.6130 H   0  0  0  0  0  0  0  0  0  0  0  0
  1  2  2  0  0  0  0
  1  6  1  0  0  0  0
  2  3  1  0  0  0  0
  3 20  1  0  0  0  0
  3  4  2  0  0  0  0
  4 10  1  0  0  0  0
  5  4  1  0  0  0  0
  5  7  1  0  0  0  0
  6  5  2  0  0  0  0
  7  8  1  0  0  0  0
  8  9  1  0  0  0  0
  8 12  1  1  0  0  0
 10 11  2  0  0  0  0
 10  9  1  0  0  0  0
 12 17  1  0  0  0  0
 13 12  2  0  0  0  0
 13 14  1  0  0  0  0
 14 15  2  0  0  0  0
 15 16  1  0  0  0  0
 17 16  2  0  0  0  0
 18 19  1  0  0  0  0
 19  1  1  0  0  0  0
 21 20  1  0  0  0  0
 22 23  1  0  0  0  0
 22  2  1  0  0  0  0
 23 28  1  0  0  0  0
 24 23  2  0  0  0  0
 24 25  1  0  0  0  0
 25 26  2  0  0  0  0
 26 27  1  0  0  0  0
 28 29  1  0  0  0  0
 28 27  2  0  0  0  0
 29 30  1  0  0  0  0
 31 25  1  0  0  0  0
 31 32  1  0  0  0  0
 32 37  1  0  0  0  0
 33 32  2  0  0  0  0
 33 34  1  0  0  0  0
 34 35  2  0  0  0  0
 35 36  1  0  0  0  0
 37 38  1  0  0  0  0
 37 36  2  0  0  0  0
 38 39  1  0  0  0  0
 40  6  1  0  0  0  0
 41 40  1  0  0  0  0
 41 46  1  0  0  0  0
 42 41  2  0  0  0  0
 43 42  1  0  0  0  0
 43 44  2  0  0  0  0
 44 45  1  0  0  0  0
 45 46  2  0  0  0  0
 46 47  1  0  0  0  0
 48 47  1  0  0  0  0
 49 43  1  0  0  0  0
 49 50  1  0  0  0  0
 50 55  2  0  0  0  0
 50 51  1  0  0  0  0
 51 52  2  0  0  0  0
 52 53  1  0  0  0  0
 54 53  2  0  0  0  0
 55 54  1  0  0  0  0
 56 57  1  0  0  0  0
 56 55  1  0  0  0  0
M  END
>  <MODEL>
3

>  <REMARK>
 VINA RESULT:   -11.856      2.080      8.441
 INTER + INTRA:         -21.020
 INTER:                 -20.485
 INTRA:                  -0.535
 UNBOUND:                -0.500
  Name = 
  16 active torsions:
  status: ('A' for Active; 'I' for Inactive)
    1  A    between atoms: C_1  and  O_2
    2  A    between atoms: O_2  and  C_3
    3  A    between atoms: C_4  and  C_5
    4  A    between atoms: C_5  and  C_6
    5  A    between atoms: C_8  and  C_13
    6  A    between atoms: C_11  and  O_12
    7  A    between atoms: C_13  and  C_14
    8  A    between atoms: C_19  and  O_20
    9  A    between atoms: C_21  and  O_22
   10  A    between atoms: C_25  and  C_26
   11  A    between atoms: C_26  and  C_27
   12  A    between atoms: C_29  and  C_34
   13  A    between atoms: C_32  and  O_33
   14  A    between atoms: C_34  and  C_35
   15  A    between atoms: C_40  and  O_41
   16  A    between atoms: C_43  and  C_47
                            x       y       z     vdW  Elec       q    Type
                         _______ _______ _______ _____ _____    ______ ____

>  <TORSDO>
F 15

$$$$
=
 OpenBabel09092515023D

 57 63  0  0  1  0  0  0  0  0999 V2000
   83.6430   49.8100   43.3560 C   0  0  0  0  0  0  0  0  0  0  0  0
   84.4890   49.0740   44.2160 C   0  0  0  0  0  0  0  0  0  0  0  0
   85.4090   49.7560   45.0430 C   0  0  0  0  0  0  0  0  0  0  0  0
   85.4600   51.1730   45.0300 C   0  0  0  0  0  0  0  0  0  0  0  0
   84.4840   51.8850   44.3040 C   0  0  0  0  0  0  0  0  0  0  0  0
   83.5930   51.2150   43.4450 C   0  0  0  0  0  0  0  0  0  0  0  0
   84.4150   53.2810   44.4250 O   0  0  0  0  0  0  0  0  0  0  0  0
   85.0720   53.9840   45.4770 C   0  0  1  0  0  3  0  0  0  0  0  0
   86.5100   53.4750   45.6260 C   0  0  0  0  0  2  0  0  0  0  0  0
   86.5340   51.9730   45.6890 C   0  0  0  0  0  0  0  0  0  0  0  0
   87.5500   51.4220   46.1880 O   0  0  0  0  0  0  0  0  0  0  0  0
   85.0550   55.4710   45.2080 C   0  0  0  0  0  0  0  0  0  0  0  0
   85.3580   56.3780   46.2370 C   0  0  0  0  0  3  0  0  0  0  0  0
   85.3910   57.7530   45.9810 C   0  0  0  0  0  3  0  0  0  0  0  0
   85.1300   58.2320   44.6940 C   0  0  0  0  0  3  0  0  0  0  0  0
   84.8390   57.3380   43.6610 C   0  0  0  0  0  3  0  0  0  0  0  0
   84.8080   55.9620   43.9120 C   0  0  0  0  0  3  0  0  0  0  0  0
   81.5640   48.6100   42.8010 C   0  0  0  0  0  1  0  0  0  0  0  0
   82.8260   49.1540   42.4290 O   0  0  0  0  0  0  0  0  0  0  0  0
   86.2320   48.9950   45.8790 O   0  0  0  0  0  0  0  0  0  0  0  0
   86.1540   49.0730   46.8090 H   0  0  0  0  0  0  0  0  0  0  0  0
   84.3360   47.5690   44.3530 C   0  0  0  0  0  2  0  0  0  0  0  0
   85.4330   46.8490   43.6000 C   0  0  0  0  0  0  0  0  0  0  0  0
   86.2700   47.5700   42.7340 C   0  0  0  0  0  3  0  0  0  0  0  0
   87.3450   46.9440   42.0870 C   0  0  0  0  0  0  0  0  0  0  0  0
   87.5570   45.5700   42.2790 C   0  0  0  0  0  3  0  0  0  0  0  0
   86.7160   44.8380   43.1200 C   0  0  0  0  0  3  0  0  0  0  0  0
   85.6620   45.4720   43.7920 C   0  0  0  0  0  0  0  0  0  0  0  0
   84.8410   44.7350   44.6470 O   0  0  0  0  0  0  0  0  0  0  0  0
   85.2080   44.0530   45.1740 H   0  0  0  0  0  0  0  0  0  0  0  0
   88.2930   47.7630   41.2500 C   0  0  0  0  0  2  0  0  0  0  0  0
   89.4590   48.2380   42.0930 C   0  0  0  0  0  0  0  0  0  0  0  0
   89.2680   48.3920   43.4810 C   0  0  0  0  0  3  0  0  0  0  0  0
   90.3290   48.7570   44.3120 C   0  0  0  0  0  3  0  0  0  0  0  0
   91.5990   48.9670   43.7720 C   0  0  0  0  0  3  0  0  0  0  0  0
   91.8070   48.8190   42.4000 C   0  0  0  0  0  3  0  0  0  0  0  0
   90.7520   48.4590   41.5510 C   0  0  0  0  0  0  0  0  0  0  0  0
   91.0320   48.3370   40.1880 O   0  0  0  0  0  0  0  0  0  0  0  0
   91.8850   48.5530   39.8650 H   0  0  0  0  0  0  0  0  0  0  0  0
   82.5640   51.9960   42.6480 C   0  0  0  0  0  2  0  0  0  0  0  0
   83.1840   53.0220   41.7220 C   0  0  0  0  0  0  0  0  0  0  0  0
   84.4300   52.7480   41.1220 C   0  0  0  0  0  3  0  0  0  0  0  0
   84.9970   53.6440   40.1990 C   0  0  0  0  0  0  0  0  0  0  0  0
   84.3090   54.8210   39.8730 C   0  0  0  0  0  3  0  0  0  0  0  0
   83.0790   55.1050   40.4660 C   0  0  0  0  0  3  0  0  0  0  0  0
   82.5020   54.2090   41.3750 C   0  0  0  0  0  0  0  0  0  0  0  0
   81.2510   54.4930   41.9180 O   0  0  0  0  0  0  0  0  0  0  0  0
   80.4830   54.0910   41.5620 H   0  0  0  0  0  0  0  0  0  0  0  0
   86.2930   53.3080   39.5000 C   0  0  0  0  0  2  0  0  0  0  0  0
   87.3210   52.7760   40.4680 C   0  0  0  0  0  0  0  0  0  0  0  0
   87.1410   52.9610   41.8520 C   0  0  0  0  0  3  0  0  0  0  0  0
   88.0680   52.4490   42.7640 C   0  0  0  0  0  3  0  0  0  0  0  0
   89.1870   51.7510   42.3060 C   0  0  0  0  0  3  0  0  0  0  0  0
   89.3790   51.5600   40.9330 C   0  0  0  0  0  3  0  0  0  0  0  0
   88.4490   52.0650   40.0090 C   0  0  0  0  0  0  0  0  0  0  0  0
   88.6430   51.8660   38.6430 O   0  0  0  0  0  0  0  0  0  0  0  0
   87.9130   51.6680   38.0900 H   0  0  0  0  0  0  0  0  0  0  0  0
  1  6  2  0  0  0  0
  1  2  1  0  0  0  0
  2 22  1  0  0  0  0
  2  3  2  0  0  0  0
  3 20  1  0  0  0  0
  4  3  1  0  0  0  0
  4 10  1  0  0  0  0
  5  7  1  0  0  0  0
  5  4  2  0  0  0  0
  6  5  1  0  0  0  0
  7  8  1  0  0  0  0
  8 12  1  6  0  0  0
  8  9  1  0  0  0  0
  9 10  1  0  0  0  0
 10 11  2  0  0  0  0
 12 13  1  0  0  0  0
 14 13  2  0  0  0  0
 15 14  1  0  0  0  0
 16 17  1  0  0  0  0
 16 15  2  0  0  0  0
 17 12  2  0  0  0  0
 19 18  1  0  0  0  0
 19  1  1  0  0  0  0
 20 21  1  0  0  0  0
 23 28  1  0  0  0  0
 23 22  1  0  0  0  0
 24 23  2  0  0  0  0
 25 26  2  0  0  0  0
 25 24  1  0  0  0  0
 26 27  1  0  0  0  0
 27 28  2  0  0  0  0
 28 29  1  0  0  0  0
 29 30  1  0  0  0  0
 31 25  1  0  0  0  0
 31 32  1  0  0  0  0
 32 33  1  0  0  0  0
 33 34  2  0  0  0  0
 35 34  1  0  0  0  0
 36 35  2  0  0  0  0
 37 32  2  0  0  0  0
 37 36  1  0  0  0  0
 38 37  1  0  0  0  0
 39 38  1  0  0  0  0
 40  6  1  0  0  0  0
 41 40  1  0  0  0  0
 42 41  2  0  0  0  0
 43 42  1  0  0  0  0
 44 43  2  0  0  0  0
 44 45  1  0  0  0  0
 45 46  2  0  0  0  0
 46 41  1  0  0  0  0
 46 47  1  0  0  0  0
 48 47  1  0  0  0  0
 49 43  1  0  0  0  0
 49 50  1  0  0  0  0
 50 51  1  0  0  0  0
 51 52  2  0  0  0  0
 53 52  1  0  0  0  0
 54 53  2  0  0  0  0
 55 50  2  0  0  0  0
 55 54  1  0  0  0  0
 56 55  1  0  0  0  0
 57 56  1  0  0  0  0
M  END
>  <MODEL>
4

>  <REMARK>
 VINA RESULT:   -11.556      2.104      8.142
 INTER + INTRA:         -20.502
 INTER:                 -16.698
 INTRA:                  -3.803
 UNBOUND:                -0.500
  Name = 
  16 active torsions:
  status: ('A' for Active; 'I' for Inactive)
    1  A    between atoms: C_1  and  O_2
    2  A    between atoms: O_2  and  C_3
    3  A    between atoms: C_4  and  C_5
    4  A    between atoms: C_5  and  C_6
    5  A    between atoms: C_8  and  C_13
    6  A    between atoms: C_11  and  O_12
    7  A    between atoms: C_13  and  C_14
    8  A    between atoms: C_19  and  O_20
    9  A    between atoms: C_21  and  O_22
   10  A    between atoms: C_25  and  C_26
   11  A    between atoms: C_26  and  C_27
   12  A    between atoms: C_29  and  C_34
   13  A    between atoms: C_32  and  O_33
   14  A    between atoms: C_34  and  C_35
   15  A    between atoms: C_40  and  O_41
   16  A    between atoms: C_43  and  C_47
                            x       y       z     vdW  Elec       q    Type
                         _______ _______ _______ _____ _____    ______ ____

>  <TORSDO>
F 15

$$$$
=
 OpenBabel09092515023D

 57 63  0  0  1  0  0  0  0  0999 V2000
   86.1190   49.5310   44.5010 C   0  0  0  0  0  0  0  0  0  0  0  0
   85.0680   48.5960   44.3680 C   0  0  0  0  0  0  0  0  0  0  0  0
   83.9300   48.9280   43.6000 C   0  0  0  0  0  0  0  0  0  0  0  0
   83.8600   50.1820   42.9420 C   0  0  0  0  0  0  0  0  0  0  0  0
   84.9950   51.0180   42.9400 C   0  0  0  0  0  0  0  0  0  0  0  0
   86.1140   50.7140   43.7370 C   0  0  0  0  0  0  0  0  0  0  0  0
   84.9980   52.1760   42.1480 O   0  0  0  0  0  0  0  0  0  0  0  0
   84.0430   52.3880   41.1110 C   0  0  1  0  0  3  0  0  0  0  0  0
   82.6360   52.0580   41.6220 C   0  0  0  0  0  2  0  0  0  0  0  0
   82.6220   50.7150   42.2990 C   0  0  0  0  0  0  0  0  0  0  0  0
   81.5140   50.1320   42.4230 O   0  0  0  0  0  0  0  0  0  0  0  0
   84.1120   53.8140   40.6150 C   0  0  0  0  0  0  0  0  0  0  0  0
   83.9840   54.8820   41.5190 C   0  0  0  0  0  3  0  0  0  0  0  0
   84.0960   56.2030   41.0730 C   0  0  0  0  0  3  0  0  0  0  0  0
   84.3450   56.4670   39.7230 C   0  0  0  0  0  3  0  0  0  0  0  0
   84.4850   55.4130   38.8180 C   0  0  0  0  0  3  0  0  0  0  0  0
   84.3770   54.0900   39.2610 C   0  0  0  0  0  3  0  0  0  0  0  0
   87.2280   49.8330   46.6800 C   0  0  0  0  0  1  0  0  0  0  0  0
   87.1880   49.2820   45.3680 O   0  0  0  0  0  0  0  0  0  0  0  0
   82.9090   47.9780   43.4930 O   0  0  0  0  0  0  0  0  0  0  0  0
   82.0540   48.2410   43.2150 H   0  0  0  0  0  0  0  0  0  0  0  0
   85.2010   47.1940   44.9370 C   0  0  0  0  0  2  0  0  0  0  0  0
   85.7480   46.2440   43.8940 C   0  0  0  0  0  0  0  0  0  0  0  0
   87.0670   46.3960   43.4380 C   0  0  0  0  0  3  0  0  0  0  0  0
   87.6250   45.4820   42.5330 C   0  0  0  0  0  0  0  0  0  0  0  0
   86.8360   44.4270   42.0480 C   0  0  0  0  0  3  0  0  0  0  0  0
   85.5150   44.2800   42.4770 C   0  0  0  0  0  3  0  0  0  0  0  0
   84.9690   45.1750   43.4060 C   0  0  0  0  0  0  0  0  0  0  0  0
   83.6550   45.0060   43.8430 O   0  0  0  0  0  0  0  0  0  0  0  0
   83.0080   45.6520   43.6430 H   0  0  0  0  0  0  0  0  0  0  0  0
   89.0750   45.6040   42.1450 C   0  0  0  0  0  2  0  0  0  0  0  0
   89.4850   47.0610   42.1000 C   0  0  0  0  0  0  0  0  0  0  0  0
   88.7000   47.9590   41.3490 C   0  0  0  0  0  3  0  0  0  0  0  0
   88.9920   49.3240   41.3350 C   0  0  0  0  0  3  0  0  0  0  0  0
   90.0670   49.8160   42.0760 C   0  0  0  0  0  3  0  0  0  0  0  0
   90.8560   48.9430   42.8260 C   0  0  0  0  0  3  0  0  0  0  0  0
   90.5800   47.5690   42.8470 C   0  0  0  0  0  0  0  0  0  0  0  0
   91.4160   46.7540   43.6140 O   0  0  0  0  0  0  0  0  0  0  0  0
   91.0690   45.9900   44.0320 H   0  0  0  0  0  0  0  0  0  0  0  0
   87.3190   51.6370   43.7460 C   0  0  0  0  0  2  0  0  0  0  0  0
   86.9740   53.0620   44.1270 C   0  0  0  0  0  0  0  0  0  0  0  0
   86.7110   53.3720   45.4760 C   0  0  0  0  0  3  0  0  0  0  0  0
   86.4630   54.6970   45.8760 C   0  0  0  0  0  0  0  0  0  0  0  0
   86.4830   55.7180   44.9150 C   0  0  0  0  0  3  0  0  0  0  0  0
   86.7360   55.4220   43.5770 C   0  0  0  0  0  3  0  0  0  0  0  0
   86.9990   54.1050   43.1760 C   0  0  0  0  0  0  0  0  0  0  0  0
   87.2960   53.8420   41.8400 O   0  0  0  0  0  0  0  0  0  0  0  0
   87.3860   54.5480   41.2320 H   0  0  0  0  0  0  0  0  0  0  0  0
   86.2590   55.0340   47.3330 C   0  0  0  0  0  2  0  0  0  0  0  0
   85.3850   54.0130   48.0200 C   0  0  0  0  0  0  0  0  0  0  0  0
   85.9630   52.8450   48.5550 C   0  0  0  0  0  3  0  0  0  0  0  0
   85.1740   51.9030   49.2210 C   0  0  0  0  0  3  0  0  0  0  0  0
   83.8000   52.1130   49.3580 C   0  0  0  0  0  3  0  0  0  0  0  0
   83.2130   53.2690   48.8310 C   0  0  0  0  0  3  0  0  0  0  0  0
   83.9990   54.2250   48.1660 C   0  0  0  0  0  0  0  0  0  0  0  0
   83.4100   55.3780   47.6500 O   0  0  0  0  0  0  0  0  0  0  0  0
   83.3360   56.1450   48.1820 H   0  0  0  0  0  0  0  0  0  0  0  0
  1 19  1  0  0  0  0
  2  1  1  0  0  0  0
  2 22  1  0  0  0  0
  3  2  2  0  0  0  0
  4  3  1  0  0  0  0
  5  4  2  0  0  0  0
  5  6  1  0  0  0  0
  6 40  1  0  0  0  0
  6  1  2  0  0  0  0
  7  5  1  0  0  0  0
  8 12  1  1  0  0  0
  8  9  1  0  0  0  0
  8  7  1  0  0  0  0
  9 10  1  0  0  0  0
 10 11  2  0  0  0  0
 10  4  1  0  0  0  0
 12 13  1  0  0  0  0
 14 13  2  0  0  0  0
 15 14  1  0  0  0  0
 16 17  1  0  0  0  0
 16 15  2  0  0  0  0
 17 12  2  0  0  0  0
 19 18  1  0  0  0  0
 20  3  1  0  0  0  0
 21 20  1  0  0  0  0
 23 22  1  0  0  0  0
 24 23  1  0  0  0  0
 25 24  2  0  0  0  0
 26 27  2  0  0  0  0
 26 25  1  0  0  0  0
 27 28  1  0  0  0  0
 28 29  1  0  0  0  0
 28 23  2  0  0  0  0
 30 29  1  0  0  0  0
 31 25  1  0  0  0  0
 32 31  1  0  0  0  0
 32 37  1  0  0  0  0
 33 32  2  0  0  0  0
 34 33  1  0  0  0  0
 34 35  2  0  0  0  0
 35 36  1  0  0  0  0
 36 37  2  0  0  0  0
 37 38  1  0  0  0  0
 38 39  1  0  0  0  0
 40 41  1  0  0  0  0
 41 42  1  0  0  0  0
 42 43  2  0  0  0  0
 43 49  1  0  0  0  0
 44 43  1  0  0  0  0
 45 44  2  0  0  0  0
 46 45  1  0  0  0  0
 46 41  2  0  0  0  0
 47 46  1  0  0  0  0
 48 47  1  0  0  0  0
 49 50  1  0  0  0  0
 50 55  2  0  0  0  0
 50 51  1  0  0  0  0
 51 52  2  0  0  0  0
 52 53  1  0  0  0  0
 54 53  2  0  0  0  0
 55 54  1  0  0  0  0
 56 55  1  0  0  0  0
 56 57  1  0  0  0  0
M  END
>  <MODEL>
5

>  <REMARK>
 VINA RESULT:   -11.496      2.109      8.571
 INTER + INTRA:         -20.396
 INTER:                 -16.345
 INTRA:                  -4.052
 UNBOUND:                -0.500
  Name = 
  16 active torsions:
  status: ('A' for Active; 'I' for Inactive)
    1  A    between atoms: C_1  and  O_2
    2  A    between atoms: O_2  and  C_3
    3  A    between atoms: C_4  and  C_5
    4  A    between atoms: C_5  and  C_6
    5  A    between atoms: C_8  and  C_13
    6  A    between atoms: C_11  and  O_12
    7  A    between atoms: C_13  and  C_14
    8  A    between atoms: C_19  and  O_20
    9  A    between atoms: C_21  and  O_22
   10  A    between atoms: C_25  and  C_26
   11  A    between atoms: C_26  and  C_27
   12  A    between atoms: C_29  and  C_34
   13  A    between atoms: C_32  and  O_33
   14  A    between atoms: C_34  and  C_35
   15  A    between atoms: C_40  and  O_41
   16  A    between atoms: C_43  and  C_47
                            x       y       z     vdW  Elec       q    Type
                         _______ _______ _______ _____ _____    ______ ____

>  <TORSDO>
F 15

$$$$
=
 OpenBabel09092515023D

 57 63  0  0  1  0  0  0  0  0999 V2000
   86.8570   49.6300   43.6340 C   0  0  0  0  0  0  0  0  0  0  0  0
   87.4130   48.5900   42.8560 C   0  0  0  0  0  0  0  0  0  0  0  0
   86.6090   47.4920   42.4800 C   0  0  0  0  0  0  0  0  0  0  0  0
   85.2430   47.4510   42.8580 C   0  0  0  0  0  0  0  0  0  0  0  0
   84.6690   48.5820   43.4730 C   0  0  0  0  0  0  0  0  0  0  0  0
   85.4720   49.6610   43.8890 C   0  0  0  0  0  0  0  0  0  0  0  0
   83.2840   48.6230   43.6900 O   0  0  0  0  0  0  0  0  0  0  0  0
   82.3880   47.7210   43.0430 C   0  0  1  0  0  3  0  0  0  0  0  0
   82.9320   46.2920   43.1330 C   0  0  0  0  0  2  0  0  0  0  0  0
   84.3730   46.2470   42.7060 C   0  0  0  0  0  0  0  0  0  0  0  0
   84.8470   45.1350   42.3540 O   0  0  0  0  0  0  0  0  0  0  0  0
   81.0120   47.8120   43.6610 C   0  0  0  0  0  0  0  0  0  0  0  0
   80.5630   49.0250   44.2080 C   0  0  0  0  0  3  0  0  0  0  0  0
   79.2720   49.1280   44.7390 C   0  0  0  0  0  3  0  0  0  0  0  0
   78.4190   48.0220   44.7190 C   0  0  0  0  0  3  0  0  0  0  0  0
   78.8510   46.8140   44.1670 C   0  0  0  0  0  3  0  0  0  0  0  0
   80.1390   46.7080   43.6330 C   0  0  0  0  0  3  0  0  0  0  0  0
   88.6620   50.4010   45.1240 C   0  0  0  0  0  1  0  0  0  0  0  0
   87.6670   50.6540   44.1360 O   0  0  0  0  0  0  0  0  0  0  0  0
   87.1930   46.4800   41.7120 O   0  0  0  0  0  0  0  0  0  0  0  0
   88.0660   46.5840   41.3870 H   0  0  0  0  0  0  0  0  0  0  0  0
   88.8280   48.6980   42.3150 C   0  0  0  0  0  2  0  0  0  0  0  0
   89.0440   50.0380   41.6470 C   0  0  0  0  0  0  0  0  0  0  0  0
   87.9710   50.6750   41.0030 C   0  0  0  0  0  3  0  0  0  0  0  0
   88.1220   51.9530   40.4470 C   0  0  0  0  0  0  0  0  0  0  0  0
   89.3760   52.5820   40.5010 C   0  0  0  0  0  3  0  0  0  0  0  0
   90.4560   51.9480   41.1190 C   0  0  0  0  0  3  0  0  0  0  0  0
   90.2950   50.6840   41.7030 C   0  0  0  0  0  0  0  0  0  0  0  0
   91.3760   50.0700   42.3350 O   0  0  0  0  0  0  0  0  0  0  0  0
   91.2400   49.3000   42.8530 H   0  0  0  0  0  0  0  0  0  0  0  0
   86.9280   52.6590   39.8610 C   0  0  0  0  0  2  0  0  0  0  0  0
   86.0460   53.2030   40.9650 C   0  0  0  0  0  0  0  0  0  0  0  0
   86.5830   53.3120   42.2640 C   0  0  0  0  0  3  0  0  0  0  0  0
   85.8360   53.8760   43.3010 C   0  0  0  0  0  3  0  0  0  0  0  0
   84.5450   54.3450   43.0570 C   0  0  0  0  0  3  0  0  0  0  0  0
   83.9970   54.2460   41.7770 C   0  0  0  0  0  3  0  0  0  0  0  0
   84.7300   53.6790   40.7260 C   0  0  0  0  0  0  0  0  0  0  0  0
   84.1150   53.6050   39.4750 O   0  0  0  0  0  0  0  0  0  0  0  0
   83.3030   53.1470   39.3780 H   0  0  0  0  0  0  0  0  0  0  0  0
   84.8460   50.8610   44.5750 C   0  0  0  0  0  2  0  0  0  0  0  0
   85.4050   51.1120   45.9600 C   0  0  0  0  0  0  0  0  0  0  0  0
   85.2890   52.3970   46.5290 C   0  0  0  0  0  3  0  0  0  0  0  0
   85.7270   52.6450   47.8420 C   0  0  0  0  0  0  0  0  0  0  0  0
   86.2820   51.5970   48.5890 C   0  0  0  0  0  3  0  0  0  0  0  0
   86.4080   50.3250   48.0340 C   0  0  0  0  0  3  0  0  0  0  0  0
   85.9590   50.0680   46.7320 C   0  0  0  0  0  0  0  0  0  0  0  0
   86.0520   48.7770   46.2170 O   0  0  0  0  0  0  0  0  0  0  0  0
   85.4680   48.4990   45.5390 H   0  0  0  0  0  0  0  0  0  0  0  0
   85.5280   54.0020   48.4730 C   0  0  0  0  0  2  0  0  0  0  0  0
   85.3450   55.0770   47.4300 C   0  0  0  0  0  0  0  0  0  0  0  0
   86.4430   55.4880   46.6500 C   0  0  0  0  0  3  0  0  0  0  0  0
   86.2860   56.4600   45.6580 C   0  0  0  0  0  3  0  0  0  0  0  0
   85.0330   57.0360   45.4360 C   0  0  0  0  0  3  0  0  0  0  0  0
   83.9340   56.6370   46.2040 C   0  0  0  0  0  3  0  0  0  0  0  0
   84.0800   55.6560   47.1990 C   0  0  0  0  0  0  0  0  0  0  0  0
   82.9800   55.2580   47.9560 O   0  0  0  0  0  0  0  0  0  0  0  0
   82.7450   55.7340   48.7270 H   0  0  0  0  0  0  0  0  0  0  0  0
  1  6  1  0  0  0  0
  1 19  1  0  0  0  0
  2  1  2  0  0  0  0
  3  2  1  0  0  0  0
  3  4  2  0  0  0  0
  4  5  1  0  0  0  0
  5  7  1  0  0  0  0
  5  6  2  0  0  0  0
  6 40  1  0  0  0  0
  8  9  1  0  0  0  0
  8 12  1  1  0  0  0
  8  7  1  0  0  0  0
 10  4  1  0  0  0  0
 10  9  1  0  0  0  0
 11 10  2  0  0  0  0
 12 13  1  0  0  0  0
 13 14  2  0  0  0  0
 15 14  1  0  0  0  0
 16 15  2  0  0  0  0
 17 12  2  0  0  0  0
 17 16  1  0  0  0  0
 19 18  1  0  0  0  0
 20  3  1  0  0  0  0
 21 20  1  0  0  0  0
 22  2  1  0  0  0  0
 23 28  1  0  0  0  0
 23 22  1  0  0  0  0
 24 23  2  0  0  0  0
 25 26  2  0  0  0  0
 25 24  1  0  0  0  0
 26 27  1  0  0  0  0
 27 28  2  0  0  0  0
 28 29  1  0  0  0  0
 29 30  1  0  0  0  0
 31 25  1  0  0  0  0
 31 32  1  0  0  0  0
 32 33  1  0  0  0  0
 33 34  2  0  0  0  0
 35 34  1  0  0  0  0
 36 35  2  0  0  0  0
 37 32  2  0  0  0  0
 37 36  1  0  0  0  0
 38 37  1  0  0  0  0
 39 38  1  0  0  0  0
 40 41  1  0  0  0  0
 41 42  2  0  0  0  0
 41 46  1  0  0  0  0
 42 43  1  0  0  0  0
 43 49  1  0  0  0  0
 43 44  2  0  0  0  0
 45 44  1  0  0  0  0
 46 45  2  0  0  0  0
 47 46  1  0  0  0  0
 48 47  1  0  0  0  0
 50 49  1  0  0  0  0
 51 50  2  0  0  0  0
 52 51  1  0  0  0  0
 53 52  2  0  0  0  0
 53 54  1  0  0  0  0
 54 55  2  0  0  0  0
 55 50  1  0  0  0  0
 55 56  1  0  0  0  0
 56 57  1  0  0  0  0
M  END
>  <MODEL>
6

>  <REMARK>
 VINA RESULT:   -11.465      1.829      6.716
 INTER + INTRA:         -20.343
 INTER:                 -19.244
 INTRA:                  -1.099
 UNBOUND:                -0.500
  Name = 
  16 active torsions:
  status: ('A' for Active; 'I' for Inactive)
    1  A    between atoms: C_1  and  O_2
    2  A    between atoms: O_2  and  C_3
    3  A    between atoms: C_4  and  C_5
    4  A    between atoms: C_5  and  C_6
    5  A    between atoms: C_8  and  C_13
    6  A    between atoms: C_11  and  O_12
    7  A    between atoms: C_13  and  C_14
    8  A    between atoms: C_19  and  O_20
    9  A    between atoms: C_21  and  O_22
   10  A    between atoms: C_25  and  C_26
   11  A    between atoms: C_26  and  C_27
   12  A    between atoms: C_29  and  C_34
   13  A    between atoms: C_32  and  O_33
   14  A    between atoms: C_34  and  C_35
   15  A    between atoms: C_40  and  O_41
   16  A    between atoms: C_43  and  C_47
                            x       y       z     vdW  Elec       q    Type
                         _______ _______ _______ _____ _____    ______ ____

>  <TORSDO>
F 15

$$$$
=
 OpenBabel09092515023D

 57 63  0  0  1  0  0  0  0  0999 V2000
   87.1210   51.6020   44.0320 C   0  0  0  0  0  0  0  0  0  0  0  0
   87.8640   52.2470   43.0170 C   0  0  0  0  0  0  0  0  0  0  0  0
   88.5990   51.4740   42.0910 C   0  0  0  0  0  0  0  0  0  0  0  0
   88.5640   50.0580   42.1630 C   0  0  0  0  0  0  0  0  0  0  0  0
   87.6730   49.4410   43.0650 C   0  0  0  0  0  0  0  0  0  0  0  0
   86.9710   50.2020   44.0180 C   0  0  0  0  0  0  0  0  0  0  0  0
   87.5010   48.0490   43.0220 O   0  0  0  0  0  0  0  0  0  0  0  0
   87.9400   47.2650   41.9150 C   0  0  1  0  0  3  0  0  0  0  0  0
   89.3640   47.6700   41.5210 C   0  0  0  0  0  2  0  0  0  0  0  0
   89.4700   49.1630   41.3830 C   0  0  0  0  0  0  0  0  0  0  0  0
   90.4270   49.6250   40.7080 O   0  0  0  0  0  0  0  0  0  0  0  0
   87.8750   45.7940   42.2540 C   0  0  0  0  0  0  0  0  0  0  0  0
   88.9840   45.1520   42.8290 C   0  0  0  0  0  3  0  0  0  0  0  0
   88.9130   43.8020   43.1900 C   0  0  0  0  0  3  0  0  0  0  0  0
   87.7310   43.0860   42.9860 C   0  0  0  0  0  3  0  0  0  0  0  0
   86.6180   43.7160   42.4250 C   0  0  0  0  0  3  0  0  0  0  0  0
   86.6840   45.0660   42.0660 C   0  0  0  0  0  3  0  0  0  0  0  0
   87.0520   52.4240   46.3530 C   0  0  0  0  0  1  0  0  0  0  0  0
   86.5020   52.3460   45.0420 O   0  0  0  0  0  0  0  0  0  0  0  0
   89.3240   52.1460   41.1030 O   0  0  0  0  0  0  0  0  0  0  0  0
   89.0430   52.1110   40.2100 H   0  0  0  0  0  0  0  0  0  0  0  0
   87.7830   53.7520   42.8340 C   0  0  0  0  0  2  0  0  0  0  0  0
   86.3460   54.2210   42.8940 C   0  0  0  0  0  0  0  0  0  0  0  0
   85.8860   54.9100   44.0280 C   0  0  0  0  0  3  0  0  0  0  0  0
   84.5830   55.4260   44.0760 C   0  0  0  0  0  0  0  0  0  0  0  0
   83.7190   55.2130   42.9910 C   0  0  0  0  0  3  0  0  0  0  0  0
   84.1590   54.5090   41.8670 C   0  0  0  0  0  3  0  0  0  0  0  0
   85.4720   54.0220   41.8070 C   0  0  0  0  0  0  0  0  0  0  0  0
   85.9070   53.3390   40.6710 O   0  0  0  0  0  0  0  0  0  0  0  0
   85.9930   52.4070   40.6900 H   0  0  0  0  0  0  0  0  0  0  0  0
   84.1510   56.2550   45.2570 C   0  0  0  0  0  2  0  0  0  0  0  0
   84.3590   55.4830   46.5440 C   0  0  0  0  0  0  0  0  0  0  0  0
   83.4070   54.5100   46.9070 C   0  0  0  0  0  3  0  0  0  0  0  0
   83.5900   53.7200   48.0440 C   0  0  0  0  0  3  0  0  0  0  0  0
   84.7300   53.8850   48.8320 C   0  0  0  0  0  3  0  0  0  0  0  0
   85.6840   54.8430   48.4880 C   0  0  0  0  0  3  0  0  0  0  0  0
   85.5130   55.6480   47.3540 C   0  0  0  0  0  0  0  0  0  0  0  0
   86.5050   56.5910   47.0750 O   0  0  0  0  0  0  0  0  0  0  0  0
   87.3970   56.4120   47.2990 H   0  0  0  0  0  0  0  0  0  0  0  0
   86.0360   49.5220   45.0010 C   0  0  0  0  0  2  0  0  0  0  0  0
   84.8470   48.8630   44.3320 C   0  0  0  0  0  0  0  0  0  0  0  0
   83.8340   49.6680   43.7740 C   0  0  0  0  0  3  0  0  0  0  0  0
   82.7570   49.0920   43.0790 C   0  0  0  0  0  0  0  0  0  0  0  0
   82.6970   47.6980   42.9410 C   0  0  0  0  0  3  0  0  0  0  0  0
   83.6900   46.8910   43.4950 C   0  0  0  0  0  3  0  0  0  0  0  0
   84.7740   47.4610   44.1750 C   0  0  0  0  0  0  0  0  0  0  0  0
   85.7780   46.6370   44.6780 O   0  0  0  0  0  0  0  0  0  0  0  0
   86.3160   46.9320   45.3860 H   0  0  0  0  0  0  0  0  0  0  0  0
   81.7170   49.9620   42.4150 C   0  0  0  0  0  2  0  0  0  0  0  0
   80.4080   49.9290   43.1650 C   0  0  0  0  0  0  0  0  0  0  0  0
   80.0590   48.7880   43.9130 C   0  0  0  0  0  3  0  0  0  0  0  0
   78.8650   48.7520   44.6390 C   0  0  0  0  0  3  0  0  0  0  0  0
   78.0030   49.8500   44.6220 C   0  0  0  0  0  3  0  0  0  0  0  0
   78.3370   50.9900   43.8820 C   0  0  0  0  0  3  0  0  0  0  0  0
   79.5380   51.0390   43.1560 C   0  0  0  0  0  0  0  0  0  0  0  0
   79.8680   52.1800   42.4260 O   0  0  0  0  0  0  0  0  0  0  0  0
   80.6210   52.1780   41.8690 H   0  0  0  0  0  0  0  0  0  0  0  0
  1 19  1  0  0  0  0
  2  1  2  0  0  0  0
  3  4  2  0  0  0  0
  3  2  1  0  0  0  0
  4  5  1  0  0  0  0
  5  6  2  0  0  0  0
  6  1  1  0  0  0  0
  6 40  1  0  0  0  0
  7  5  1  0  0  0  0
  8 12  1  1  0  0  0
  8  7  1  0  0  0  0
  9  8  1  0  0  0  0
 10  9  1  0  0  0  0
 10  4  1  0  0  0  0
 11 10  2  0  0  0  0
 12 13  1  0  0  0  0
 13 14  2  0  0  0  0
 15 14  1  0  0  0  0
 16 15  2  0  0  0  0
 17 12  2  0  0  0  0
 17 16  1  0  0  0  0
 19 18  1  0  0  0  0
 20  3  1  0  0  0  0
 21 20  1  0  0  0  0
 22 23  1  0  0  0  0
 22  2  1  0  0  0  0
 23 24  1  0  0  0  0
 24 25  2  0  0  0  0
 25 31  1  0  0  0  0
 26 25  1  0  0  0  0
 27 26  2  0  0  0  0
 28 27  1  0  0  0  0
 28 23  2  0  0  0  0
 29 30  1  0  0  0  0
 29 28  1  0  0  0  0
 31 32  1  0  0  0  0
 32 33  2  0  0  0  0
 32 37  1  0  0  0  0
 33 34  1  0  0  0  0
 34 35  2  0  0  0  0
 36 35  1  0  0  0  0
 37 36  2  0  0  0  0
 38 39  1  0  0  0  0
 38 37  1  0  0  0  0
 41 40  1  0  0  0  0
 42 41  2  0  0  0  0
 43 42  1  0  0  0  0
 44 43  2  0  0  0  0
 44 45  1  0  0  0  0
 45 46  2  0  0  0  0
 46 41  1  0  0  0  0
 46 47  1  0  0  0  0
 47 48  1  0  0  0  0
 49 43  1  0  0  0  0
 49 50  1  0  0  0  0
 50 51  1  0  0  0  0
 51 52  2  0  0  0  0
 53 52  1  0  0  0  0
 54 53  2  0  0  0  0
 55 50  2  0  0  0  0
 55 54  1  0  0  0  0
 56 55  1  0  0  0  0
 57 56  1  0  0  0  0
M  END
>  <MODEL>
7

>  <REMARK>
 VINA RESULT:   -11.439      1.794      6.348
 INTER + INTRA:         -20.298
 INTER:                 -18.127
 INTRA:                  -2.171
 UNBOUND:                -0.500
  Name = 
  16 active torsions:
  status: ('A' for Active; 'I' for Inactive)
    1  A    between atoms: C_1  and  O_2
    2  A    between atoms: O_2  and  C_3
    3  A    between atoms: C_4  and  C_5
    4  A    between atoms: C_5  and  C_6
    5  A    between atoms: C_8  and  C_13
    6  A    between atoms: C_11  and  O_12
    7  A    between atoms: C_13  and  C_14
    8  A    between atoms: C_19  and  O_20
    9  A    between atoms: C_21  and  O_22
   10  A    between atoms: C_25  and  C_26
   11  A    between atoms: C_26  and  C_27
   12  A    between atoms: C_29  and  C_34
   13  A    between atoms: C_32  and  O_33
   14  A    between atoms: C_34  and  C_35
   15  A    between atoms: C_40  and  O_41
   16  A    between atoms: C_43  and  C_47
                            x       y       z     vdW  Elec       q    Type
                         _______ _______ _______ _____ _____    ______ ____

>  <TORSDO>
F 15

$$$$
=
 OpenBabel09092515023D

 57 63  0  0  1  0  0  0  0  0999 V2000
   84.7280   51.8130   43.5560 C   0  0  0  0  0  0  0  0  0  0  0  0
   85.1600   52.7980   42.6390 C   0  0  0  0  0  0  0  0  0  0  0  0
   86.2810   52.5450   41.8190 C   0  0  0  0  0  0  0  0  0  0  0  0
   86.9500   51.2980   41.8970 C   0  0  0  0  0  0  0  0  0  0  0  0
   86.3910   50.2700   42.6840 C   0  0  0  0  0  0  0  0  0  0  0  0
   85.3010   50.5260   43.5350 C   0  0  0  0  0  0  0  0  0  0  0  0
   86.9430   48.9810   42.6300 O   0  0  0  0  0  0  0  0  0  0  0  0
   87.8380   48.5820   41.5930 C   0  0  1  0  0  3  0  0  0  0  0  0
   88.9040   49.6620   41.3800 C   0  0  0  0  0  2  0  0  0  0  0  0
   88.2640   51.0160   41.2460 C   0  0  0  0  0  0  0  0  0  0  0  0
   88.9320   51.9290   40.6930 O   0  0  0  0  0  0  0  0  0  0  0  0
   88.4780   47.2560   41.9330 C   0  0  0  0  0  0  0  0  0  0  0  0
   89.8680   47.1700   42.1170 C   0  0  0  0  0  3  0  0  0  0  0  0
   90.4610   45.9550   42.4790 C   0  0  0  0  0  3  0  0  0  0  0  0
   89.6680   44.8200   42.6670 C   0  0  0  0  0  3  0  0  0  0  0  0
   88.2840   44.8960   42.4980 C   0  0  0  0  0  3  0  0  0  0  0  0
   87.6870   46.1100   42.1390 C   0  0  0  0  0  3  0  0  0  0  0  0
   83.9870   52.2880   45.8580 C   0  0  0  0  0  1  0  0  0  0  0  0
   83.7110   52.0930   44.4750 O   0  0  0  0  0  0  0  0  0  0  0  0
   86.6810   53.5430   40.9260 O   0  0  0  0  0  0  0  0  0  0  0  0
   86.9710   53.3130   40.0650 H   0  0  0  0  0  0  0  0  0  0  0  0
   84.3590   54.0720   42.4360 C   0  0  0  0  0  2  0  0  0  0  0  0
   84.9240   55.1980   43.2740 C   0  0  0  0  0  0  0  0  0  0  0  0
   85.4540   54.9200   44.5450 C   0  0  0  0  0  3  0  0  0  0  0  0
   86.0570   55.9290   45.3080 C   0  0  0  0  0  0  0  0  0  0  0  0
   86.0910   57.2410   44.8090 C   0  0  0  0  0  3  0  0  0  0  0  0
   85.5460   57.5330   43.5570 C   0  0  0  0  0  3  0  0  0  0  0  0
   84.9730   56.5170   42.7810 C   0  0  0  0  0  0  0  0  0  0  0  0
   84.4500   56.8170   41.5230 O   0  0  0  0  0  0  0  0  0  0  0  0
   84.0180   57.6350   41.3780 H   0  0  0  0  0  0  0  0  0  0  0  0
   86.7170   55.5830   46.6180 C   0  0  0  0  0  2  0  0  0  0  0  0
   85.7540   54.8200   47.5030 C   0  0  0  0  0  0  0  0  0  0  0  0
   86.1540   53.5680   48.0110 C   0  0  0  0  0  3  0  0  0  0  0  0
   85.3330   52.8580   48.8910 C   0  0  0  0  0  3  0  0  0  0  0  0
   84.1040   53.3910   49.2830 C   0  0  0  0  0  3  0  0  0  0  0  0
   83.6920   54.6300   48.7910 C   0  0  0  0  0  3  0  0  0  0  0  0
   84.5000   55.3530   47.9030 C   0  0  0  0  0  0  0  0  0  0  0  0
   84.0190   56.5810   47.4460 O   0  0  0  0  0  0  0  0  0  0  0  0
   83.1820   56.8920   47.7320 H   0  0  0  0  0  0  0  0  0  0  0  0
   84.7250   49.4180   44.3970 C   0  0  0  0  0  2  0  0  0  0  0  0
   83.3620   48.9500   43.9310 C   0  0  0  0  0  0  0  0  0  0  0  0
   82.3450   49.8990   43.7050 C   0  0  0  0  0  3  0  0  0  0  0  0
   81.0930   49.5080   43.2000 C   0  0  0  0  0  0  0  0  0  0  0  0
   80.8600   48.1550   42.9170 C   0  0  0  0  0  3  0  0  0  0  0  0
   81.8560   47.2060   43.1430 C   0  0  0  0  0  3  0  0  0  0  0  0
   83.1110   47.5930   43.6320 C   0  0  0  0  0  0  0  0  0  0  0  0
   84.1050   46.6320   43.8040 O   0  0  0  0  0  0  0  0  0  0  0  0
   84.4660   46.4780   44.6550 H   0  0  0  0  0  0  0  0  0  0  0  0
   80.0360   50.5390   42.8860 C   0  0  0  0  0  2  0  0  0  0  0  0
   78.8040   50.3450   43.7360 C   0  0  0  0  0  0  0  0  0  0  0  0
   78.6950   49.2090   44.5600 C   0  0  0  0  0  3  0  0  0  0  0  0
   77.5760   49.0280   45.3780 C   0  0  0  0  0  3  0  0  0  0  0  0
   76.5500   49.9760   45.3780 C   0  0  0  0  0  3  0  0  0  0  0  0
   76.6450   51.1100   44.5630 C   0  0  0  0  0  3  0  0  0  0  0  0
   77.7700   51.3030   43.7440 C   0  0  0  0  0  0  0  0  0  0  0  0
   77.8620   52.4380   42.9390 O   0  0  0  0  0  0  0  0  0  0  0  0
   77.1110   52.9830   42.8110 H   0  0  0  0  0  0  0  0  0  0  0  0
  1 19  1  0  0  0  0
  2  1  2  0  0  0  0
  3  4  2  0  0  0  0
  3  2  1  0  0  0  0
  4  5  1  0  0  0  0
  5  6  2  0  0  0  0
  6  1  1  0  0  0  0
  6 40  1  0  0  0  0
  7  5  1  0  0  0  0
  8 12  1  1  0  0  0
  8  7  1  0  0  0  0
  9  8  1  0  0  0  0
 10  9  1  0  0  0  0
 10  4  1  0  0  0  0
 11 10  2  0  0  0  0
 12 13  2  0  0  0  0
 12 17  1  0  0  0  0
 13 14  1  0  0  0  0
 14 15  2  0  0  0  0
 16 15  1  0  0  0  0
 17 16  2  0  0  0  0
 19 18  1  0  0  0  0
 20  3  1  0  0  0  0
 21 20  1  0  0  0  0
 22  2  1  0  0  0  0
 22 23  1  0  0  0  0
 23 24  1  0  0  0  0
 24 25  2  0  0  0  0
 25 31  1  0  0  0  0
 26 25  1  0  0  0  0
 27 26  2  0  0  0  0
 28 23  2  0  0  0  0
 28 27  1  0  0  0  0
 29 28  1  0  0  0  0
 30 29  1  0  0  0  0
 31 32  1  0  0  0  0
 32 37  2  0  0  0  0
 32 33  1  0  0  0  0
 33 34  2  0  0  0  0
 34 35  1  0  0  0  0
 36 35  2  0  0  0  0
 37 36  1  0  0  0  0
 38 39  1  0  0  0  0
 38 37  1  0  0  0  0
 41 40  1  0  0  0  0
 42 41  1  0  0  0  0
 43 42  2  0  0  0  0
 44 45  2  0  0  0  0
 44 43  1  0  0  0  0
 45 46  1  0  0  0  0
 46 47  1  0  0  0  0
 46 41  2  0  0  0  0
 47 48  1  0  0  0  0
 49 43  1  0  0  0  0
 49 50  1  0  0  0  0
 50 55  2  0  0  0  0
 50 51  1  0  0  0  0
 51 52  2  0  0  0  0
 52 53  1  0  0  0  0
 54 53  2  0  0  0  0
 55 54  1  0  0  0  0
 56 55  1  0  0  0  0
 57 56  1  0  0  0  0
M  END
>  <MODEL>
8

>  <REMARK>
 VINA RESULT:   -11.226      1.750      6.708
 INTER + INTRA:         -19.930
 INTER:                 -19.430
 INTRA:                  -0.500
 UNBOUND:                -0.500
  Name = 
  16 active torsions:
  status: ('A' for Active; 'I' for Inactive)
    1  A    between atoms: C_1  and  O_2
    2  A    between atoms: O_2  and  C_3
    3  A    between atoms: C_4  and  C_5
    4  A    between atoms: C_5  and  C_6
    5  A    between atoms: C_8  and  C_13
    6  A    between atoms: C_11  and  O_12
    7  A    between atoms: C_13  and  C_14
    8  A    between atoms: C_19  and  O_20
    9  A    between atoms: C_21  and  O_22
   10  A    between atoms: C_25  and  C_26
   11  A    between atoms: C_26  and  C_27
   12  A    between atoms: C_29  and  C_34
   13  A    between atoms: C_32  and  O_33
   14  A    between atoms: C_34  and  C_35
   15  A    between atoms: C_40  and  O_41
   16  A    between atoms: C_43  and  C_47
                            x       y       z     vdW  Elec       q    Type
                         _______ _______ _______ _____ _____    ______ ____

>  <TORSDO>
F 15

$$$$
=
 OpenBabel09092515023D

 57 63  0  0  1  0  0  0  0  0999 V2000
   84.0070   51.3930   42.7300 C   0  0  0  0  0  0  0  0  0  0  0  0
   84.2660   50.2760   43.5550 C   0  0  0  0  0  0  0  0  0  0  0  0
   85.5530   49.6950   43.5610 C   0  0  0  0  0  0  0  0  0  0  0  0
   86.5860   50.2510   42.7640 C   0  0  0  0  0  0  0  0  0  0  0  0
   86.3520   51.4690   42.0950 C   0  0  0  0  0  0  0  0  0  0  0  0
   85.0620   52.0310   42.0500 C   0  0  0  0  0  0  0  0  0  0  0  0
   87.4160   52.1190   41.4500 O   0  0  0  0  0  0  0  0  0  0  0  0
   88.7770   51.7730   41.6990 C   0  0  1  0  0  3  0  0  0  0  0  0
   88.9430   50.2510   41.6680 C   0  0  0  0  0  2  0  0  0  0  0  0
   87.9030   49.5880   42.5280 C   0  0  0  0  0  0  0  0  0  0  0  0
   88.1260   48.4130   42.9190 O   0  0  0  0  0  0  0  0  0  0  0  0
   89.6810   52.4320   40.6820 C   0  0  0  0  0  0  0  0  0  0  0  0
   90.0630   51.7380   39.5230 C   0  0  0  0  0  3  0  0  0  0  0  0
   90.8600   52.3590   38.5550 C   0  0  0  0  0  3  0  0  0  0  0  0
   91.2730   53.6820   38.7350 C   0  0  0  0  0  3  0  0  0  0  0  0
   90.8890   54.3860   39.8780 C   0  0  0  0  0  3  0  0  0  0  0  0
   90.0900   53.7690   40.8460 C   0  0  0  0  0  3  0  0  0  0  0  0
   81.7880   51.3540   41.6590 C   0  0  0  0  0  1  0  0  0  0  0  0
   82.7080   51.8960   42.6010 O   0  0  0  0  0  0  0  0  0  0  0  0
   85.7730   48.5890   44.3880 O   0  0  0  0  0  0  0  0  0  0  0  0
   85.8670   48.7080   45.3130 H   0  0  0  0  0  0  0  0  0  0  0  0
   83.2150   49.7700   44.5280 C   0  0  0  0  0  2  0  0  0  0  0  0
   82.5250   48.5410   43.9770 C   0  0  0  0  0  0  0  0  0  0  0  0
   83.2200   47.6820   43.1130 C   0  0  0  0  0  3  0  0  0  0  0  0
   82.6330   46.4950   42.6530 C   0  0  0  0  0  0  0  0  0  0  0  0
   81.3170   46.1880   43.0310 C   0  0  0  0  0  3  0  0  0  0  0  0
   80.6070   47.0480   43.8730 C   0  0  0  0  0  3  0  0  0  0  0  0
   81.2070   48.2170   44.3580 C   0  0  0  0  0  0  0  0  0  0  0  0
   80.4950   49.0580   45.2140 O   0  0  0  0  0  0  0  0  0  0  0  0
   80.9280   49.7770   45.6310 H   0  0  0  0  0  0  0  0  0  0  0  0
   83.4400   45.5360   41.8160 C   0  0  0  0  0  2  0  0  0  0  0  0
   84.6520   45.0590   42.5880 C   0  0  0  0  0  0  0  0  0  0  0  0
   84.5210   43.9230   43.4120 C   0  0  0  0  0  3  0  0  0  0  0  0
   85.6250   43.3990   44.0880 C   0  0  0  0  0  3  0  0  0  0  0  0
   86.8790   43.9960   43.9460 C   0  0  0  0  0  3  0  0  0  0  0  0
   87.0280   45.1210   43.1340 C   0  0  0  0  0  3  0  0  0  0  0  0
   85.9290   45.6630   42.4530 C   0  0  0  0  0  0  0  0  0  0  0  0
   86.1510   46.7950   41.6650 O   0  0  0  0  0  0  0  0  0  0  0  0
   85.9180   47.6430   41.9880 H   0  0  0  0  0  0  0  0  0  0  0  0
   84.8190   53.3290   41.3020 C   0  0  0  0  0  2  0  0  0  0  0  0
   84.8870   54.5510   42.1950 C   0  0  0  0  0  0  0  0  0  0  0  0
   85.5830   54.4750   43.4180 C   0  0  0  0  0  3  0  0  0  0  0  0
   85.7310   55.6100   44.2350 C   0  0  0  0  0  0  0  0  0  0  0  0
   85.1800   56.8300   43.8190 C   0  0  0  0  0  3  0  0  0  0  0  0
   84.4830   56.9150   42.6140 C   0  0  0  0  0  3  0  0  0  0  0  0
   84.3460   55.7910   41.7900 C   0  0  0  0  0  0  0  0  0  0  0  0
   83.6860   55.9130   40.5690 O   0  0  0  0  0  0  0  0  0  0  0  0
   82.7510   55.8750   40.5350 H   0  0  0  0  0  0  0  0  0  0  0  0
   86.5450   55.5410   45.5040 C   0  0  0  0  0  2  0  0  0  0  0  0
   85.7700   54.8880   46.6230 C   0  0  0  0  0  0  0  0  0  0  0  0
   84.8180   55.6350   47.3420 C   0  0  0  0  0  3  0  0  0  0  0  0
   84.0690   55.0380   48.3610 C   0  0  0  0  0  3  0  0  0  0  0  0
   84.2660   53.6930   48.6770 C   0  0  0  0  0  3  0  0  0  0  0  0
   85.2100   52.9390   47.9700 C   0  0  0  0  0  3  0  0  0  0  0  0
   85.9620   53.5280   46.9400 C   0  0  0  0  0  0  0  0  0  0  0  0
   86.8950   52.7700   46.2350 O   0  0  0  0  0  0  0  0  0  0  0  0
   87.7260   52.5740   46.6200 H   0  0  0  0  0  0  0  0  0  0  0  0
  1  2  1  0  0  0  0
  2  3  2  0  0  0  0
  2 22  1  0  0  0  0
  3 20  1  0  0  0  0
  4  3  1  0  0  0  0
  5  4  2  0  0  0  0
  6  5  1  0  0  0  0
  6  1  2  0  0  0  0
  7  8  1  0  0  0  0
  7  5  1  0  0  0  0
  8 12  1  6  0  0  0
  9  8  1  0  0  0  0
  9 10  1  0  0  0  0
 10  4  1  0  0  0  0
 10 11  2  0  0  0  0
 12 17  1  0  0  0  0
 13 12  2  0  0  0  0
 14 15  2  0  0  0  0
 14 13  1  0  0  0  0
 15 16  1  0  0  0  0
 16 17  2  0  0  0  0
 18 19  1  0  0  0  0
 19  1  1  0  0  0  0
 20 21  1  0  0  0  0
 23 28  1  0  0  0  0
 23 22  1  0  0  0  0
 24 23  2  0  0  0  0
 25 26  2  0  0  0  0
 25 24  1  0  0  0  0
 26 27  1  0  0  0  0
 27 28  2  0  0  0  0
 28 29  1  0  0  0  0
 29 30  1  0  0  0  0
 31 32  1  0  0  0  0
 31 25  1  0  0  0  0
 32 33  1  0  0  0  0
 33 34  2  0  0  0  0
 35 34  1  0  0  0  0
 36 35  2  0  0  0  0
 37 32  2  0  0  0  0
 37 36  1  0  0  0  0
 38 39  1  0  0  0  0
 38 37  1  0  0  0  0
 40  6  1  0  0  0  0
 40 41  1  0  0  0  0
 41 42  1  0  0  0  0
 42 43  2  0  0  0  0
 43 49  1  0  0  0  0
 44 43  1  0  0  0  0
 45 44  2  0  0  0  0
 46 41  2  0  0  0  0
 46 45  1  0  0  0  0
 47 46  1  0  0  0  0
 48 47  1  0  0  0  0
 49 50  1  0  0  0  0
 50 55  2  0  0  0  0
 50 51  1  0  0  0  0
 51 52  2  0  0  0  0
 52 53  1  0  0  0  0
 54 53  2  0  0  0  0
 55 54  1  0  0  0  0
 56 57  1  0  0  0  0
 56 55  1  0  0  0  0
M  END
>  <MODEL>
9

>  <REMARK>
 VINA RESULT:   -11.179      2.271      9.199
 INTER + INTRA:         -19.848
 INTER:                 -16.404
 INTRA:                  -3.444
 UNBOUND:                -0.500
  Name = 
  16 active torsions:
  status: ('A' for Active; 'I' for Inactive)
    1  A    between atoms: C_1  and  O_2
    2  A    between atoms: O_2  and  C_3
    3  A    between atoms: C_4  and  C_5
    4  A    between atoms: C_5  and  C_6
    5  A    between atoms: C_8  and  C_13
    6  A    between atoms: C_11  and  O_12
    7  A    between atoms: C_13  and  C_14
    8  A    between atoms: C_19  and  O_20
    9  A    between atoms: C_21  and  O_22
   10  A    between atoms: C_25  and  C_26
   11  A    between atoms: C_26  and  C_27
   12  A    between atoms: C_29  and  C_34
   13  A    between atoms: C_32  and  O_33
   14  A    between atoms: C_34  and  C_35
   15  A    between atoms: C_40  and  O_41
   16  A    between atoms: C_43  and  C_47
                            x       y       z     vdW  Elec       q    Type
                         _______ _______ _______ _____ _____    ______ ____

>  <TORSDO>
F 15

$$$$
