MODEL 1
REMARK VINA RESULT:    -7.447      0.000      0.000
REMARK INTER + INTRA:         -11.609
REMARK INTER:                  -9.796
REMARK INTRA:                  -1.813
REMARK UNBOUND:                -1.115
REMARK  Name = 
REMARK  8 active torsions:
REMARK  status: ('A' for Active; 'I' for Inactive)
REMARK    1  A    between atoms: C_2  and  C_3
REMARK    2  A    between atoms: C_2  and  O_9
REMARK    3  A    between atoms: O_9  and  C_10
REMARK    4  A    between atoms: C_10  and  C_11
REMARK    5  A    between atoms: C_11  and  C_12
REMARK    6  A    between atoms: C_11  and  O_19
REMARK    7  A    between atoms: O_19  and  C_20
REMARK    8  A    between atoms: C_20  and  C_22
REMARK                            x       y       z     vdW  Elec       q    Type
REMARK                         _______ _______ _______ _____ _____    ______ ____
ROOT
ATOM      1  C   UNL     1      87.048  52.417  41.117  0.00  0.00    +0.159 C 
ENDROOT
BRANCH   1   2
ATOM      2  C   UNL     1      87.701  52.303  42.470  0.00  0.00    +0.002 C 
ATOM      3  C   UNL     1      87.267  51.466  43.416  0.00  0.00    +0.132 C 
ATOM      4  C   UNL     1      87.862  51.302  44.745  0.00  0.00    -0.013 C 
ATOM      5  C   UNL     1      87.154  50.387  45.395  0.00  0.00    +0.026 C 
ATOM      6  C   UNL     1      86.094  49.949  44.497  0.00  0.00    +0.337 C 
ATOM      7  O   UNL     1      85.220  49.085  44.766  0.00  0.00    -0.245 OA
ATOM      8  O   UNL     1      86.174  50.618  43.288  0.00  0.00    -0.423 OA
ENDBRANCH   1   2
BRANCH   1   9
ATOM      9  C   UNL     1      85.682  53.119  41.218  0.00  0.00    +0.133 C 
BRANCH   9  10
ATOM     10  O   UNL     1      85.825  54.452  41.709  0.00  0.00    -0.457 OA
BRANCH  10  12
ATOM     11  O   UNL     1      84.132  55.788  42.532  0.00  0.00    -0.245 OA
ATOM     12  C   UNL     1      85.066  54.972  42.765  0.00  0.00    +0.339 C 
BRANCH  12  13
ATOM     13  C   UNL     1      85.367  54.565  44.155  0.00  0.00    +0.059 A 
ATOM     14  C   UNL     1      84.599  53.568  44.786  0.00  0.00    -0.048 A 
ATOM     15  C   UNL     1      84.880  53.184  46.100  0.00  0.00    -0.061 A 
ATOM     16  C   UNL     1      85.928  53.789  46.799  0.00  0.00    -0.062 A 
ATOM     17  C   UNL     1      86.696  54.780  46.184  0.00  0.00    -0.061 A 
ATOM     18  C   UNL     1      86.419  55.169  44.869  0.00  0.00    -0.048 A 
ENDBRANCH  12  13
ENDBRANCH  10  12
ENDBRANCH   9  10
ENDBRANCH   1   9
BRANCH   1  19
ATOM     19  O   UNL     1      87.913  53.128  40.230  0.00  0.00    -0.454 OA
BRANCH  19  20
ATOM     20  C   UNL     1      89.096  52.593  39.709  0.00  0.00    +0.305 C 
ATOM     21  O   UNL     1      89.082  51.530  39.032  0.00  0.00    -0.251 OA
ATOM     22  C   UNL     1      90.395  53.258  40.010  0.00  0.00    +0.033 C 
ENDBRANCH  19  20
ENDBRANCH   1  19
TORSDOF 7
ENDMDL
MODEL 2
REMARK VINA RESULT:    -7.387      2.391      2.555
REMARK INTER + INTRA:         -11.526
REMARK INTER:                 -10.833
REMARK INTRA:                  -0.693
REMARK UNBOUND:                -1.115
REMARK  Name = 
REMARK  8 active torsions:
REMARK  status: ('A' for Active; 'I' for Inactive)
REMARK    1  A    between atoms: C_2  and  C_3
REMARK    2  A    between atoms: C_2  and  O_9
REMARK    3  A    between atoms: O_9  and  C_10
REMARK    4  A    between atoms: C_10  and  C_11
REMARK    5  A    between atoms: C_11  and  C_12
REMARK    6  A    between atoms: C_11  and  O_19
REMARK    7  A    between atoms: O_19  and  C_20
REMARK    8  A    between atoms: C_20  and  C_22
REMARK                            x       y       z     vdW  Elec       q    Type
REMARK                         _______ _______ _______ _____ _____    ______ ____
ROOT
ATOM      1  C   UNL     1      88.483  52.105  41.594  0.00  0.00    +0.159 C 
ENDROOT
BRANCH   1   2
ATOM      2  C   UNL     1      89.626  51.200  41.973  0.00  0.00    +0.002 C 
ATOM      3  C   UNL     1      89.547  49.868  41.910  0.00  0.00    +0.132 C 
ATOM      4  C   UNL     1      90.623  48.935  42.256  0.00  0.00    -0.013 C 
ATOM      5  C   UNL     1      90.165  47.703  42.068  0.00  0.00    +0.026 C 
ATOM      6  C   UNL     1      88.791  47.824  41.600  0.00  0.00    +0.337 C 
ATOM      7  O   UNL     1      88.031  46.863  41.315  0.00  0.00    -0.245 OA
ATOM      8  O   UNL     1      88.425  49.155  41.509  0.00  0.00    -0.423 OA
ENDBRANCH   1   2
BRANCH   1   9
ATOM      9  C   UNL     1      87.731  52.602  42.842  0.00  0.00    +0.133 C 
BRANCH   9  10
ATOM     10  O   UNL     1      87.471  54.003  42.761  0.00  0.00    -0.457 OA
BRANCH  10  12
ATOM     11  O   UNL     1      85.481  55.060  42.263  0.00  0.00    -0.245 OA
ATOM     12  C   UNL     1      86.256  54.587  43.139  0.00  0.00    +0.339 C 
BRANCH  12  13
ATOM     13  C   UNL     1      85.887  54.653  44.571  0.00  0.00    +0.059 A 
ATOM     14  C   UNL     1      84.806  53.896  45.061  0.00  0.00    -0.048 A 
ATOM     15  C   UNL     1      84.454  53.959  46.413  0.00  0.00    -0.061 A 
ATOM     16  C   UNL     1      85.174  54.776  47.287  0.00  0.00    -0.062 A 
ATOM     17  C   UNL     1      86.248  55.532  46.812  0.00  0.00    -0.061 A 
ATOM     18  C   UNL     1      86.604  55.474  45.461  0.00  0.00    -0.048 A 
ENDBRANCH  12  13
ENDBRANCH  10  12
ENDBRANCH   9  10
ENDBRANCH   1   9
BRANCH   1  19
ATOM     19  O   UNL     1      88.982  53.209  40.838  0.00  0.00    -0.454 OA
BRANCH  19  20
ATOM     20  C   UNL     1      89.596  53.077  39.588  0.00  0.00    +0.305 C 
ATOM     21  O   UNL     1      89.103  52.328  38.701  0.00  0.00    -0.251 OA
ATOM     22  C   UNL     1      90.881  53.783  39.324  0.00  0.00    +0.033 C 
ENDBRANCH  19  20
ENDBRANCH   1  19
TORSDOF 7
ENDMDL
MODEL 3
REMARK VINA RESULT:    -7.380      2.357      3.073
REMARK INTER + INTRA:         -11.515
REMARK INTER:                 -10.414
REMARK INTRA:                  -1.101
REMARK UNBOUND:                -1.115
REMARK  Name = 
REMARK  8 active torsions:
REMARK  status: ('A' for Active; 'I' for Inactive)
REMARK    1  A    between atoms: C_2  and  C_3
REMARK    2  A    between atoms: C_2  and  O_9
REMARK    3  A    between atoms: O_9  and  C_10
REMARK    4  A    between atoms: C_10  and  C_11
REMARK    5  A    between atoms: C_11  and  C_12
REMARK    6  A    between atoms: C_11  and  O_19
REMARK    7  A    between atoms: O_19  and  C_20
REMARK    8  A    between atoms: C_20  and  C_22
REMARK                            x       y       z     vdW  Elec       q    Type
REMARK                         _______ _______ _______ _____ _____    ______ ____
ROOT
ATOM      1  C   UNL     1      87.651  52.401  41.369  0.00  0.00    +0.159 C 
ENDROOT
BRANCH   1   2
ATOM      2  C   UNL     1      88.683  51.671  42.190  0.00  0.00    +0.002 C 
ATOM      3  C   UNL     1      88.847  50.347  42.137  0.00  0.00    +0.132 C 
ATOM      4  C   UNL     1      89.834  49.580  42.901  0.00  0.00    -0.013 C 
ATOM      5  C   UNL     1      89.688  48.301  42.582  0.00  0.00    +0.026 C 
ATOM      6  C   UNL     1      88.606  48.223  41.610  0.00  0.00    +0.337 C 
ATOM      7  O   UNL     1      88.180  47.167  41.076  0.00  0.00    -0.245 OA
ATOM      8  O   UNL     1      88.099  49.484  41.347  0.00  0.00    -0.423 OA
ENDBRANCH   1   2
BRANCH   1   9
ATOM      9  C   UNL     1      86.720  53.238  42.265  0.00  0.00    +0.133 C 
BRANCH   9  10
ATOM     10  O   UNL     1      86.280  52.485  43.394  0.00  0.00    -0.457 OA
BRANCH  10  12
ATOM     11  O   UNL     1      85.935  54.185  44.916  0.00  0.00    -0.245 OA
ATOM     12  C   UNL     1      86.267  52.987  44.701  0.00  0.00    +0.339 C 
BRANCH  12  13
ATOM     13  C   UNL     1      86.649  52.109  45.829  0.00  0.00    +0.059 A 
ATOM     14  C   UNL     1      87.626  51.111  45.652  0.00  0.00    -0.048 A 
ATOM     15  C   UNL     1      87.986  50.278  46.715  0.00  0.00    -0.061 A 
ATOM     16  C   UNL     1      87.377  50.430  47.963  0.00  0.00    -0.062 A 
ATOM     17  C   UNL     1      86.406  51.416  48.150  0.00  0.00    -0.061 A 
ATOM     18  C   UNL     1      86.041  52.252  47.090  0.00  0.00    -0.048 A 
ENDBRANCH  12  13
ENDBRANCH  10  12
ENDBRANCH   9  10
ENDBRANCH   1   9
BRANCH   1  19
ATOM     19  O   UNL     1      88.308  53.234  40.412  0.00  0.00    -0.454 OA
BRANCH  19  20
ATOM     20  C   UNL     1      89.253  52.762  39.495  0.00  0.00    +0.305 C 
ATOM     21  O   UNL     1      89.014  51.748  38.783  0.00  0.00    -0.251 OA
ATOM     22  C   UNL     1      90.581  53.430  39.402  0.00  0.00    +0.033 C 
ENDBRANCH  19  20
ENDBRANCH   1  19
TORSDOF 7
ENDMDL
MODEL 4
REMARK VINA RESULT:    -7.338      2.701      6.156
REMARK INTER + INTRA:         -11.456
REMARK INTER:                 -10.688
REMARK INTRA:                  -0.768
REMARK UNBOUND:                -1.115
REMARK  Name = 
REMARK  8 active torsions:
REMARK  status: ('A' for Active; 'I' for Inactive)
REMARK    1  A    between atoms: C_2  and  C_3
REMARK    2  A    between atoms: C_2  and  O_9
REMARK    3  A    between atoms: O_9  and  C_10
REMARK    4  A    between atoms: C_10  and  C_11
REMARK    5  A    between atoms: C_11  and  C_12
REMARK    6  A    between atoms: C_11  and  O_19
REMARK    7  A    between atoms: O_19  and  C_20
REMARK    8  A    between atoms: C_20  and  C_22
REMARK                            x       y       z     vdW  Elec       q    Type
REMARK                         _______ _______ _______ _____ _____    ______ ____
ROOT
ATOM      1  C   UNL     1      86.606  53.508  42.501  0.00  0.00    +0.159 C 
ENDROOT
BRANCH   1   2
ATOM      2  C   UNL     1      86.292  53.975  43.899  0.00  0.00    +0.002 C 
ATOM      3  C   UNL     1      86.119  55.262  44.212  0.00  0.00    +0.132 C 
ATOM      4  C   UNL     1      85.805  55.778  45.547  0.00  0.00    -0.013 C 
ATOM      5  C   UNL     1      85.713  57.099  45.459  0.00  0.00    +0.026 C 
ATOM      6  C   UNL     1      85.967  57.453  44.068  0.00  0.00    +0.337 C 
ATOM      7  O   UNL     1      85.965  58.621  43.602  0.00  0.00    -0.245 OA
ATOM      8  O   UNL     1      86.216  56.318  43.316  0.00  0.00    -0.423 OA
ENDBRANCH   1   2
BRANCH   1   9
ATOM      9  C   UNL     1      87.466  52.232  42.522  0.00  0.00    +0.133 C 
BRANCH   9  10
ATOM     10  O   UNL     1      87.385  51.538  41.278  0.00  0.00    -0.457 OA
BRANCH  10  12
ATOM     11  O   UNL     1      88.899  51.325  39.549  0.00  0.00    -0.245 OA
ATOM     12  C   UNL     1      88.481  50.916  40.666  0.00  0.00    +0.339 C 
BRANCH  12  13
ATOM     13  C   UNL     1      89.143  49.774  41.334  0.00  0.00    +0.059 A 
ATOM     14  C   UNL     1      88.504  48.521  41.398  0.00  0.00    -0.048 A 
ATOM     15  C   UNL     1      89.126  47.441  42.032  0.00  0.00    -0.061 A 
ATOM     16  C   UNL     1      90.390  47.599  42.606  0.00  0.00    -0.062 A 
ATOM     17  C   UNL     1      91.034  48.837  42.549  0.00  0.00    -0.061 A 
ATOM     18  C   UNL     1      90.416  49.921  41.917  0.00  0.00    -0.048 A 
ENDBRANCH  12  13
ENDBRANCH  10  12
ENDBRANCH   9  10
ENDBRANCH   1   9
BRANCH   1  19
ATOM     19  O   UNL     1      85.388  53.280  41.792  0.00  0.00    -0.454 OA
BRANCH  19  20
ATOM     20  C   UNL     1      85.001  54.011  40.663  0.00  0.00    +0.305 C 
ATOM     21  O   UNL     1      85.597  53.862  39.561  0.00  0.00    -0.251 OA
ATOM     22  C   UNL     1      83.911  55.019  40.780  0.00  0.00    +0.033 C 
ENDBRANCH  19  20
ENDBRANCH   1  19
TORSDOF 7
ENDMDL
MODEL 5
REMARK VINA RESULT:    -7.302      2.462      5.562
REMARK INTER + INTRA:         -11.406
REMARK INTER:                  -9.849
REMARK INTRA:                  -1.557
REMARK UNBOUND:                -1.115
REMARK  Name = 
REMARK  8 active torsions:
REMARK  status: ('A' for Active; 'I' for Inactive)
REMARK    1  A    between atoms: C_2  and  C_3
REMARK    2  A    between atoms: C_2  and  O_9
REMARK    3  A    between atoms: O_9  and  C_10
REMARK    4  A    between atoms: C_10  and  C_11
REMARK    5  A    between atoms: C_11  and  C_12
REMARK    6  A    between atoms: C_11  and  O_19
REMARK    7  A    between atoms: O_19  and  C_20
REMARK    8  A    between atoms: C_20  and  C_22
REMARK                            x       y       z     vdW  Elec       q    Type
REMARK                         _______ _______ _______ _____ _____    ______ ____
ROOT
ATOM      1  C   UNL     1      85.319  51.761  41.776  0.00  0.00    +0.159 C 
ENDROOT
BRANCH   1   2
ATOM      2  C   UNL     1      86.605  52.461  42.132  0.00  0.00    +0.002 C 
ATOM      3  C   UNL     1      87.718  52.350  41.401  0.00  0.00    +0.132 C 
ATOM      4  C   UNL     1      88.994  53.009  41.689  0.00  0.00    -0.013 C 
ATOM      5  C   UNL     1      89.855  52.654  40.743  0.00  0.00    +0.026 C 
ATOM      6  C   UNL     1      89.147  51.761  39.835  0.00  0.00    +0.337 C 
ATOM      7  O   UNL     1      89.642  51.220  38.812  0.00  0.00    -0.245 OA
ATOM      8  O   UNL     1      87.839  51.583  40.250  0.00  0.00    -0.423 OA
ENDBRANCH   1   2
BRANCH   1   9
ATOM      9  C   UNL     1      84.740  51.012  42.990  0.00  0.00    +0.133 C 
BRANCH   9  10
ATOM     10  O   UNL     1      85.762  50.706  43.939  0.00  0.00    -0.457 OA
BRANCH  10  12
ATOM     11  O   UNL     1      85.889  48.577  44.822  0.00  0.00    -0.245 OA
ATOM     12  C   UNL     1      86.368  49.447  44.044  0.00  0.00    +0.339 C 
BRANCH  12  13
ATOM     13  C   UNL     1      87.574  49.145  43.243  0.00  0.00    +0.059 A 
ATOM     14  C   UNL     1      87.484  48.317  42.108  0.00  0.00    -0.048 A 
ATOM     15  C   UNL     1      88.624  48.027  41.352  0.00  0.00    -0.061 A 
ATOM     16  C   UNL     1      89.863  48.559  41.719  0.00  0.00    -0.062 A 
ATOM     17  C   UNL     1      89.964  49.381  42.844  0.00  0.00    -0.061 A 
ATOM     18  C   UNL     1      88.828  49.674  43.604  0.00  0.00    -0.048 A 
ENDBRANCH  12  13
ENDBRANCH  10  12
ENDBRANCH   9  10
ENDBRANCH   1   9
BRANCH   1  19
ATOM     19  O   UNL     1      84.379  52.716  41.282  0.00  0.00    -0.454 OA
BRANCH  19  20
ATOM     20  C   UNL     1      84.747  53.918  40.667  0.00  0.00    +0.305 C 
ATOM     21  O   UNL     1      85.324  53.920  39.546  0.00  0.00    -0.251 OA
ATOM     22  C   UNL     1      84.508  55.207  41.375  0.00  0.00    +0.033 C 
ENDBRANCH  19  20
ENDBRANCH   1  19
TORSDOF 7
ENDMDL
MODEL 6
REMARK VINA RESULT:    -7.271      1.249      4.017
REMARK INTER + INTRA:         -11.362
REMARK INTER:                  -9.460
REMARK INTRA:                  -1.901
REMARK UNBOUND:                -1.115
REMARK  Name = 
REMARK  8 active torsions:
REMARK  status: ('A' for Active; 'I' for Inactive)
REMARK    1  A    between atoms: C_2  and  C_3
REMARK    2  A    between atoms: C_2  and  O_9
REMARK    3  A    between atoms: O_9  and  C_10
REMARK    4  A    between atoms: C_10  and  C_11
REMARK    5  A    between atoms: C_11  and  C_12
REMARK    6  A    between atoms: C_11  and  O_19
REMARK    7  A    between atoms: O_19  and  C_20
REMARK    8  A    between atoms: C_20  and  C_22
REMARK                            x       y       z     vdW  Elec       q    Type
REMARK                         _______ _______ _______ _____ _____    ______ ____
ROOT
ATOM      1  C   UNL     1      86.991  52.574  41.419  0.00  0.00    +0.159 C 
ENDROOT
BRANCH   1   2
ATOM      2  C   UNL     1      85.655  53.257  41.558  0.00  0.00    +0.002 C 
ATOM      3  C   UNL     1      85.482  54.372  42.273  0.00  0.00    +0.132 C 
ATOM      4  C   UNL     1      84.214  55.087  42.440  0.00  0.00    -0.013 C 
ATOM      5  C   UNL     1      84.442  56.138  43.217  0.00  0.00    +0.026 C 
ATOM      6  C   UNL     1      85.857  56.117  43.561  0.00  0.00    +0.337 C 
ATOM      7  O   UNL     1      86.444  56.960  44.286  0.00  0.00    -0.245 OA
ATOM      8  O   UNL     1      86.482  55.029  42.977  0.00  0.00    -0.423 OA
ENDBRANCH   1   2
BRANCH   1   9
ATOM      9  C   UNL     1      86.862  51.055  41.627  0.00  0.00    +0.133 C 
BRANCH   9  10
ATOM     10  O   UNL     1      87.263  50.681  42.945  0.00  0.00    -0.457 OA
BRANCH  10  12
ATOM     11  O   UNL     1      85.851  49.414  44.260  0.00  0.00    -0.245 OA
ATOM     12  C   UNL     1      86.368  50.538  44.014  0.00  0.00    +0.339 C 
BRANCH  12  13
ATOM     13  C   UNL     1      86.028  51.712  44.848  0.00  0.00    +0.059 A 
ATOM     14  C   UNL     1      87.048  52.485  45.434  0.00  0.00    -0.048 A 
ATOM     15  C   UNL     1      86.729  53.592  46.226  0.00  0.00    -0.061 A 
ATOM     16  C   UNL     1      85.393  53.939  46.442  0.00  0.00    -0.062 A 
ATOM     17  C   UNL     1      84.373  53.178  45.866  0.00  0.00    -0.061 A 
ATOM     18  C   UNL     1      84.686  52.070  45.073  0.00  0.00    -0.048 A 
ENDBRANCH  12  13
ENDBRANCH  10  12
ENDBRANCH   9  10
ENDBRANCH   1   9
BRANCH   1  19
ATOM     19  O   UNL     1      87.538  52.859  40.131  0.00  0.00    -0.454 OA
BRANCH  19  20
ATOM     20  C   UNL     1      88.811  52.446  39.722  0.00  0.00    +0.305 C 
ATOM     21  O   UNL     1      88.955  51.688  38.724  0.00  0.00    -0.251 OA
ATOM     22  C   UNL     1      90.005  52.858  40.512  0.00  0.00    +0.033 C 
ENDBRANCH  19  20
ENDBRANCH   1  19
TORSDOF 7
ENDMDL
MODEL 7
REMARK VINA RESULT:    -7.150      3.460      7.332
REMARK INTER + INTRA:         -11.191
REMARK INTER:                 -10.217
REMARK INTRA:                  -0.974
REMARK UNBOUND:                -1.115
REMARK  Name = 
REMARK  8 active torsions:
REMARK  status: ('A' for Active; 'I' for Inactive)
REMARK    1  A    between atoms: C_2  and  C_3
REMARK    2  A    between atoms: C_2  and  O_9
REMARK    3  A    between atoms: O_9  and  C_10
REMARK    4  A    between atoms: C_10  and  C_11
REMARK    5  A    between atoms: C_11  and  C_12
REMARK    6  A    between atoms: C_11  and  O_19
REMARK    7  A    between atoms: O_19  and  C_20
REMARK    8  A    between atoms: C_20  and  C_22
REMARK                            x       y       z     vdW  Elec       q    Type
REMARK                         _______ _______ _______ _____ _____    ______ ____
ROOT
ATOM      1  C   UNL     1      86.276  49.986  44.300  0.00  0.00    +0.159 C 
ENDROOT
BRANCH   1   2
ATOM      2  C   UNL     1      87.481  49.621  43.472  0.00  0.00    +0.002 C 
ATOM      3  C   UNL     1      88.174  50.519  42.767  0.00  0.00    +0.132 C 
ATOM      4  C   UNL     1      89.356  50.231  41.950  0.00  0.00    -0.013 C 
ATOM      5  C   UNL     1      89.759  51.371  41.405  0.00  0.00    +0.026 C 
ATOM      6  C   UNL     1      88.843  52.410  41.860  0.00  0.00    +0.337 C 
ATOM      7  O   UNL     1      88.909  53.627  41.548  0.00  0.00    -0.245 OA
ATOM      8  O   UNL     1      87.877  51.874  42.692  0.00  0.00    -0.423 OA
ENDBRANCH   1   2
BRANCH   1   9
ATOM      9  C   UNL     1      85.047  49.157  43.886  0.00  0.00    +0.133 C 
BRANCH   9  10
ATOM     10  O   UNL     1      85.164  47.806  44.332  0.00  0.00    -0.457 OA
BRANCH  10  12
ATOM     11  O   UNL     1      83.949  46.512  42.857  0.00  0.00    -0.245 OA
ATOM     12  C   UNL     1      85.026  46.698  43.486  0.00  0.00    +0.339 C 
BRANCH  12  13
ATOM     13  C   UNL     1      86.148  45.744  43.338  0.00  0.00    +0.059 A 
ATOM     14  C   UNL     1      87.245  46.061  42.516  0.00  0.00    -0.048 A 
ATOM     15  C   UNL     1      88.305  45.160  42.373  0.00  0.00    -0.061 A 
ATOM     16  C   UNL     1      88.280  43.936  43.045  0.00  0.00    -0.062 A 
ATOM     17  C   UNL     1      87.195  43.610  43.863  0.00  0.00    -0.061 A 
ATOM     18  C   UNL     1      86.133  44.507  44.010  0.00  0.00    -0.048 A 
ENDBRANCH  12  13
ENDBRANCH  10  12
ENDBRANCH   9  10
ENDBRANCH   1   9
BRANCH   1  19
ATOM     19  O   UNL     1      86.572  49.786  45.683  0.00  0.00    -0.454 OA
BRANCH  19  20
ATOM     20  C   UNL     1      87.311  50.689  46.455  0.00  0.00    +0.305 C 
ATOM     21  O   UNL     1      87.461  51.885  46.084  0.00  0.00    -0.251 OA
ATOM     22  C   UNL     1      87.977  50.215  47.701  0.00  0.00    +0.033 C 
ENDBRANCH  19  20
ENDBRANCH   1  19
TORSDOF 7
ENDMDL
MODEL 8
REMARK VINA RESULT:    -7.106      2.349      3.083
REMARK INTER + INTRA:         -11.129
REMARK INTER:                 -10.715
REMARK INTRA:                  -0.414
REMARK UNBOUND:                -1.115
REMARK  Name = 
REMARK  8 active torsions:
REMARK  status: ('A' for Active; 'I' for Inactive)
REMARK    1  A    between atoms: C_2  and  C_3
REMARK    2  A    between atoms: C_2  and  O_9
REMARK    3  A    between atoms: O_9  and  C_10
REMARK    4  A    between atoms: C_10  and  C_11
REMARK    5  A    between atoms: C_11  and  C_12
REMARK    6  A    between atoms: C_11  and  O_19
REMARK    7  A    between atoms: O_19  and  C_20
REMARK    8  A    between atoms: C_20  and  C_22
REMARK                            x       y       z     vdW  Elec       q    Type
REMARK                         _______ _______ _______ _____ _____    ______ ____
ROOT
ATOM      1  C   UNL     1      87.889  52.358  41.548  0.00  0.00    +0.159 C 
ENDROOT
BRANCH   1   2
ATOM      2  C   UNL     1      89.122  51.609  41.983  0.00  0.00    +0.002 C 
ATOM      3  C   UNL     1      89.237  50.282  41.882  0.00  0.00    +0.132 C 
ATOM      4  C   UNL     1      90.408  49.496  42.279  0.00  0.00    -0.013 C 
ATOM      5  C   UNL     1      90.143  48.220  42.029  0.00  0.00    +0.026 C 
ATOM      6  C   UNL     1      88.799  48.164  41.470  0.00  0.00    +0.337 C 
ATOM      7  O   UNL     1      88.203  47.117  41.109  0.00  0.00    -0.245 OA
ATOM      8  O   UNL     1      88.255  49.434  41.386  0.00  0.00    -0.423 OA
ENDBRANCH   1   2
BRANCH   1   9
ATOM      9  C   UNL     1      87.444  53.366  42.623  0.00  0.00    +0.133 C 
BRANCH   9  10
ATOM     10  O   UNL     1      86.513  52.774  43.528  0.00  0.00    -0.457 OA
BRANCH  10  12
ATOM     11  O   UNL     1      87.513  51.783  45.356  0.00  0.00    -0.245 OA
ATOM     12  C   UNL     1      86.735  52.668  44.907  0.00  0.00    +0.339 C 
BRANCH  12  13
ATOM     13  C   UNL     1      86.049  53.594  45.834  0.00  0.00    +0.059 A 
ATOM     14  C   UNL     1      86.639  54.826  46.173  0.00  0.00    -0.048 A 
ATOM     15  C   UNL     1      85.994  55.702  47.051  0.00  0.00    -0.061 A 
ATOM     16  C   UNL     1      84.756  55.359  47.600  0.00  0.00    -0.062 A 
ATOM     17  C   UNL     1      84.161  54.139  47.271  0.00  0.00    -0.061 A 
ATOM     18  C   UNL     1      84.801  53.259  46.394  0.00  0.00    -0.048 A 
ENDBRANCH  12  13
ENDBRANCH  10  12
ENDBRANCH   9  10
ENDBRANCH   1   9
BRANCH   1  19
ATOM     19  O   UNL     1      88.151  53.026  40.313  0.00  0.00    -0.454 OA
BRANCH  19  20
ATOM     20  C   UNL     1      89.241  52.728  39.487  0.00  0.00    +0.305 C 
ATOM     21  O   UNL     1      89.220  51.722  38.727  0.00  0.00    -0.251 OA
ATOM     22  C   UNL     1      90.463  53.578  39.553  0.00  0.00    +0.033 C 
ENDBRANCH  19  20
ENDBRANCH   1  19
TORSDOF 7
ENDMDL
MODEL 9
REMARK VINA RESULT:    -6.877      1.954      4.398
REMARK INTER + INTRA:         -10.807
REMARK INTER:                  -9.692
REMARK INTRA:                  -1.115
REMARK UNBOUND:                -1.115
REMARK  Name = 
REMARK  8 active torsions:
REMARK  status: ('A' for Active; 'I' for Inactive)
REMARK    1  A    between atoms: C_2  and  C_3
REMARK    2  A    between atoms: C_2  and  O_9
REMARK    3  A    between atoms: O_9  and  C_10
REMARK    4  A    between atoms: C_10  and  C_11
REMARK    5  A    between atoms: C_11  and  C_12
REMARK    6  A    between atoms: C_11  and  O_19
REMARK    7  A    between atoms: O_19  and  C_20
REMARK    8  A    between atoms: C_20  and  C_22
REMARK                            x       y       z     vdW  Elec       q    Type
REMARK                         _______ _______ _______ _____ _____    ______ ____
ROOT
ATOM      1  C   UNL     1      86.838  52.747  42.600  0.00  0.00    +0.159 C 
ENDROOT
BRANCH   1   2
ATOM      2  C   UNL     1      85.531  53.482  42.451  0.00  0.00    +0.002 C 
ATOM      3  C   UNL     1      85.364  54.749  42.837  0.00  0.00    +0.132 C 
ATOM      4  C   UNL     1      84.124  55.520  42.713  0.00  0.00    -0.013 C 
ATOM      5  C   UNL     1      84.350  56.731  43.207  0.00  0.00    +0.026 C 
ATOM      6  C   UNL     1      85.735  56.758  43.657  0.00  0.00    +0.337 C 
ATOM      7  O   UNL     1      86.311  57.744  44.184  0.00  0.00    -0.245 OA
ATOM      8  O   UNL     1      86.344  55.537  43.426  0.00  0.00    -0.423 OA
ENDBRANCH   1   2
BRANCH   1   9
ATOM      9  C   UNL     1      86.836  51.859  43.857  0.00  0.00    +0.133 C 
BRANCH   9  10
ATOM     10  O   UNL     1      87.141  52.622  45.024  0.00  0.00    -0.457 OA
BRANCH  10  12
ATOM     11  O   UNL     1      87.083  51.189  46.833  0.00  0.00    -0.245 OA
ATOM     12  C   UNL     1      86.708  52.274  46.311  0.00  0.00    +0.339 C 
BRANCH  12  13
ATOM     13  C   UNL     1      85.806  53.183  47.052  0.00  0.00    +0.059 A 
ATOM     14  C   UNL     1      85.318  54.353  46.441  0.00  0.00    -0.048 A 
ATOM     15  C   UNL     1      84.468  55.215  47.140  0.00  0.00    -0.061 A 
ATOM     16  C   UNL     1      84.097  54.919  48.454  0.00  0.00    -0.062 A 
ATOM     17  C   UNL     1      84.576  53.761  49.071  0.00  0.00    -0.061 A 
ATOM     18  C   UNL     1      85.426  52.896  48.377  0.00  0.00    -0.048 A 
ENDBRANCH  12  13
ENDBRANCH  10  12
ENDBRANCH   9  10
ENDBRANCH   1   9
BRANCH   1  19
ATOM     19  O   UNL     1      87.077  51.960  41.432  0.00  0.00    -0.454 OA
BRANCH  19  20
ATOM     20  C   UNL     1      88.237  52.058  40.656  0.00  0.00    +0.305 C 
ATOM     21  O   UNL     1      88.233  51.719  39.441  0.00  0.00    -0.251 OA
ATOM     22  C   UNL     1      89.506  52.512  41.290  0.00  0.00    +0.033 C 
ENDBRANCH  19  20
ENDBRANCH   1  19
TORSDOF 7
ENDMDL
