MODEL 1
REMARK VINA RESULT:    -7.621      0.000      0.000
REMARK INTER + INTRA:         -11.731
REMARK INTER:                 -10.680
REMARK INTRA:                  -1.051
REMARK UNBOUND:                -0.991
REMARK  Name = 
REMARK  8 active torsions:
REMARK  status: ('A' for Active; 'I' for Inactive)
REMARK    1  A    between atoms: C_2  and  C_3
REMARK    2  A    between atoms: C_2  and  O_9
REMARK    3  A    between atoms: O_9  and  C_10
REMARK    4  A    between atoms: C_10  and  C_11
REMARK    5  A    between atoms: C_11  and  C_12
REMARK    6  A    between atoms: C_11  and  O_19
REMARK    7  A    between atoms: O_19  and  C_20
REMARK    8  A    between atoms: C_20  and  C_22
REMARK                            x       y       z     vdW  Elec       q    Type
REMARK                         _______ _______ _______ _____ _____    ______ ____
ROOT
ATOM      1  C   UNL     1      83.908  54.845  42.321  0.00  0.00    +0.159 C 
ENDROOT
BRANCH   1   2
ATOM      2  C   UNL     1      84.240  53.745  43.296  0.00  0.00    +0.002 C 
ATOM      3  C   UNL     1      83.543  52.609  43.372  0.00  0.00    +0.132 C 
ATOM      4  C   UNL     1      83.819  51.501  44.290  0.00  0.00    -0.013 C 
ATOM      5  C   UNL     1      82.913  50.557  44.070  0.00  0.00    +0.026 C 
ATOM      6  C   UNL     1      82.039  51.042  43.009  0.00  0.00    +0.337 C 
ATOM      7  O   UNL     1      81.058  50.418  42.530  0.00  0.00    -0.245 OA
ATOM      8  O   UNL     1      82.436  52.301  42.592  0.00  0.00    -0.423 OA
ENDBRANCH   1   2
BRANCH   1   9
ATOM      9  C   UNL     1      83.634  56.171  43.053  0.00  0.00    +0.133 C 
BRANCH   9  10
ATOM     10  O   UNL     1      84.739  57.066  42.923  0.00  0.00    -0.457 OA
BRANCH  10  12
ATOM     11  O   UNL     1      86.031  58.677  43.953  0.00  0.00    -0.245 OA
ATOM     12  C   UNL     1      85.476  57.546  44.013  0.00  0.00    +0.339 C 
BRANCH  12  13
ATOM     13  C   UNL     1      85.606  56.719  45.233  0.00  0.00    +0.059 A 
ATOM     14  C   UNL     1      86.596  55.721  45.312  0.00  0.00    -0.048 A 
ATOM     15  C   UNL     1      86.718  54.936  46.463  0.00  0.00    -0.061 A 
ATOM     16  C   UNL     1      85.856  55.137  47.544  0.00  0.00    -0.062 A 
ATOM     17  C   UNL     1      84.871  56.124  47.476  0.00  0.00    -0.061 A 
ATOM     18  C   UNL     1      84.743  56.912  46.328  0.00  0.00    -0.048 A 
ENDBRANCH  12  13
ENDBRANCH  10  12
ENDBRANCH   9  10
ENDBRANCH   1   9
BRANCH   1  19
ATOM     19  O   UNL     1      84.982  54.997  41.392  0.00  0.00    -0.454 OA
BRANCH  19  20
ATOM     20  C   UNL     1      84.905  54.610  40.049  0.00  0.00    +0.305 C 
ATOM     21  O   UNL     1      85.740  53.800  39.562  0.00  0.00    -0.251 OA
ATOM     22  C   UNL     1      83.860  55.208  39.172  0.00  0.00    +0.033 C 
ENDBRANCH  19  20
ENDBRANCH   1  19
TORSDOF 7
ENDMDL
MODEL 2
REMARK VINA RESULT:    -7.383      3.094      3.758
REMARK INTER + INTRA:         -11.396
REMARK INTER:                  -9.647
REMARK INTRA:                  -1.748
REMARK UNBOUND:                -0.991
REMARK  Name = 
REMARK  8 active torsions:
REMARK  status: ('A' for Active; 'I' for Inactive)
REMARK    1  A    between atoms: C_2  and  C_3
REMARK    2  A    between atoms: C_2  and  O_9
REMARK    3  A    between atoms: O_9  and  C_10
REMARK    4  A    between atoms: C_10  and  C_11
REMARK    5  A    between atoms: C_11  and  C_12
REMARK    6  A    between atoms: C_11  and  O_19
REMARK    7  A    between atoms: O_19  and  C_20
REMARK    8  A    between atoms: C_20  and  C_22
REMARK                            x       y       z     vdW  Elec       q    Type
REMARK                         _______ _______ _______ _____ _____    ______ ____
ROOT
ATOM      1  C   UNL     1      86.875  52.453  41.540  0.00  0.00    +0.159 C 
ENDROOT
BRANCH   1   2
ATOM      2  C   UNL     1      87.494  52.360  42.911  0.00  0.00    +0.002 C 
ATOM      3  C   UNL     1      87.102  51.468  43.824  0.00  0.00    +0.132 C 
ATOM      4  C   UNL     1      87.668  51.321  45.168  0.00  0.00    -0.013 C 
ATOM      5  C   UNL     1      87.018  50.336  45.774  0.00  0.00    +0.026 C 
ATOM      6  C   UNL     1      86.026  49.834  44.833  0.00  0.00    +0.337 C 
ATOM      7  O   UNL     1      85.219  48.896  45.056  0.00  0.00    -0.245 OA
ATOM      8  O   UNL     1      86.087  50.537  43.643  0.00  0.00    -0.423 OA
ENDBRANCH   1   2
BRANCH   1   9
ATOM      9  C   UNL     1      85.521  53.183  41.591  0.00  0.00    +0.133 C 
BRANCH   9  10
ATOM     10  O   UNL     1      85.668  54.502  42.117  0.00  0.00    -0.457 OA
BRANCH  10  12
ATOM     11  O   UNL     1      83.923  55.788  42.908  0.00  0.00    -0.245 OA
ATOM     12  C   UNL     1      84.884  55.011  43.160  0.00  0.00    +0.339 C 
BRANCH  12  13
ATOM     13  C   UNL     1      85.190  54.638  44.558  0.00  0.00    +0.059 A 
ATOM     14  C   UNL     1      84.490  53.589  45.183  0.00  0.00    -0.048 A 
ATOM     15  C   UNL     1      84.776  53.237  46.506  0.00  0.00    -0.061 A 
ATOM     16  C   UNL     1      85.761  53.925  47.217  0.00  0.00    -0.062 A 
ATOM     17  C   UNL     1      86.462  54.968  46.608  0.00  0.00    -0.061 A 
ATOM     18  C   UNL     1      86.180  55.325  45.286  0.00  0.00    -0.048 A 
ENDBRANCH  12  13
ENDBRANCH  10  12
ENDBRANCH   9  10
ENDBRANCH   1   9
BRANCH   1  19
ATOM     19  O   UNL     1      87.774  53.126  40.657  0.00  0.00    -0.454 OA
BRANCH  19  20
ATOM     20  C   UNL     1      88.866  52.504  40.042  0.00  0.00    +0.305 C 
ATOM     21  O   UNL     1      88.720  51.428  39.400  0.00  0.00    -0.251 OA
ATOM     22  C   UNL     1      90.227  53.089  40.200  0.00  0.00    +0.033 C 
ENDBRANCH  19  20
ENDBRANCH   1  19
TORSDOF 7
ENDMDL
MODEL 3
REMARK VINA RESULT:    -7.284      6.395      8.909
REMARK INTER + INTRA:         -11.256
REMARK INTER:                 -10.032
REMARK INTRA:                  -1.224
REMARK UNBOUND:                -0.991
REMARK  Name = 
REMARK  8 active torsions:
REMARK  status: ('A' for Active; 'I' for Inactive)
REMARK    1  A    between atoms: C_2  and  C_3
REMARK    2  A    between atoms: C_2  and  O_9
REMARK    3  A    between atoms: O_9  and  C_10
REMARK    4  A    between atoms: C_10  and  C_11
REMARK    5  A    between atoms: C_11  and  C_12
REMARK    6  A    between atoms: C_11  and  O_19
REMARK    7  A    between atoms: O_19  and  C_20
REMARK    8  A    between atoms: C_20  and  C_22
REMARK                            x       y       z     vdW  Elec       q    Type
REMARK                         _______ _______ _______ _____ _____    ______ ____
ROOT
ATOM      1  C   UNL     1      84.950  46.610  43.972  0.00  0.00    +0.159 C 
ENDROOT
BRANCH   1   2
ATOM      2  C   UNL     1      85.949  45.984  43.032  0.00  0.00    +0.002 C 
ATOM      3  C   UNL     1      86.783  45.010  43.405  0.00  0.00    +0.132 C 
ATOM      4  C   UNL     1      87.768  44.356  42.539  0.00  0.00    -0.013 C 
ATOM      5  C   UNL     1      88.405  43.447  43.267  0.00  0.00    +0.026 C 
ATOM      6  C   UNL     1      87.842  43.503  44.609  0.00  0.00    +0.337 C 
ATOM      7  O   UNL     1      88.197  42.784  45.579  0.00  0.00    -0.245 OA
ATOM      8  O   UNL     1      86.850  44.464  44.680  0.00  0.00    -0.423 OA
ENDBRANCH   1   2
BRANCH   1   9
ATOM      9  C   UNL     1      85.434  47.988  44.458  0.00  0.00    +0.133 C 
BRANCH   9  10
ATOM     10  O   UNL     1      85.554  48.903  43.369  0.00  0.00    -0.457 OA
BRANCH  10  12
ATOM     11  O   UNL     1      86.582  50.956  43.131  0.00  0.00    -0.245 OA
ATOM     12  C   UNL     1      86.685  49.699  43.148  0.00  0.00    +0.339 C 
BRANCH  12  13
ATOM     13  C   UNL     1      88.001  49.058  42.930  0.00  0.00    +0.059 A 
ATOM     14  C   UNL     1      88.208  48.223  41.816  0.00  0.00    -0.048 A 
ATOM     15  C   UNL     1      89.449  47.614  41.609  0.00  0.00    -0.061 A 
ATOM     16  C   UNL     1      90.495  47.831  42.510  0.00  0.00    -0.062 A 
ATOM     17  C   UNL     1      90.301  48.657  43.619  0.00  0.00    -0.061 A 
ATOM     18  C   UNL     1      89.062  49.268  43.831  0.00  0.00    -0.048 A 
ENDBRANCH  12  13
ENDBRANCH  10  12
ENDBRANCH   9  10
ENDBRANCH   1   9
BRANCH   1  19
ATOM     19  O   UNL     1      83.687  46.725  43.315  0.00  0.00    -0.454 OA
BRANCH  19  20
ATOM     20  C   UNL     1      82.499  47.058  43.975  0.00  0.00    +0.305 C 
ATOM     21  O   UNL     1      81.994  46.280  44.829  0.00  0.00    -0.251 OA
ATOM     22  C   UNL     1      81.793  48.321  43.620  0.00  0.00    +0.033 C 
ENDBRANCH  19  20
ENDBRANCH   1  19
TORSDOF 7
ENDMDL
MODEL 4
REMARK VINA RESULT:    -7.228      1.844      2.483
REMARK INTER + INTRA:         -11.177
REMARK INTER:                  -9.895
REMARK INTRA:                  -1.283
REMARK UNBOUND:                -0.991
REMARK  Name = 
REMARK  8 active torsions:
REMARK  status: ('A' for Active; 'I' for Inactive)
REMARK    1  A    between atoms: C_2  and  C_3
REMARK    2  A    between atoms: C_2  and  O_9
REMARK    3  A    between atoms: O_9  and  C_10
REMARK    4  A    between atoms: C_10  and  C_11
REMARK    5  A    between atoms: C_11  and  C_12
REMARK    6  A    between atoms: C_11  and  O_19
REMARK    7  A    between atoms: O_19  and  C_20
REMARK    8  A    between atoms: C_20  and  C_22
REMARK                            x       y       z     vdW  Elec       q    Type
REMARK                         _______ _______ _______ _____ _____    ______ ____
ROOT
ATOM      1  C   UNL     1      84.563  55.596  42.700  0.00  0.00    +0.159 C 
ENDROOT
BRANCH   1   2
ATOM      2  C   UNL     1      85.754  54.818  43.197  0.00  0.00    +0.002 C 
ATOM      3  C   UNL     1      85.644  53.637  43.811  0.00  0.00    +0.132 C 
ATOM      4  C   UNL     1      86.760  52.830  44.309  0.00  0.00    -0.013 C 
ATOM      5  C   UNL     1      86.253  51.732  44.856  0.00  0.00    +0.026 C 
ATOM      6  C   UNL     1      84.804  51.816  44.719  0.00  0.00    +0.337 C 
ATOM      7  O   UNL     1      83.983  50.953  45.121  0.00  0.00    -0.245 OA
ATOM      8  O   UNL     1      84.445  52.988  44.078  0.00  0.00    -0.423 OA
ENDBRANCH   1   2
BRANCH   1   9
ATOM      9  C   UNL     1      84.395  56.912  43.480  0.00  0.00    +0.133 C 
BRANCH   9  10
ATOM     10  O   UNL     1      85.434  57.074  44.444  0.00  0.00    -0.457 OA
BRANCH  10  12
ATOM     11  O   UNL     1      85.204  58.604  46.157  0.00  0.00    -0.245 OA
ATOM     12  C   UNL     1      85.200  57.399  45.787  0.00  0.00    +0.339 C 
BRANCH  12  13
ATOM     13  C   UNL     1      84.953  56.321  46.770  0.00  0.00    +0.059 A 
ATOM     14  C   UNL     1      83.736  56.268  47.475  0.00  0.00    -0.048 A 
ATOM     15  C   UNL     1      83.502  55.252  48.407  0.00  0.00    -0.061 A 
ATOM     16  C   UNL     1      84.477  54.281  48.645  0.00  0.00    -0.062 A 
ATOM     17  C   UNL     1      85.689  54.323  47.951  0.00  0.00    -0.061 A 
ATOM     18  C   UNL     1      85.928  55.337  47.018  0.00  0.00    -0.048 A 
ENDBRANCH  12  13
ENDBRANCH  10  12
ENDBRANCH   9  10
ENDBRANCH   1   9
BRANCH   1  19
ATOM     19  O   UNL     1      84.715  55.857  41.304  0.00  0.00    -0.454 OA
BRANCH  19  20
ATOM     20  C   UNL     1      83.899  55.292  40.317  0.00  0.00    +0.305 C 
ATOM     21  O   UNL     1      82.864  54.644  40.628  0.00  0.00    -0.251 OA
ATOM     22  C   UNL     1      84.293  55.409  38.885  0.00  0.00    +0.033 C 
ENDBRANCH  19  20
ENDBRANCH   1  19
TORSDOF 7
ENDMDL
MODEL 5
REMARK VINA RESULT:    -7.186      4.611      6.985
REMARK INTER + INTRA:         -11.118
REMARK INTER:                 -10.354
REMARK INTRA:                  -0.765
REMARK UNBOUND:                -0.991
REMARK  Name = 
REMARK  8 active torsions:
REMARK  status: ('A' for Active; 'I' for Inactive)
REMARK    1  A    between atoms: C_2  and  C_3
REMARK    2  A    between atoms: C_2  and  O_9
REMARK    3  A    between atoms: O_9  and  C_10
REMARK    4  A    between atoms: C_10  and  C_11
REMARK    5  A    between atoms: C_11  and  C_12
REMARK    6  A    between atoms: C_11  and  O_19
REMARK    7  A    between atoms: O_19  and  C_20
REMARK    8  A    between atoms: C_20  and  C_22
REMARK                            x       y       z     vdW  Elec       q    Type
REMARK                         _______ _______ _______ _____ _____    ______ ____
ROOT
ATOM      1  C   UNL     1      86.848  52.597  41.696  0.00  0.00    +0.159 C 
ENDROOT
BRANCH   1   2
ATOM      2  C   UNL     1      85.517  53.303  41.740  0.00  0.00    +0.002 C 
ATOM      3  C   UNL     1      85.325  54.447  42.403  0.00  0.00    +0.132 C 
ATOM      4  C   UNL     1      84.062  55.185  42.477  0.00  0.00    -0.013 C 
ATOM      5  C   UNL     1      84.266  56.263  43.224  0.00  0.00    +0.026 C 
ATOM      6  C   UNL     1      85.662  56.235  43.642  0.00  0.00    +0.337 C 
ATOM      7  O   UNL     1      86.224  57.098  44.364  0.00  0.00    -0.245 OA
ATOM      8  O   UNL     1      86.298  55.117  43.133  0.00  0.00    -0.423 OA
ENDBRANCH   1   2
BRANCH   1   9
ATOM      9  C   UNL     1      86.707  51.123  42.116  0.00  0.00    +0.133 C 
BRANCH   9  10
ATOM     10  O   UNL     1      86.892  50.970  43.523  0.00  0.00    -0.457 OA
BRANCH  10  12
ATOM     11  O   UNL     1      87.957  50.027  45.341  0.00  0.00    -0.245 OA
ATOM     12  C   UNL     1      87.794  50.061  44.091  0.00  0.00    +0.339 C 
BRANCH  12  13
ATOM     13  C   UNL     1      88.558  49.143  43.217  0.00  0.00    +0.059 A 
ATOM     14  C   UNL     1      89.843  49.499  42.765  0.00  0.00    -0.048 A 
ATOM     15  C   UNL     1      90.565  48.635  41.936  0.00  0.00    -0.061 A 
ATOM     16  C   UNL     1      90.015  47.410  41.550  0.00  0.00    -0.062 A 
ATOM     17  C   UNL     1      88.741  47.047  41.992  0.00  0.00    -0.061 A 
ATOM     18  C   UNL     1      88.013  47.907  42.820  0.00  0.00    -0.048 A 
ENDBRANCH  12  13
ENDBRANCH  10  12
ENDBRANCH   9  10
ENDBRANCH   1   9
BRANCH   1  19
ATOM     19  O   UNL     1      87.394  52.694  40.380  0.00  0.00    -0.454 OA
BRANCH  19  20
ATOM     20  C   UNL     1      88.692  52.292  40.049  0.00  0.00    +0.305 C 
ATOM     21  O   UNL     1      88.903  51.535  39.063  0.00  0.00    -0.251 OA
ATOM     22  C   UNL     1      89.832  52.716  40.910  0.00  0.00    +0.033 C 
ENDBRANCH  19  20
ENDBRANCH   1  19
TORSDOF 7
ENDMDL
MODEL 6
REMARK VINA RESULT:    -7.180      3.571      5.633
REMARK INTER + INTRA:         -11.109
REMARK INTER:                 -10.084
REMARK INTRA:                  -1.025
REMARK UNBOUND:                -0.991
REMARK  Name = 
REMARK  8 active torsions:
REMARK  status: ('A' for Active; 'I' for Inactive)
REMARK    1  A    between atoms: C_2  and  C_3
REMARK    2  A    between atoms: C_2  and  O_9
REMARK    3  A    between atoms: O_9  and  C_10
REMARK    4  A    between atoms: C_10  and  C_11
REMARK    5  A    between atoms: C_11  and  C_12
REMARK    6  A    between atoms: C_11  and  O_19
REMARK    7  A    between atoms: O_19  and  C_20
REMARK    8  A    between atoms: C_20  and  C_22
REMARK                            x       y       z     vdW  Elec       q    Type
REMARK                         _______ _______ _______ _____ _____    ______ ____
ROOT
ATOM      1  C   UNL     1      87.031  52.429  41.607  0.00  0.00    +0.159 C 
ENDROOT
BRANCH   1   2
ATOM      2  C   UNL     1      85.717  53.143  41.790  0.00  0.00    +0.002 C 
ATOM      3  C   UNL     1      85.593  54.260  42.511  0.00  0.00    +0.132 C 
ATOM      4  C   UNL     1      84.348  55.005  42.720  0.00  0.00    -0.013 C 
ATOM      5  C   UNL     1      84.627  56.049  43.490  0.00  0.00    +0.026 C 
ATOM      6  C   UNL     1      86.052  55.993  43.788  0.00  0.00    +0.337 C 
ATOM      7  O   UNL     1      86.681  56.822  44.494  0.00  0.00    -0.245 OA
ATOM      8  O   UNL     1      86.631  54.892  43.183  0.00  0.00    -0.423 OA
ENDBRANCH   1   2
BRANCH   1   9
ATOM      9  C   UNL     1      86.847  50.902  41.672  0.00  0.00    +0.133 C 
BRANCH   9  10
ATOM     10  O   UNL     1      86.589  50.473  43.009  0.00  0.00    -0.457 OA
BRANCH  10  12
ATOM     11  O   UNL     1      88.727  50.016  43.749  0.00  0.00    -0.245 OA
ATOM     12  C   UNL     1      87.567  50.436  44.011  0.00  0.00    +0.339 C 
BRANCH  12  13
ATOM     13  C   UNL     1      87.231  50.885  45.380  0.00  0.00    +0.059 A 
ATOM     14  C   UNL     1      86.629  52.140  45.588  0.00  0.00    -0.048 A 
ATOM     15  C   UNL     1      86.314  52.568  46.881  0.00  0.00    -0.061 A 
ATOM     16  C   UNL     1      86.596  51.751  47.978  0.00  0.00    -0.062 A 
ATOM     17  C   UNL     1      87.194  50.504  47.784  0.00  0.00    -0.061 A 
ATOM     18  C   UNL     1      87.512  50.071  46.493  0.00  0.00    -0.048 A 
ENDBRANCH  12  13
ENDBRANCH  10  12
ENDBRANCH   9  10
ENDBRANCH   1   9
BRANCH   1  19
ATOM     19  O   UNL     1      87.609  52.811  40.358  0.00  0.00    -0.454 OA
BRANCH  19  20
ATOM     20  C   UNL     1      88.890  52.424  39.947  0.00  0.00    +0.305 C 
ATOM     21  O   UNL     1      89.045  51.531  39.070  0.00  0.00    -0.251 OA
ATOM     22  C   UNL     1      90.083  53.032  40.599  0.00  0.00    +0.033 C 
ENDBRANCH  19  20
ENDBRANCH   1  19
TORSDOF 7
ENDMDL
MODEL 7
REMARK VINA RESULT:    -6.959      3.292      5.179
REMARK INTER + INTRA:         -10.798
REMARK INTER:                  -9.515
REMARK INTRA:                  -1.284
REMARK UNBOUND:                -0.991
REMARK  Name = 
REMARK  8 active torsions:
REMARK  status: ('A' for Active; 'I' for Inactive)
REMARK    1  A    between atoms: C_2  and  C_3
REMARK    2  A    between atoms: C_2  and  O_9
REMARK    3  A    between atoms: O_9  and  C_10
REMARK    4  A    between atoms: C_10  and  C_11
REMARK    5  A    between atoms: C_11  and  C_12
REMARK    6  A    between atoms: C_11  and  O_19
REMARK    7  A    between atoms: O_19  and  C_20
REMARK    8  A    between atoms: C_20  and  C_22
REMARK                            x       y       z     vdW  Elec       q    Type
REMARK                         _______ _______ _______ _____ _____    ______ ____
ROOT
ATOM      1  C   UNL     1      86.703  52.625  40.791  0.00  0.00    +0.159 C 
ENDROOT
BRANCH   1   2
ATOM      2  C   UNL     1      87.129  52.710  42.234  0.00  0.00    +0.002 C 
ATOM      3  C   UNL     1      87.194  51.643  43.035  0.00  0.00    +0.132 C 
ATOM      4  C   UNL     1      87.607  51.659  44.440  0.00  0.00    -0.013 C 
ATOM      5  C   UNL     1      87.540  50.414  44.895  0.00  0.00    +0.026 C 
ATOM      6  C   UNL     1      87.083  49.579  43.792  0.00  0.00    +0.337 C 
ATOM      7  O   UNL     1      86.899  48.336  43.846  0.00  0.00    -0.245 OA
ATOM      8  O   UNL     1      86.874  50.345  42.659  0.00  0.00    -0.423 OA
ENDBRANCH   1   2
BRANCH   1   9
ATOM      9  C   UNL     1      85.405  53.415  40.548  0.00  0.00    +0.133 C 
BRANCH   9  10
ATOM     10  O   UNL     1      85.055  54.191  41.693  0.00  0.00    -0.457 OA
BRANCH  10  12
ATOM     11  O   UNL     1      83.189  55.177  42.628  0.00  0.00    -0.245 OA
ATOM     12  C   UNL     1      83.805  54.120  42.322  0.00  0.00    +0.339 C 
BRANCH  12  13
ATOM     13  C   UNL     1      83.214  52.799  42.632  0.00  0.00    +0.059 A 
ATOM     14  C   UNL     1      83.710  52.033  43.704  0.00  0.00    -0.048 A 
ATOM     15  C   UNL     1      83.155  50.783  43.996  0.00  0.00    -0.061 A 
ATOM     16  C   UNL     1      82.103  50.286  43.225  0.00  0.00    -0.062 A 
ATOM     17  C   UNL     1      81.603  51.037  42.159  0.00  0.00    -0.061 A 
ATOM     18  C   UNL     1      82.154  52.287  41.861  0.00  0.00    -0.048 A 
ENDBRANCH  12  13
ENDBRANCH  10  12
ENDBRANCH   9  10
ENDBRANCH   1   9
BRANCH   1  19
ATOM     19  O   UNL     1      87.753  53.116  39.956  0.00  0.00    -0.454 OA
BRANCH  19  20
ATOM     20  C   UNL     1      88.998  52.491  39.829  0.00  0.00    +0.305 C 
ATOM     21  O   UNL     1      89.090  51.317  39.377  0.00  0.00    -0.251 OA
ATOM     22  C   UNL     1      90.224  53.200  40.292  0.00  0.00    +0.033 C 
ENDBRANCH  19  20
ENDBRANCH   1  19
TORSDOF 7
ENDMDL
MODEL 8
REMARK VINA RESULT:    -6.795      5.468      7.468
REMARK INTER + INTRA:         -10.566
REMARK INTER:                 -10.013
REMARK INTRA:                  -0.554
REMARK UNBOUND:                -0.991
REMARK  Name = 
REMARK  8 active torsions:
REMARK  status: ('A' for Active; 'I' for Inactive)
REMARK    1  A    between atoms: C_2  and  C_3
REMARK    2  A    between atoms: C_2  and  O_9
REMARK    3  A    between atoms: O_9  and  C_10
REMARK    4  A    between atoms: C_10  and  C_11
REMARK    5  A    between atoms: C_11  and  C_12
REMARK    6  A    between atoms: C_11  and  O_19
REMARK    7  A    between atoms: O_19  and  C_20
REMARK    8  A    between atoms: C_20  and  C_22
REMARK                            x       y       z     vdW  Elec       q    Type
REMARK                         _______ _______ _______ _____ _____    ______ ____
ROOT
ATOM      1  C   UNL     1      86.415  48.280  44.419  0.00  0.00    +0.159 C 
ENDROOT
BRANCH   1   2
ATOM      2  C   UNL     1      87.054  48.482  43.070  0.00  0.00    +0.002 C 
ATOM      3  C   UNL     1      88.374  48.602  42.903  0.00  0.00    +0.132 C 
ATOM      4  C   UNL     1      89.055  48.792  41.620  0.00  0.00    -0.013 C 
ATOM      5  C   UNL     1      90.358  48.870  41.861  0.00  0.00    +0.026 C 
ATOM      6  C   UNL     1      90.534  48.733  43.301  0.00  0.00    +0.337 C 
ATOM      7  O   UNL     1      91.637  48.757  43.906  0.00  0.00    -0.245 OA
ATOM      8  O   UNL     1      89.311  48.571  43.927  0.00  0.00    -0.423 OA
ENDBRANCH   1   2
BRANCH   1   9
ATOM      9  C   UNL     1      86.224  49.621  45.150  0.00  0.00    +0.133 C 
BRANCH   9  10
ATOM     10  O   UNL     1      86.489  49.487  46.546  0.00  0.00    -0.457 OA
BRANCH  10  12
ATOM     11  O   UNL     1      88.323  50.101  47.805  0.00  0.00    -0.245 OA
ATOM     12  C   UNL     1      87.219  50.425  47.288  0.00  0.00    +0.339 C 
BRANCH  12  13
ATOM     13  C   UNL     1      86.688  51.794  47.466  0.00  0.00    +0.059 A 
ATOM     14  C   UNL     1      86.021  52.148  48.654  0.00  0.00    -0.048 A 
ATOM     15  C   UNL     1      85.515  53.440  48.823  0.00  0.00    -0.061 A 
ATOM     16  C   UNL     1      85.670  54.392  47.811  0.00  0.00    -0.062 A 
ATOM     17  C   UNL     1      86.330  54.052  46.628  0.00  0.00    -0.061 A 
ATOM     18  C   UNL     1      86.837  52.761  46.453  0.00  0.00    -0.048 A 
ENDBRANCH  12  13
ENDBRANCH  10  12
ENDBRANCH   9  10
ENDBRANCH   1   9
BRANCH   1  19
ATOM     19  O   UNL     1      85.162  47.614  44.257  0.00  0.00    -0.454 OA
BRANCH  19  20
ATOM     20  C   UNL     1      85.029  46.225  44.163  0.00  0.00    +0.305 C 
ATOM     21  O   UNL     1      85.335  45.479  45.133  0.00  0.00    -0.251 OA
ATOM     22  C   UNL     1      84.579  45.617  42.879  0.00  0.00    +0.033 C 
ENDBRANCH  19  20
ENDBRANCH   1  19
TORSDOF 7
ENDMDL
MODEL 9
REMARK VINA RESULT:    -6.794      2.675      5.046
REMARK INTER + INTRA:         -10.565
REMARK INTER:                  -9.574
REMARK INTRA:                  -0.991
REMARK UNBOUND:                -0.991
REMARK  Name = 
REMARK  8 active torsions:
REMARK  status: ('A' for Active; 'I' for Inactive)
REMARK    1  A    between atoms: C_2  and  C_3
REMARK    2  A    between atoms: C_2  and  O_9
REMARK    3  A    between atoms: O_9  and  C_10
REMARK    4  A    between atoms: C_10  and  C_11
REMARK    5  A    between atoms: C_11  and  C_12
REMARK    6  A    between atoms: C_11  and  O_19
REMARK    7  A    between atoms: O_19  and  C_20
REMARK    8  A    between atoms: C_20  and  C_22
REMARK                            x       y       z     vdW  Elec       q    Type
REMARK                         _______ _______ _______ _____ _____    ______ ____
ROOT
ATOM      1  C   UNL     1      85.253  52.074  44.498  0.00  0.00    +0.159 C 
ENDROOT
BRANCH   1   2
ATOM      2  C   UNL     1      84.741  53.469  44.246  0.00  0.00    +0.002 C 
ATOM      3  C   UNL     1      84.631  53.989  43.021  0.00  0.00    +0.132 C 
ATOM      4  C   UNL     1      84.134  55.332  42.709  0.00  0.00    -0.013 C 
ATOM      5  C   UNL     1      84.177  55.483  41.391  0.00  0.00    +0.026 C 
ATOM      6  C   UNL     1      84.702  54.243  40.835  0.00  0.00    +0.337 C 
ATOM      7  O   UNL     1      84.886  54.012  39.613  0.00  0.00    -0.245 OA
ATOM      8  O   UNL     1      84.977  53.337  41.845  0.00  0.00    -0.423 OA
ENDBRANCH   1   2
BRANCH   1   9
ATOM      9  C   UNL     1      86.385  52.079  45.542  0.00  0.00    +0.133 C 
BRANCH   9  10
ATOM     10  O   UNL     1      85.935  51.553  46.790  0.00  0.00    -0.457 OA
BRANCH  10  12
ATOM     11  O   UNL     1      86.237  51.868  49.056  0.00  0.00    -0.245 OA
ATOM     12  C   UNL     1      85.819  52.321  47.956  0.00  0.00    +0.339 C 
BRANCH  12  13
ATOM     13  C   UNL     1      85.200  53.663  47.892  0.00  0.00    +0.059 A 
ATOM     14  C   UNL     1      83.849  53.839  48.247  0.00  0.00    -0.048 A 
ATOM     15  C   UNL     1      83.261  55.106  48.184  0.00  0.00    -0.061 A 
ATOM     16  C   UNL     1      84.012  56.208  47.767  0.00  0.00    -0.062 A 
ATOM     17  C   UNL     1      85.352  56.045  47.412  0.00  0.00    -0.061 A 
ATOM     18  C   UNL     1      85.946  54.780  47.472  0.00  0.00    -0.048 A 
ENDBRANCH  12  13
ENDBRANCH  10  12
ENDBRANCH   9  10
ENDBRANCH   1   9
BRANCH   1  19
ATOM     19  O   UNL     1      84.176  51.243  44.932  0.00  0.00    -0.454 OA
BRANCH  19  20
ATOM     20  C   UNL     1      83.900  49.985  44.386  0.00  0.00    +0.305 C 
ATOM     21  O   UNL     1      84.834  49.223  44.013  0.00  0.00    -0.251 OA
ATOM     22  C   UNL     1      82.484  49.565  44.189  0.00  0.00    +0.033 C 
ENDBRANCH  19  20
ENDBRANCH   1  19
TORSDOF 7
ENDMDL
