MODEL 1
REMARK VINA RESULT:    -7.286      0.000      0.000
REMARK INTER + INTRA:         -10.426
REMARK INTER:                  -9.869
REMARK INTRA:                  -0.557
REMARK UNBOUND:                -0.798
REMARK  Name = 
REMARK  6 active torsions:
REMARK  status: ('A' for Active; 'I' for Inactive)
REMARK    1  A    between atoms: O_1  and  C_2
REMARK    2  A    between atoms: C_2  and  C_3
REMARK    3  A    between atoms: C_2  and  C_10
REMARK    4  A    between atoms: C_10  and  O_11
REMARK    5  A    between atoms: O_11  and  C_12
REMARK    6  A    between atoms: C_12  and  C_14
REMARK                            x       y       z     vdW  Elec       q    Type
REMARK                         _______ _______ _______ _____ _____    ______ ____
ROOT
ATOM      1  C   UNL     1      84.780  45.244  43.829  0.00  0.00    +0.111 C 
ENDROOT
BRANCH   1   2
ATOM      2  C   UNL     1      84.014  46.349  43.146  0.00  0.00    -0.010 C 
ATOM      3  C   UNL     1      82.796  46.706  43.554  0.00  0.00    +0.131 C 
ATOM      4  C   UNL     1      81.970  47.760  42.958  0.00  0.00    -0.013 C 
ATOM      5  C   UNL     1      80.830  47.815  43.637  0.00  0.00    +0.026 C 
ATOM      6  C   UNL     1      80.907  46.799  44.679  0.00  0.00    +0.337 C 
ATOM      7  O   UNL     1      80.007  46.554  45.526  0.00  0.00    -0.245 OA
ATOM      8  O   UNL     1      82.115  46.127  44.617  0.00  0.00    -0.423 OA
ENDBRANCH   1   2
BRANCH   1   9
ATOM      9  O   UNL     1      85.237  45.665  45.089  0.00  0.00    -0.384 OA
ATOM     10  H   UNL     1      84.489  45.716  45.705  0.00  0.00    +0.000 HD
ENDBRANCH   1   9
BRANCH   1  11
ATOM     11  C   UNL     1      85.956  44.766  42.961  0.00  0.00    +0.122 C 
BRANCH  11  12
ATOM     12  O   UNL     1      86.640  45.876  42.381  0.00  0.00    -0.458 OA
BRANCH  12  13
ATOM     13  C   UNL     1      88.035  45.960  42.279  0.00  0.00    +0.339 C 
ATOM     14  O   UNL     1      88.744  44.930  42.451  0.00  0.00    -0.245 OA
BRANCH  13  15
ATOM     15  C   UNL     1      88.672  47.257  41.964  0.00  0.00    +0.059 A 
ATOM     16  C   UNL     1      90.074  47.374  41.949  0.00  0.00    -0.048 A 
ATOM     17  C   UNL     1      90.678  48.600  41.649  0.00  0.00    -0.061 A 
ATOM     18  C   UNL     1      89.891  49.717  41.362  0.00  0.00    -0.062 A 
ATOM     19  C   UNL     1      88.499  49.612  41.374  0.00  0.00    -0.061 A 
ATOM     20  C   UNL     1      87.889  48.389  41.672  0.00  0.00    -0.048 A 
ENDBRANCH  13  15
ENDBRANCH  12  13
ENDBRANCH  11  12
ENDBRANCH   1  11
TORSDOF 6
ENDMDL
MODEL 2
REMARK VINA RESULT:    -7.204      7.593     10.057
REMARK INTER + INTRA:         -10.318
REMARK INTER:                  -9.618
REMARK INTRA:                  -0.701
REMARK UNBOUND:                -0.798
REMARK  Name = 
REMARK  6 active torsions:
REMARK  status: ('A' for Active; 'I' for Inactive)
REMARK    1  A    between atoms: O_1  and  C_2
REMARK    2  A    between atoms: C_2  and  C_3
REMARK    3  A    between atoms: C_2  and  C_10
REMARK    4  A    between atoms: C_10  and  O_11
REMARK    5  A    between atoms: O_11  and  C_12
REMARK    6  A    between atoms: C_12  and  C_14
REMARK                            x       y       z     vdW  Elec       q    Type
REMARK                         _______ _______ _______ _____ _____    ______ ____
ROOT
ATOM      1  C   UNL     1      85.207  53.821  41.733  0.00  0.00    +0.111 C 
ENDROOT
BRANCH   1   2
ATOM      2  C   UNL     1      86.530  53.411  42.330  0.00  0.00    -0.010 C 
ATOM      3  C   UNL     1      87.506  52.902  41.577  0.00  0.00    +0.131 C 
ATOM      4  C   UNL     1      88.820  52.470  42.060  0.00  0.00    -0.013 C 
ATOM      5  C   UNL     1      89.508  52.022  41.016  0.00  0.00    +0.026 C 
ATOM      6  C   UNL     1      88.647  52.159  39.848  0.00  0.00    +0.337 C 
ATOM      7  O   UNL     1      88.959  51.837  38.672  0.00  0.00    -0.245 OA
ATOM      8  O   UNL     1      87.424  52.699  40.206  0.00  0.00    -0.423 OA
ENDBRANCH   1   2
BRANCH   1   9
ATOM      9  O   UNL     1      85.401  54.465  40.498  0.00  0.00    -0.384 OA
ATOM     10  H   UNL     1      85.054  53.907  39.784  0.00  0.00    +0.000 HD
ENDBRANCH   1   9
BRANCH   1  11
ATOM     11  C   UNL     1      84.421  54.727  42.694  0.00  0.00    +0.122 C 
BRANCH  11  12
ATOM     12  O   UNL     1      84.777  56.096  42.505  0.00  0.00    -0.458 OA
BRANCH  12  13
ATOM     13  C   UNL     1      85.209  56.934  43.541  0.00  0.00    +0.339 C 
ATOM     14  O   UNL     1      85.551  58.123  43.291  0.00  0.00    -0.245 OA
BRANCH  13  15
ATOM     15  C   UNL     1      85.258  56.423  44.928  0.00  0.00    +0.059 A 
ATOM     16  C   UNL     1      86.423  55.805  45.416  0.00  0.00    -0.048 A 
ATOM     17  C   UNL     1      86.471  55.322  46.728  0.00  0.00    -0.061 A 
ATOM     18  C   UNL     1      85.360  55.452  47.564  0.00  0.00    -0.062 A 
ATOM     19  C   UNL     1      84.198  56.063  47.089  0.00  0.00    -0.061 A 
ATOM     20  C   UNL     1      84.144  56.549  45.779  0.00  0.00    -0.048 A 
ENDBRANCH  13  15
ENDBRANCH  12  13
ENDBRANCH  11  12
ENDBRANCH   1  11
TORSDOF 6
ENDMDL
MODEL 3
REMARK VINA RESULT:    -7.116      8.443      9.962
REMARK INTER + INTRA:         -10.202
REMARK INTER:                  -9.398
REMARK INTRA:                  -0.804
REMARK UNBOUND:                -0.798
REMARK  Name = 
REMARK  6 active torsions:
REMARK  status: ('A' for Active; 'I' for Inactive)
REMARK    1  A    between atoms: O_1  and  C_2
REMARK    2  A    between atoms: C_2  and  C_3
REMARK    3  A    between atoms: C_2  and  C_10
REMARK    4  A    between atoms: C_10  and  O_11
REMARK    5  A    between atoms: O_11  and  C_12
REMARK    6  A    between atoms: C_12  and  C_14
REMARK                            x       y       z     vdW  Elec       q    Type
REMARK                         _______ _______ _______ _____ _____    ______ ____
ROOT
ATOM      1  C   UNL     1      85.466  56.998  43.654  0.00  0.00    +0.111 C 
ENDROOT
BRANCH   1   2
ATOM      2  C   UNL     1      84.220  56.218  43.317  0.00  0.00    -0.010 C 
ATOM      3  C   UNL     1      84.116  55.527  42.182  0.00  0.00    +0.131 C 
ATOM      4  C   UNL     1      82.951  54.743  41.761  0.00  0.00    -0.013 C 
ATOM      5  C   UNL     1      83.230  54.206  40.579  0.00  0.00    +0.026 C 
ATOM      6  C   UNL     1      84.577  54.635  40.223  0.00  0.00    +0.337 C 
ATOM      7  O   UNL     1      85.185  54.322  39.166  0.00  0.00    -0.245 OA
ATOM      8  O   UNL     1      85.108  55.443  41.213  0.00  0.00    -0.423 OA
ENDBRANCH   1   2
BRANCH   1   9
ATOM      9  O   UNL     1      86.611  56.208  43.456  0.00  0.00    -0.384 OA
ATOM     10  H   UNL     1      87.234  56.352  44.186  0.00  0.00    +0.000 HD
ENDBRANCH   1   9
BRANCH   1  11
ATOM     11  C   UNL     1      85.418  57.526  45.097  0.00  0.00    +0.122 C 
BRANCH  11  12
ATOM     12  O   UNL     1      85.960  56.567  46.004  0.00  0.00    -0.458 OA
BRANCH  12  13
ATOM     13  C   UNL     1      85.176  55.759  46.838  0.00  0.00    +0.339 C 
ATOM     14  O   UNL     1      84.109  56.213  47.336  0.00  0.00    -0.245 OA
BRANCH  13  15
ATOM     15  C   UNL     1      85.600  54.372  47.126  0.00  0.00    +0.059 A 
ATOM     16  C   UNL     1      85.391  53.817  48.402  0.00  0.00    -0.048 A 
ATOM     17  C   UNL     1      85.790  52.504  48.676  0.00  0.00    -0.061 A 
ATOM     18  C   UNL     1      86.399  51.735  47.682  0.00  0.00    -0.062 A 
ATOM     19  C   UNL     1      86.611  52.276  46.413  0.00  0.00    -0.061 A 
ATOM     20  C   UNL     1      86.214  53.587  46.133  0.00  0.00    -0.048 A 
ENDBRANCH  13  15
ENDBRANCH  12  13
ENDBRANCH  11  12
ENDBRANCH   1  11
TORSDOF 6
ENDMDL
MODEL 4
REMARK VINA RESULT:    -7.093      8.388      9.871
REMARK INTER + INTRA:         -10.171
REMARK INTER:                  -8.655
REMARK INTRA:                  -1.516
REMARK UNBOUND:                -0.798
REMARK  Name = 
REMARK  6 active torsions:
REMARK  status: ('A' for Active; 'I' for Inactive)
REMARK    1  A    between atoms: O_1  and  C_2
REMARK    2  A    between atoms: C_2  and  C_3
REMARK    3  A    between atoms: C_2  and  C_10
REMARK    4  A    between atoms: C_10  and  O_11
REMARK    5  A    between atoms: O_11  and  C_12
REMARK    6  A    between atoms: C_12  and  C_14
REMARK                            x       y       z     vdW  Elec       q    Type
REMARK                         _______ _______ _______ _____ _____    ______ ____
ROOT
ATOM      1  C   UNL     1      85.208  54.961  42.578  0.00  0.00    +0.111 C 
ENDROOT
BRANCH   1   2
ATOM      2  C   UNL     1      84.447  54.057  43.515  0.00  0.00    -0.010 C 
ATOM      3  C   UNL     1      85.077  53.268  44.386  0.00  0.00    +0.131 C 
ATOM      4  C   UNL     1      84.431  52.354  45.332  0.00  0.00    -0.013 C 
ATOM      5  C   UNL     1      85.388  51.745  46.023  0.00  0.00    +0.026 C 
ATOM      6  C   UNL     1      86.661  52.259  45.533  0.00  0.00    +0.337 C 
ATOM      7  O   UNL     1      87.796  51.913  45.952  0.00  0.00    -0.245 OA
ATOM      8  O   UNL     1      86.456  53.190  44.530  0.00  0.00    -0.423 OA
ENDBRANCH   1   2
BRANCH   1   9
ATOM      9  O   UNL     1      86.590  54.867  42.815  0.00  0.00    -0.384 OA
ATOM     10  H   UNL     1      86.972  55.757  42.863  0.00  0.00    +0.000 HD
ENDBRANCH   1   9
BRANCH   1  11
ATOM     11  C   UNL     1      84.737  56.419  42.708  0.00  0.00    +0.122 C 
BRANCH  11  12
ATOM     12  O   UNL     1      85.628  57.166  43.537  0.00  0.00    -0.458 OA
BRANCH  12  13
ATOM     13  C   UNL     1      85.283  57.648  44.807  0.00  0.00    +0.339 C 
ATOM     14  O   UNL     1      85.122  58.886  44.991  0.00  0.00    -0.245 OA
BRANCH  13  15
ATOM     15  C   UNL     1      85.103  56.700  45.928  0.00  0.00    +0.059 A 
ATOM     16  C   UNL     1      86.221  56.105  46.542  0.00  0.00    -0.048 A 
ATOM     17  C   UNL     1      86.052  55.210  47.603  0.00  0.00    -0.061 A 
ATOM     18  C   UNL     1      84.770  54.901  48.063  0.00  0.00    -0.062 A 
ATOM     19  C   UNL     1      83.654  55.486  47.461  0.00  0.00    -0.061 A 
ATOM     20  C   UNL     1      83.816  56.382  46.400  0.00  0.00    -0.048 A 
ENDBRANCH  13  15
ENDBRANCH  12  13
ENDBRANCH  11  12
ENDBRANCH   1  11
TORSDOF 6
ENDMDL
MODEL 5
REMARK VINA RESULT:    -7.041      5.652      8.694
REMARK INTER + INTRA:         -10.103
REMARK INTER:                  -9.686
REMARK INTRA:                  -0.417
REMARK UNBOUND:                -0.798
REMARK  Name = 
REMARK  6 active torsions:
REMARK  status: ('A' for Active; 'I' for Inactive)
REMARK    1  A    between atoms: O_1  and  C_2
REMARK    2  A    between atoms: C_2  and  C_3
REMARK    3  A    between atoms: C_2  and  C_10
REMARK    4  A    between atoms: C_10  and  O_11
REMARK    5  A    between atoms: O_11  and  C_12
REMARK    6  A    between atoms: C_12  and  C_14
REMARK                            x       y       z     vdW  Elec       q    Type
REMARK                         _______ _______ _______ _____ _____    ______ ____
ROOT
ATOM      1  C   UNL     1      88.163  52.292  39.667  0.00  0.00    +0.111 C 
ENDROOT
BRANCH   1   2
ATOM      2  C   UNL     1      89.296  51.725  40.486  0.00  0.00    -0.010 C 
ATOM      3  C   UNL     1      89.266  50.472  40.941  0.00  0.00    +0.131 C 
ATOM      4  C   UNL     1      90.310  49.831  41.746  0.00  0.00    -0.013 C 
ATOM      5  C   UNL     1      89.917  48.589  42.003  0.00  0.00    +0.026 C 
ATOM      6  C   UNL     1      88.617  48.413  41.367  0.00  0.00    +0.337 C 
ATOM      7  O   UNL     1      87.930  47.358  41.393  0.00  0.00    -0.245 OA
ATOM      8  O   UNL     1      88.230  49.574  40.721  0.00  0.00    -0.423 OA
ENDBRANCH   1   2
BRANCH   1   9
ATOM      9  O   UNL     1      88.631  53.307  38.813  0.00  0.00    -0.384 OA
ATOM     10  H   UNL     1      88.571  54.163  39.265  0.00  0.00    +0.000 HD
ENDBRANCH   1   9
BRANCH   1  11
ATOM     11  C   UNL     1      87.038  52.824  40.570  0.00  0.00    +0.122 C 
BRANCH  11  12
ATOM     12  O   UNL     1      87.577  53.520  41.693  0.00  0.00    -0.458 OA
BRANCH  12  13
ATOM     13  C   UNL     1      86.892  53.685  42.903  0.00  0.00    +0.339 C 
ATOM     14  O   UNL     1      86.833  52.735  43.732  0.00  0.00    -0.245 OA
BRANCH  13  15
ATOM     15  C   UNL     1      86.243  54.979  43.210  0.00  0.00    +0.059 A 
ATOM     16  C   UNL     1      84.992  55.296  42.650  0.00  0.00    -0.048 A 
ATOM     17  C   UNL     1      84.376  56.518  42.940  0.00  0.00    -0.061 A 
ATOM     18  C   UNL     1      85.001  57.433  43.790  0.00  0.00    -0.062 A 
ATOM     19  C   UNL     1      86.243  57.129  44.351  0.00  0.00    -0.061 A 
ATOM     20  C   UNL     1      86.863  55.908  44.066  0.00  0.00    -0.048 A 
ENDBRANCH  13  15
ENDBRANCH  12  13
ENDBRANCH  11  12
ENDBRANCH   1  11
TORSDOF 6
ENDMDL
MODEL 6
REMARK VINA RESULT:    -7.022      7.852      9.257
REMARK INTER + INTRA:         -10.078
REMARK INTER:                  -8.321
REMARK INTRA:                  -1.757
REMARK UNBOUND:                -0.798
REMARK  Name = 
REMARK  6 active torsions:
REMARK  status: ('A' for Active; 'I' for Inactive)
REMARK    1  A    between atoms: O_1  and  C_2
REMARK    2  A    between atoms: C_2  and  C_3
REMARK    3  A    between atoms: C_2  and  C_10
REMARK    4  A    between atoms: C_10  and  O_11
REMARK    5  A    between atoms: O_11  and  C_12
REMARK    6  A    between atoms: C_12  and  C_14
REMARK                            x       y       z     vdW  Elec       q    Type
REMARK                         _______ _______ _______ _____ _____    ______ ____
ROOT
ATOM      1  C   UNL     1      85.269  57.264  43.536  0.00  0.00    +0.111 C 
ENDROOT
BRANCH   1   2
ATOM      2  C   UNL     1      86.225  56.535  44.447  0.00  0.00    -0.010 C 
ATOM      3  C   UNL     1      85.815  55.989  45.592  0.00  0.00    +0.131 C 
ATOM      4  C   UNL     1      86.662  55.267  46.546  0.00  0.00    -0.013 C 
ATOM      5  C   UNL     1      85.894  54.878  47.557  0.00  0.00    +0.026 C 
ATOM      6  C   UNL     1      84.542  55.342  47.268  0.00  0.00    +0.337 C 
ATOM      7  O   UNL     1      83.537  55.159  48.002  0.00  0.00    -0.245 OA
ATOM      8  O   UNL     1      84.509  56.021  46.062  0.00  0.00    -0.423 OA
ENDBRANCH   1   2
BRANCH   1   9
ATOM      9  O   UNL     1      84.442  58.126  44.276  0.00  0.00    -0.384 OA
ATOM     10  H   UNL     1      83.513  57.878  44.143  0.00  0.00    +0.000 HD
ENDBRANCH   1   9
BRANCH   1  11
ATOM     11  C   UNL     1      84.422  56.277  42.716  0.00  0.00    +0.122 C 
BRANCH  11  12
ATOM     12  O   UNL     1      85.254  55.462  41.891  0.00  0.00    -0.458 OA
BRANCH  12  13
ATOM     13  C   UNL     1      85.177  54.063  41.855  0.00  0.00    +0.339 C 
ATOM     14  O   UNL     1      84.839  53.475  40.790  0.00  0.00    -0.245 OA
BRANCH  13  15
ATOM     15  C   UNL     1      85.499  53.278  43.067  0.00  0.00    +0.059 A 
ATOM     16  C   UNL     1      84.478  52.891  43.954  0.00  0.00    -0.048 A 
ATOM     17  C   UNL     1      84.781  52.147  45.099  0.00  0.00    -0.061 A 
ATOM     18  C   UNL     1      86.102  51.783  45.370  0.00  0.00    -0.062 A 
ATOM     19  C   UNL     1      87.123  52.163  44.496  0.00  0.00    -0.061 A 
ATOM     20  C   UNL     1      86.826  52.906  43.349  0.00  0.00    -0.048 A 
ENDBRANCH  13  15
ENDBRANCH  12  13
ENDBRANCH  11  12
ENDBRANCH   1  11
TORSDOF 6
ENDMDL
MODEL 7
REMARK VINA RESULT:    -6.924      8.021      9.360
REMARK INTER + INTRA:          -9.949
REMARK INTER:                  -8.358
REMARK INTRA:                  -1.591
REMARK UNBOUND:                -0.798
REMARK  Name = 
REMARK  6 active torsions:
REMARK  status: ('A' for Active; 'I' for Inactive)
REMARK    1  A    between atoms: O_1  and  C_2
REMARK    2  A    between atoms: C_2  and  C_3
REMARK    3  A    between atoms: C_2  and  C_10
REMARK    4  A    between atoms: C_10  and  O_11
REMARK    5  A    between atoms: O_11  and  C_12
REMARK    6  A    between atoms: C_12  and  C_14
REMARK                            x       y       z     vdW  Elec       q    Type
REMARK                         _______ _______ _______ _____ _____    ______ ____
ROOT
ATOM      1  C   UNL     1      84.668  55.676  47.146  0.00  0.00    +0.111 C 
ENDROOT
BRANCH   1   2
ATOM      2  C   UNL     1      84.163  54.492  46.361  0.00  0.00    -0.010 C 
ATOM      3  C   UNL     1      84.941  53.438  46.111  0.00  0.00    +0.131 C 
ATOM      4  C   UNL     1      84.548  52.245  45.357  0.00  0.00    -0.013 C 
ATOM      5  C   UNL     1      85.592  51.425  45.323  0.00  0.00    +0.026 C 
ATOM      6  C   UNL     1      86.670  52.077  46.055  0.00  0.00    +0.337 C 
ATOM      7  O   UNL     1      87.820  51.600  46.237  0.00  0.00    -0.245 OA
ATOM      8  O   UNL     1      86.258  53.310  46.532  0.00  0.00    -0.423 OA
ENDBRANCH   1   2
BRANCH   1   9
ATOM      9  O   UNL     1      84.060  55.725  48.412  0.00  0.00    -0.384 OA
ATOM     10  H   UNL     1      84.142  56.620  48.776  0.00  0.00    +0.000 HD
ENDBRANCH   1   9
BRANCH   1  11
ATOM     11  C   UNL     1      84.432  56.990  46.383  0.00  0.00    +0.122 C 
BRANCH  11  12
ATOM     12  O   UNL     1      85.638  57.439  45.765  0.00  0.00    -0.458 OA
BRANCH  12  13
ATOM     13  C   UNL     1      85.836  57.460  44.378  0.00  0.00    +0.339 C 
ATOM     14  O   UNL     1      86.074  58.550  43.789  0.00  0.00    -0.245 OA
BRANCH  13  15
ATOM     15  C   UNL     1      85.773  56.198  43.608  0.00  0.00    +0.059 A 
ATOM     16  C   UNL     1      86.845  55.289  43.645  0.00  0.00    -0.048 A 
ATOM     17  C   UNL     1      86.786  54.095  42.918  0.00  0.00    -0.061 A 
ATOM     18  C   UNL     1      85.658  53.798  42.150  0.00  0.00    -0.062 A 
ATOM     19  C   UNL     1      84.588  54.693  42.106  0.00  0.00    -0.061 A 
ATOM     20  C   UNL     1      84.641  55.888  42.831  0.00  0.00    -0.048 A 
ENDBRANCH  13  15
ENDBRANCH  12  13
ENDBRANCH  11  12
ENDBRANCH   1  11
TORSDOF 6
ENDMDL
MODEL 8
REMARK VINA RESULT:    -6.899      2.607      3.987
REMARK INTER + INTRA:          -9.915
REMARK INTER:                  -9.117
REMARK INTRA:                  -0.798
REMARK UNBOUND:                -0.798
REMARK  Name = 
REMARK  6 active torsions:
REMARK  status: ('A' for Active; 'I' for Inactive)
REMARK    1  A    between atoms: O_1  and  C_2
REMARK    2  A    between atoms: C_2  and  C_3
REMARK    3  A    between atoms: C_2  and  C_10
REMARK    4  A    between atoms: C_10  and  O_11
REMARK    5  A    between atoms: O_11  and  C_12
REMARK    6  A    between atoms: C_12  and  C_14
REMARK                            x       y       z     vdW  Elec       q    Type
REMARK                         _______ _______ _______ _____ _____    ______ ____
ROOT
ATOM      1  C   UNL     1      86.275  48.657  44.442  0.00  0.00    +0.111 C 
ENDROOT
BRANCH   1   2
ATOM      2  C   UNL     1      85.212  47.909  43.677  0.00  0.00    -0.010 C 
ATOM      3  C   UNL     1      85.262  46.586  43.527  0.00  0.00    +0.131 C 
ATOM      4  C   UNL     1      84.285  45.770  42.801  0.00  0.00    -0.013 C 
ATOM      5  C   UNL     1      84.680  44.504  42.874  0.00  0.00    +0.026 C 
ATOM      6  C   UNL     1      85.915  44.487  43.648  0.00  0.00    +0.337 C 
ATOM      7  O   UNL     1      86.584  43.459  43.928  0.00  0.00    -0.245 OA
ATOM      8  O   UNL     1      86.260  45.768  44.041  0.00  0.00    -0.423 OA
ENDBRANCH   1   2
BRANCH   1   9
ATOM      9  O   UNL     1      85.880  48.848  45.777  0.00  0.00    -0.384 OA
ATOM     10  H   UNL     1      85.316  48.111  46.057  0.00  0.00    +0.000 HD
ENDBRANCH   1   9
BRANCH   1  11
ATOM     11  C   UNL     1      86.595  50.005  43.775  0.00  0.00    +0.122 C 
BRANCH  11  12
ATOM     12  O   UNL     1      86.614  49.874  42.354  0.00  0.00    -0.458 OA
BRANCH  12  13
ATOM     13  C   UNL     1      87.788  49.724  41.606  0.00  0.00    +0.339 C 
ATOM     14  O   UNL     1      87.982  50.436  40.582  0.00  0.00    -0.245 OA
BRANCH  13  15
ATOM     15  C   UNL     1      88.804  48.732  42.023  0.00  0.00    +0.059 A 
ATOM     16  C   UNL     1      89.990  49.152  42.652  0.00  0.00    -0.048 A 
ATOM     17  C   UNL     1      90.950  48.215  43.049  0.00  0.00    -0.061 A 
ATOM     18  C   UNL     1      90.737  46.854  42.822  0.00  0.00    -0.062 A 
ATOM     19  C   UNL     1      89.563  46.426  42.198  0.00  0.00    -0.061 A 
ATOM     20  C   UNL     1      88.599  47.358  41.800  0.00  0.00    -0.048 A 
ENDBRANCH  13  15
ENDBRANCH  12  13
ENDBRANCH  11  12
ENDBRANCH   1  11
TORSDOF 6
ENDMDL
MODEL 9
REMARK VINA RESULT:    -6.832      4.621      7.461
REMARK INTER + INTRA:          -9.826
REMARK INTER:                  -8.975
REMARK INTRA:                  -0.852
REMARK UNBOUND:                -0.798
REMARK  Name = 
REMARK  6 active torsions:
REMARK  status: ('A' for Active; 'I' for Inactive)
REMARK    1  A    between atoms: O_1  and  C_2
REMARK    2  A    between atoms: C_2  and  C_3
REMARK    3  A    between atoms: C_2  and  C_10
REMARK    4  A    between atoms: C_10  and  O_11
REMARK    5  A    between atoms: O_11  and  C_12
REMARK    6  A    between atoms: C_12  and  C_14
REMARK                            x       y       z     vdW  Elec       q    Type
REMARK                         _______ _______ _______ _____ _____    ______ ____
ROOT
ATOM      1  C   UNL     1      88.856  51.518  40.504  0.00  0.00    +0.111 C 
ENDROOT
BRANCH   1   2
ATOM      2  C   UNL     1      89.922  50.602  41.053  0.00  0.00    -0.010 C 
ATOM      3  C   UNL     1      89.659  49.329  41.351  0.00  0.00    +0.131 C 
ATOM      4  C   UNL     1      90.620  48.363  41.892  0.00  0.00    -0.013 C 
ATOM      5  C   UNL     1      89.984  47.209  42.056  0.00  0.00    +0.026 C 
ATOM      6  C   UNL     1      88.607  47.415  41.624  0.00  0.00    +0.337 C 
ATOM      7  O   UNL     1      87.702  46.541  41.634  0.00  0.00    -0.245 OA
ATOM      8  O   UNL     1      88.422  48.718  41.195  0.00  0.00    -0.423 OA
ENDBRANCH   1   2
BRANCH   1   9
ATOM      9  O   UNL     1      88.997  51.661  39.112  0.00  0.00    -0.384 OA
ATOM     10  H   UNL     1      89.289  50.820  38.728  0.00  0.00    +0.000 HD
ENDBRANCH   1   9
BRANCH   1  11
ATOM     11  C   UNL     1      88.895  52.891  41.194  0.00  0.00    +0.122 C 
BRANCH  11  12
ATOM     12  O   UNL     1      87.588  53.282  41.614  0.00  0.00    -0.458 OA
BRANCH  12  13
ATOM     13  C   UNL     1      86.705  52.432  42.292  0.00  0.00    +0.339 C 
ATOM     14  O   UNL     1      85.664  52.011  41.715  0.00  0.00    -0.245 OA
BRANCH  13  15
ATOM     15  C   UNL     1      87.001  52.023  43.683  0.00  0.00    +0.059 A 
ATOM     16  C   UNL     1      86.700  52.883  44.754  0.00  0.00    -0.048 A 
ATOM     17  C   UNL     1      86.977  52.498  46.070  0.00  0.00    -0.061 A 
ATOM     18  C   UNL     1      87.555  51.253  46.329  0.00  0.00    -0.062 A 
ATOM     19  C   UNL     1      87.859  50.392  45.273  0.00  0.00    -0.061 A 
ATOM     20  C   UNL     1      87.583  50.771  43.955  0.00  0.00    -0.048 A 
ENDBRANCH  13  15
ENDBRANCH  12  13
ENDBRANCH  11  12
ENDBRANCH   1  11
TORSDOF 6
ENDMDL
