MODEL 1
REMARK VINA RESULT:    -8.211      0.000      0.000
REMARK INTER + INTRA:         -12.412
REMARK INTER:                 -10.904
REMARK INTRA:                  -1.507
REMARK UNBOUND:                -1.081
REMARK  Name = 
REMARK  8 active torsions:
REMARK  status: ('A' for Active; 'I' for Inactive)
REMARK    1  A    between atoms: C_1  and  O_2
REMARK    2  A    between atoms: O_2  and  C_3
REMARK    3  A    between atoms: C_3  and  C_5
REMARK    4  A    between atoms: C_5  and  C_6
REMARK    5  A    between atoms: C_6  and  O_7
REMARK    6  A    between atoms: C_13  and  N_14
REMARK    7  A    between atoms: C_15  and  C_17
REMARK    8  A    between atoms: C_18  and  C_19
REMARK                            x       y       z     vdW  Elec       q    Type
REMARK                         _______ _______ _______ _____ _____    ______ ____
ROOT
ATOM      1  C   UNL     1      85.187  51.901  43.446  0.00  0.00    +0.113 C 
ATOM      2  C   UNL     1      83.682  51.765  43.569  0.00  0.00    -0.047 C 
ATOM      3  C   UNL     1      83.093  50.570  43.708  0.00  0.00    -0.020 C 
ATOM      4  C   UNL     1      83.891  49.339  43.864  0.00  0.00    +0.158 C 
ATOM      5  O   UNL     1      83.308  48.229  43.967  0.00  0.00    -0.293 OA
ATOM      6  C   UNL     1      85.395  49.394  43.859  0.00  0.00    +0.031 C 
ATOM      7  C   UNL     1      85.900  50.786  44.287  0.00  0.00    +0.063 C 
ENDROOT
BRANCH   7   8
ATOM      8  N   UNL     1      85.674  50.952  45.730  0.00  0.00    -0.305 N 
ATOM      9  C   UNL     1      86.733  51.280  46.641  0.00  0.00    +0.237 C 
ATOM     10  O   UNL     1      87.856  51.647  46.198  0.00  0.00    -0.271 OA
ATOM     11  H   UNL     1      84.763  50.834  46.084  0.00  0.00    +0.000 HD
BRANCH   9  12
ATOM     12  C   UNL     1      86.475  51.243  48.095  0.00  0.00    +0.001 C 
ATOM     13  C   UNL     1      85.721  52.121  48.776  0.00  0.00    -0.050 C 
BRANCH  13  14
ATOM     14  C   UNL     1      85.173  53.379  48.230  0.00  0.00    -0.025 A 
ATOM     15  C   UNL     1      86.018  54.429  47.825  0.00  0.00    -0.055 A 
ATOM     16  C   UNL     1      85.475  55.629  47.355  0.00  0.00    -0.061 A 
ATOM     17  C   UNL     1      84.089  55.799  47.307  0.00  0.00    -0.062 A 
ATOM     18  C   UNL     1      83.243  54.772  47.735  0.00  0.00    -0.061 A 
ATOM     19  C   UNL     1      83.783  53.571  48.206  0.00  0.00    -0.055 A 
ENDBRANCH  13  14
ENDBRANCH   9  12
ENDBRANCH   7   8
BRANCH   1  20
ATOM     20  O   UNL     1      85.490  51.703  42.084  0.00  0.00    -0.382 OA
ATOM     21  H   UNL     1      85.187  50.823  41.810  0.00  0.00    +0.000 HD
ENDBRANCH   1  20
BRANCH   1  22
ATOM     22  C   UNL     1      85.654  53.336  43.834  0.00  0.00    +0.079 C 
BRANCH  22  23
ATOM     23  C   UNL     1      86.245  54.141  42.711  0.00  0.00    +0.310 C 
ATOM     24  O   UNL     1      87.489  54.114  42.503  0.00  0.00    -0.251 OA
BRANCH  23  26
ATOM     25  C   UNL     1      84.365  55.727  42.456  0.00  0.00    +0.082 C 
ATOM     26  O   UNL     1      85.408  54.927  41.914  0.00  0.00    -0.468 OA
ENDBRANCH  23  26
ENDBRANCH  22  23
ENDBRANCH   1  22
TORSDOF 7
ENDMDL
MODEL 2
REMARK VINA RESULT:    -7.695      2.046      4.790
REMARK INTER + INTRA:         -11.701
REMARK INTER:                 -10.319
REMARK INTRA:                  -1.382
REMARK UNBOUND:                -1.081
REMARK  Name = 
REMARK  8 active torsions:
REMARK  status: ('A' for Active; 'I' for Inactive)
REMARK    1  A    between atoms: C_1  and  O_2
REMARK    2  A    between atoms: O_2  and  C_3
REMARK    3  A    between atoms: C_3  and  C_5
REMARK    4  A    between atoms: C_5  and  C_6
REMARK    5  A    between atoms: C_6  and  O_7
REMARK    6  A    between atoms: C_13  and  N_14
REMARK    7  A    between atoms: C_15  and  C_17
REMARK    8  A    between atoms: C_18  and  C_19
REMARK                            x       y       z     vdW  Elec       q    Type
REMARK                         _______ _______ _______ _____ _____    ______ ____
ROOT
ATOM      1  C   UNL     1      86.540  51.360  43.418  0.00  0.00    +0.113 C 
ATOM      2  C   UNL     1      88.033  51.420  43.153  0.00  0.00    -0.047 C 
ATOM      3  C   UNL     1      88.523  51.894  42.001  0.00  0.00    -0.020 C 
ATOM      4  C   UNL     1      87.637  52.485  40.980  0.00  0.00    +0.158 C 
ATOM      5  O   UNL     1      88.127  52.898  39.897  0.00  0.00    -0.293 OA
ATOM      6  C   UNL     1      86.151  52.562  41.205  0.00  0.00    +0.031 C 
ATOM      7  C   UNL     1      85.818  52.557  42.710  0.00  0.00    +0.063 C 
ENDROOT
BRANCH   7   8
ATOM      8  N   UNL     1      86.199  53.853  43.287  0.00  0.00    -0.305 N 
ATOM      9  C   UNL     1      85.322  54.988  43.273  0.00  0.00    +0.237 C 
ATOM     10  O   UNL     1      84.110  54.846  42.953  0.00  0.00    -0.271 OA
ATOM     11  H   UNL     1      87.089  53.946  43.699  0.00  0.00    +0.000 HD
BRANCH   9  12
ATOM     12  C   UNL     1      85.837  56.307  43.695  0.00  0.00    +0.001 C 
ATOM     13  C   UNL     1      86.010  56.706  44.966  0.00  0.00    -0.050 C 
BRANCH  13  14
ATOM     14  C   UNL     1      85.542  55.975  46.162  0.00  0.00    -0.025 A 
ATOM     15  C   UNL     1      86.380  55.071  46.840  0.00  0.00    -0.055 A 
ATOM     16  C   UNL     1      85.901  54.355  47.941  0.00  0.00    -0.061 A 
ATOM     17  C   UNL     1      84.578  54.519  48.360  0.00  0.00    -0.062 A 
ATOM     18  C   UNL     1      83.730  55.392  47.673  0.00  0.00    -0.061 A 
ATOM     19  C   UNL     1      84.206  56.109  46.571  0.00  0.00    -0.055 A 
ENDBRANCH  13  14
ENDBRANCH   9  12
ENDBRANCH   7   8
BRANCH   1  20
ATOM     20  O   UNL     1      86.087  50.154  42.844  0.00  0.00    -0.382 OA
ATOM     21  H   UNL     1      86.187  50.198  41.880  0.00  0.00    +0.000 HD
ENDBRANCH   1  20
BRANCH   1  22
ATOM     22  C   UNL     1      86.244  51.299  44.946  0.00  0.00    +0.079 C 
BRANCH  22  23
ATOM     23  C   UNL     1      86.647  50.021  45.627  0.00  0.00    +0.310 C 
ATOM     24  O   UNL     1      85.925  48.993  45.514  0.00  0.00    -0.251 OA
BRANCH  23  26
ATOM     25  C   UNL     1      87.828  50.279  47.784  0.00  0.00    +0.082 C 
ATOM     26  O   UNL     1      87.816  49.989  46.392  0.00  0.00    -0.468 OA
ENDBRANCH  23  26
ENDBRANCH  22  23
ENDBRANCH   1  22
TORSDOF 7
ENDMDL
MODEL 3
REMARK VINA RESULT:    -7.639      2.485      4.090
REMARK INTER + INTRA:         -11.622
REMARK INTER:                 -10.009
REMARK INTRA:                  -1.614
REMARK UNBOUND:                -1.081
REMARK  Name = 
REMARK  8 active torsions:
REMARK  status: ('A' for Active; 'I' for Inactive)
REMARK    1  A    between atoms: C_1  and  O_2
REMARK    2  A    between atoms: O_2  and  C_3
REMARK    3  A    between atoms: C_3  and  C_5
REMARK    4  A    between atoms: C_5  and  C_6
REMARK    5  A    between atoms: C_6  and  O_7
REMARK    6  A    between atoms: C_13  and  N_14
REMARK    7  A    between atoms: C_15  and  C_17
REMARK    8  A    between atoms: C_18  and  C_19
REMARK                            x       y       z     vdW  Elec       q    Type
REMARK                         _______ _______ _______ _____ _____    ______ ____
ROOT
ATOM      1  C   UNL     1      87.805  49.875  43.192  0.00  0.00    +0.113 C 
ATOM      2  C   UNL     1      86.691  49.041  43.796  0.00  0.00    -0.047 C 
ATOM      3  C   UNL     1      86.281  49.224  45.057  0.00  0.00    -0.020 C 
ATOM      4  C   UNL     1      86.817  50.323  45.882  0.00  0.00    +0.158 C 
ATOM      5  O   UNL     1      86.429  50.453  47.073  0.00  0.00    -0.293 OA
ATOM      6  C   UNL     1      87.851  51.266  45.328  0.00  0.00    +0.031 C 
ATOM      7  C   UNL     1      87.778  51.324  43.789  0.00  0.00    +0.063 C 
ENDROOT
BRANCH   7   8
ATOM      8  N   UNL     1      86.569  52.062  43.397  0.00  0.00    -0.305 N 
ATOM      9  C   UNL     1      86.623  53.372  42.816  0.00  0.00    +0.237 C 
ATOM     10  O   UNL     1      87.726  53.846  42.426  0.00  0.00    -0.271 OA
ATOM     11  H   UNL     1      85.690  51.641  43.537  0.00  0.00    +0.000 HD
BRANCH   9  12
ATOM     12  C   UNL     1      85.371  54.132  42.623  0.00  0.00    +0.001 C 
ATOM     13  C   UNL     1      84.731  54.834  43.572  0.00  0.00    -0.050 C 
BRANCH  13  14
ATOM     14  C   UNL     1      85.058  54.818  45.013  0.00  0.00    -0.025 A 
ATOM     15  C   UNL     1      85.899  55.792  45.582  0.00  0.00    -0.055 A 
ATOM     16  C   UNL     1      86.233  55.730  46.938  0.00  0.00    -0.061 A 
ATOM     17  C   UNL     1      85.750  54.685  47.731  0.00  0.00    -0.062 A 
ATOM     18  C   UNL     1      84.939  53.697  47.166  0.00  0.00    -0.061 A 
ATOM     19  C   UNL     1      84.604  53.756  45.810  0.00  0.00    -0.055 A 
ENDBRANCH  13  14
ENDBRANCH   9  12
ENDBRANCH   7   8
BRANCH   1  20
ATOM     20  O   UNL     1      89.012  49.252  43.571  0.00  0.00    -0.382 OA
ATOM     21  H   UNL     1      89.620  49.239  42.814  0.00  0.00    +0.000 HD
ENDBRANCH   1  20
BRANCH   1  22
ATOM     22  C   UNL     1      87.733  49.865  41.636  0.00  0.00    +0.079 C 
BRANCH  22  23
ATOM     23  C   UNL     1      88.788  50.678  40.941  0.00  0.00    +0.310 C 
ATOM     24  O   UNL     1      89.996  50.571  41.288  0.00  0.00    -0.251 OA
BRANCH  23  26
ATOM     25  C   UNL     1      89.266  52.603  39.464  0.00  0.00    +0.082 C 
ATOM     26  O   UNL     1      88.416  51.558  39.920  0.00  0.00    -0.468 OA
ENDBRANCH  23  26
ENDBRANCH  22  23
ENDBRANCH   1  22
TORSDOF 7
ENDMDL
MODEL 4
REMARK VINA RESULT:    -7.614      2.998      4.713
REMARK INTER + INTRA:         -11.588
REMARK INTER:                 -10.041
REMARK INTRA:                  -1.547
REMARK UNBOUND:                -1.081
REMARK  Name = 
REMARK  8 active torsions:
REMARK  status: ('A' for Active; 'I' for Inactive)
REMARK    1  A    between atoms: C_1  and  O_2
REMARK    2  A    between atoms: O_2  and  C_3
REMARK    3  A    between atoms: C_3  and  C_5
REMARK    4  A    between atoms: C_5  and  C_6
REMARK    5  A    between atoms: C_6  and  O_7
REMARK    6  A    between atoms: C_13  and  N_14
REMARK    7  A    between atoms: C_15  and  C_17
REMARK    8  A    between atoms: C_18  and  C_19
REMARK                            x       y       z     vdW  Elec       q    Type
REMARK                         _______ _______ _______ _____ _____    ______ ____
ROOT
ATOM      1  C   UNL     1      88.137  49.963  42.188  0.00  0.00    +0.113 C 
ATOM      2  C   UNL     1      89.080  51.148  42.101  0.00  0.00    -0.047 C 
ATOM      3  C   UNL     1      88.626  52.408  42.088  0.00  0.00    -0.020 C 
ATOM      4  C   UNL     1      87.193  52.704  42.273  0.00  0.00    +0.158 C 
ATOM      5  O   UNL     1      86.795  53.898  42.230  0.00  0.00    -0.293 OA
ATOM      6  C   UNL     1      86.198  51.593  42.472  0.00  0.00    +0.031 C 
ATOM      7  C   UNL     1      86.880  50.336  43.047  0.00  0.00    +0.063 C 
ENDROOT
BRANCH   7   8
ATOM      8  N   UNL     1      87.224  50.583  44.455  0.00  0.00    -0.305 N 
ATOM      9  C   UNL     1      86.650  49.827  45.530  0.00  0.00    +0.237 C 
ATOM     10  O   UNL     1      85.989  48.781  45.284  0.00  0.00    -0.271 OA
ATOM     11  H   UNL     1      87.873  51.292  44.666  0.00  0.00    +0.000 HD
BRANCH   9  12
ATOM     12  C   UNL     1      86.891  50.252  46.924  0.00  0.00    +0.001 C 
ATOM     13  C   UNL     1      86.554  51.442  47.446  0.00  0.00    -0.050 C 
BRANCH  13  14
ATOM     14  C   UNL     1      86.057  52.602  46.677  0.00  0.00    -0.025 A 
ATOM     15  C   UNL     1      86.924  53.630  46.262  0.00  0.00    -0.055 A 
ATOM     16  C   UNL     1      86.423  54.740  45.577  0.00  0.00    -0.061 A 
ATOM     17  C   UNL     1      85.054  54.845  45.320  0.00  0.00    -0.062 A 
ATOM     18  C   UNL     1      84.182  53.843  45.755  0.00  0.00    -0.061 A 
ATOM     19  C   UNL     1      84.680  52.731  46.441  0.00  0.00    -0.055 A 
ENDBRANCH  13  14
ENDBRANCH   9  12
ENDBRANCH   7   8
BRANCH   1  20
ATOM     20  O   UNL     1      87.720  49.694  40.869  0.00  0.00    -0.382 OA
ATOM     21  H   UNL     1      87.025  50.322  40.615  0.00  0.00    +0.000 HD
ENDBRANCH   1  20
BRANCH   1  22
ATOM     22  C   UNL     1      88.874  48.698  42.721  0.00  0.00    +0.079 C 
BRANCH  22  23
ATOM     23  C   UNL     1      89.077  47.603  41.713  0.00  0.00    +0.310 C 
ATOM     24  O   UNL     1      90.147  47.550  41.046  0.00  0.00    -0.251 OA
BRANCH  23  26
ATOM     25  C   UNL     1      86.954  46.530  42.389  0.00  0.00    +0.082 C 
ATOM     26  O   UNL     1      88.067  46.657  41.513  0.00  0.00    -0.468 OA
ENDBRANCH  23  26
ENDBRANCH  22  23
ENDBRANCH   1  22
TORSDOF 7
ENDMDL
MODEL 5
REMARK VINA RESULT:    -7.564      2.180      4.591
REMARK INTER + INTRA:         -11.520
REMARK INTER:                  -9.797
REMARK INTRA:                  -1.723
REMARK UNBOUND:                -1.081
REMARK  Name = 
REMARK  8 active torsions:
REMARK  status: ('A' for Active; 'I' for Inactive)
REMARK    1  A    between atoms: C_1  and  O_2
REMARK    2  A    between atoms: O_2  and  C_3
REMARK    3  A    between atoms: C_3  and  C_5
REMARK    4  A    between atoms: C_5  and  C_6
REMARK    5  A    between atoms: C_6  and  O_7
REMARK    6  A    between atoms: C_13  and  N_14
REMARK    7  A    between atoms: C_15  and  C_17
REMARK    8  A    between atoms: C_18  and  C_19
REMARK                            x       y       z     vdW  Elec       q    Type
REMARK                         _______ _______ _______ _____ _____    ______ ____
ROOT
ATOM      1  C   UNL     1      86.880  51.429  43.022  0.00  0.00    +0.113 C 
ATOM      2  C   UNL     1      88.386  51.506  42.854  0.00  0.00    -0.047 C 
ATOM      3  C   UNL     1      88.943  52.019  41.751  0.00  0.00    -0.020 C 
ATOM      4  C   UNL     1      88.119  52.637  40.695  0.00  0.00    +0.158 C 
ATOM      5  O   UNL     1      88.673  53.087  39.658  0.00  0.00    -0.293 OA
ATOM      6  C   UNL     1      86.621  52.699  40.827  0.00  0.00    +0.031 C 
ATOM      7  C   UNL     1      86.195  52.644  42.308  0.00  0.00    +0.063 C 
ENDROOT
BRANCH   7   8
ATOM      8  N   UNL     1      86.529  53.924  42.948  0.00  0.00    -0.305 N 
ATOM      9  C   UNL     1      85.539  54.923  43.230  0.00  0.00    +0.237 C 
ATOM     10  O   UNL     1      84.312  54.644  43.130  0.00  0.00    -0.271 OA
ATOM     11  H   UNL     1      87.465  54.101  43.192  0.00  0.00    +0.000 HD
BRANCH   9  12
ATOM     12  C   UNL     1      85.968  56.258  43.696  0.00  0.00    +0.001 C 
ATOM     13  C   UNL     1      86.033  56.652  44.978  0.00  0.00    -0.050 C 
BRANCH  13  14
ATOM     14  C   UNL     1      85.509  55.892  46.132  0.00  0.00    -0.025 A 
ATOM     15  C   UNL     1      84.194  56.082  46.596  0.00  0.00    -0.055 A 
ATOM     16  C   UNL     1      83.736  55.387  47.719  0.00  0.00    -0.061 A 
ATOM     17  C   UNL     1      84.590  54.516  48.400  0.00  0.00    -0.062 A 
ATOM     18  C   UNL     1      85.906  54.345  47.963  0.00  0.00    -0.061 A 
ATOM     19  C   UNL     1      86.368  55.039  46.841  0.00  0.00    -0.055 A 
ENDBRANCH  13  14
ENDBRANCH   9  12
ENDBRANCH   7   8
BRANCH   1  20
ATOM     20  O   UNL     1      86.474  50.240  42.384  0.00  0.00    -0.382 OA
ATOM     21  H   UNL     1      86.376  50.401  41.432  0.00  0.00    +0.000 HD
ENDBRANCH   1  20
BRANCH   1  22
ATOM     22  C   UNL     1      86.489  51.319  44.526  0.00  0.00    +0.079 C 
BRANCH  22  23
ATOM     23  C   UNL     1      85.012  51.303  44.804  0.00  0.00    +0.310 C 
ATOM     24  O   UNL     1      84.485  52.240  45.464  0.00  0.00    -0.251 OA
BRANCH  23  26
ATOM     25  C   UNL     1      83.098  50.427  43.507  0.00  0.00    +0.082 C 
ATOM     26  O   UNL     1      84.236  50.238  44.338  0.00  0.00    -0.468 OA
ENDBRANCH  23  26
ENDBRANCH  22  23
ENDBRANCH   1  22
TORSDOF 7
ENDMDL
MODEL 6
REMARK VINA RESULT:    -7.559      2.305      4.021
REMARK INTER + INTRA:         -11.512
REMARK INTER:                 -10.562
REMARK INTRA:                  -0.951
REMARK UNBOUND:                -1.081
REMARK  Name = 
REMARK  8 active torsions:
REMARK  status: ('A' for Active; 'I' for Inactive)
REMARK    1  A    between atoms: C_1  and  O_2
REMARK    2  A    between atoms: O_2  and  C_3
REMARK    3  A    between atoms: C_3  and  C_5
REMARK    4  A    between atoms: C_5  and  C_6
REMARK    5  A    between atoms: C_6  and  O_7
REMARK    6  A    between atoms: C_13  and  N_14
REMARK    7  A    between atoms: C_15  and  C_17
REMARK    8  A    between atoms: C_18  and  C_19
REMARK                            x       y       z     vdW  Elec       q    Type
REMARK                         _______ _______ _______ _____ _____    ______ ____
ROOT
ATOM      1  C   UNL     1      85.004  54.144  42.039  0.00  0.00    +0.113 C 
ATOM      2  C   UNL     1      83.839  53.249  42.413  0.00  0.00    -0.047 C 
ATOM      3  C   UNL     1      83.881  52.455  43.491  0.00  0.00    -0.020 C 
ATOM      4  C   UNL     1      85.019  52.500  44.428  0.00  0.00    +0.158 C 
ATOM      5  O   UNL     1      85.040  51.723  45.418  0.00  0.00    -0.293 OA
ATOM      6  C   UNL     1      86.173  53.437  44.191  0.00  0.00    +0.031 C 
ATOM      7  C   UNL     1      85.740  54.640  43.331  0.00  0.00    +0.063 C 
ENDROOT
BRANCH   7   8
ATOM      8  N   UNL     1      84.895  55.527  44.143  0.00  0.00    -0.305 N 
ATOM      9  C   UNL     1      85.334  56.823  44.575  0.00  0.00    +0.237 C 
ATOM     10  O   UNL     1      86.382  57.330  44.089  0.00  0.00    -0.271 OA
ATOM     11  H   UNL     1      83.995  55.221  44.400  0.00  0.00    +0.000 HD
BRANCH   9  12
ATOM     12  C   UNL     1      84.515  57.580  45.544  0.00  0.00    +0.001 C 
ATOM     13  C   UNL     1      84.175  57.159  46.773  0.00  0.00    -0.050 C 
BRANCH  13  14
ATOM     14  C   UNL     1      84.396  55.797  47.302  0.00  0.00    -0.025 A 
ATOM     15  C   UNL     1      83.322  54.915  47.522  0.00  0.00    -0.055 A 
ATOM     16  C   UNL     1      83.551  53.648  48.067  0.00  0.00    -0.061 A 
ATOM     17  C   UNL     1      84.847  53.260  48.416  0.00  0.00    -0.062 A 
ATOM     18  C   UNL     1      85.915  54.142  48.228  0.00  0.00    -0.061 A 
ATOM     19  C   UNL     1      85.690  55.410  47.684  0.00  0.00    -0.055 A 
ENDBRANCH  13  14
ENDBRANCH   9  12
ENDBRANCH   7   8
BRANCH   1  20
ATOM     20  O   UNL     1      85.892  53.343  41.292  0.00  0.00    -0.382 OA
ATOM     21  H   UNL     1      85.385  52.718  40.750  0.00  0.00    +0.000 HD
ENDBRANCH   1  20
BRANCH   1  22
ATOM     22  C   UNL     1      84.539  55.317  41.125  0.00  0.00    +0.079 C 
BRANCH  22  23
ATOM     23  C   UNL     1      84.376  54.971  39.672  0.00  0.00    +0.310 C 
ATOM     24  O   UNL     1      85.262  54.292  39.083  0.00  0.00    -0.251 OA
BRANCH  23  26
ATOM     25  C   UNL     1      83.334  56.154  37.767  0.00  0.00    +0.082 C 
ATOM     26  O   UNL     1      83.247  55.419  38.981  0.00  0.00    -0.468 OA
ENDBRANCH  23  26
ENDBRANCH  22  23
ENDBRANCH   1  22
TORSDOF 7
ENDMDL
MODEL 7
REMARK VINA RESULT:    -7.387      3.086      6.087
REMARK INTER + INTRA:         -11.275
REMARK INTER:                 -10.031
REMARK INTRA:                  -1.245
REMARK UNBOUND:                -1.081
REMARK  Name = 
REMARK  8 active torsions:
REMARK  status: ('A' for Active; 'I' for Inactive)
REMARK    1  A    between atoms: C_1  and  O_2
REMARK    2  A    between atoms: O_2  and  C_3
REMARK    3  A    between atoms: C_3  and  C_5
REMARK    4  A    between atoms: C_5  and  C_6
REMARK    5  A    between atoms: C_6  and  O_7
REMARK    6  A    between atoms: C_13  and  N_14
REMARK    7  A    between atoms: C_15  and  C_17
REMARK    8  A    between atoms: C_18  and  C_19
REMARK                            x       y       z     vdW  Elec       q    Type
REMARK                         _______ _______ _______ _____ _____    ______ ____
ROOT
ATOM      1  C   UNL     1      85.992  53.266  44.842  0.00  0.00    +0.113 C 
ATOM      2  C   UNL     1      86.817  52.660  45.962  0.00  0.00    -0.047 C 
ATOM      3  C   UNL     1      87.092  51.350  46.002  0.00  0.00    -0.020 C 
ATOM      4  C   UNL     1      86.701  50.454  44.898  0.00  0.00    +0.158 C 
ATOM      5  O   UNL     1      86.953  49.223  44.978  0.00  0.00    -0.293 OA
ATOM      6  C   UNL     1      85.971  50.989  43.696  0.00  0.00    +0.031 C 
ATOM      7  C   UNL     1      86.250  52.493  43.503  0.00  0.00    +0.063 C 
ENDROOT
BRANCH   7   8
ATOM      8  N   UNL     1      87.628  52.664  43.022  0.00  0.00    -0.305 N 
ATOM      9  C   UNL     1      87.942  52.830  41.632  0.00  0.00    +0.237 C 
ATOM     10  O   UNL     1      87.020  53.049  40.798  0.00  0.00    -0.271 OA
ATOM     11  H   UNL     1      88.363  52.664  43.677  0.00  0.00    +0.000 HD
BRANCH   9  12
ATOM     12  C   UNL     1      89.354  52.804  41.199  0.00  0.00    +0.001 C 
ATOM     13  C   UNL     1      90.102  51.700  41.045  0.00  0.00    -0.050 C 
BRANCH  13  14
ATOM     14  C   UNL     1      89.708  50.337  41.459  0.00  0.00    -0.025 A 
ATOM     15  C   UNL     1      88.448  49.807  41.124  0.00  0.00    -0.055 A 
ATOM     16  C   UNL     1      88.079  48.533  41.566  0.00  0.00    -0.061 A 
ATOM     17  C   UNL     1      88.953  47.788  42.362  0.00  0.00    -0.062 A 
ATOM     18  C   UNL     1      90.194  48.320  42.724  0.00  0.00    -0.061 A 
ATOM     19  C   UNL     1      90.566  49.594  42.283  0.00  0.00    -0.055 A 
ENDBRANCH  13  14
ENDBRANCH   9  12
ENDBRANCH   7   8
BRANCH   1  20
ATOM     20  O   UNL     1      84.642  53.094  45.211  0.00  0.00    -0.382 OA
ATOM     21  H   UNL     1      84.491  52.169  45.461  0.00  0.00    +0.000 HD
ENDBRANCH   1  20
BRANCH   1  22
ATOM     22  C   UNL     1      86.259  54.795  44.713  0.00  0.00    +0.079 C 
BRANCH  22  23
ATOM     23  C   UNL     1      85.278  55.546  43.858  0.00  0.00    +0.310 C 
ATOM     24  O   UNL     1      84.257  56.070  44.382  0.00  0.00    -0.251 OA
BRANCH  23  26
ATOM     25  C   UNL     1      84.473  55.442  41.522  0.00  0.00    +0.082 C 
ATOM     26  O   UNL     1      85.502  55.647  42.482  0.00  0.00    -0.468 OA
ENDBRANCH  23  26
ENDBRANCH  22  23
ENDBRANCH   1  22
TORSDOF 7
ENDMDL
MODEL 8
REMARK VINA RESULT:    -7.345      2.675      5.242
REMARK INTER + INTRA:         -11.217
REMARK INTER:                 -10.102
REMARK INTRA:                  -1.115
REMARK UNBOUND:                -1.081
REMARK  Name = 
REMARK  8 active torsions:
REMARK  status: ('A' for Active; 'I' for Inactive)
REMARK    1  A    between atoms: C_1  and  O_2
REMARK    2  A    between atoms: O_2  and  C_3
REMARK    3  A    between atoms: C_3  and  C_5
REMARK    4  A    between atoms: C_5  and  C_6
REMARK    5  A    between atoms: C_6  and  O_7
REMARK    6  A    between atoms: C_13  and  N_14
REMARK    7  A    between atoms: C_15  and  C_17
REMARK    8  A    between atoms: C_18  and  C_19
REMARK                            x       y       z     vdW  Elec       q    Type
REMARK                         _______ _______ _______ _____ _____    ______ ____
ROOT
ATOM      1  C   UNL     1      88.044  50.293  41.936  0.00  0.00    +0.113 C 
ATOM      2  C   UNL     1      89.461  50.785  41.718  0.00  0.00    -0.047 C 
ATOM      3  C   UNL     1      89.741  51.750  40.832  0.00  0.00    -0.020 C 
ATOM      4  C   UNL     1      88.668  52.457  40.109  0.00  0.00    +0.158 C 
ATOM      5  O   UNL     1      88.965  53.342  39.264  0.00  0.00    -0.293 OA
ATOM      6  C   UNL     1      87.223  52.104  40.342  0.00  0.00    +0.031 C 
ATOM      7  C   UNL     1      87.027  51.468  41.732  0.00  0.00    +0.063 C 
ENDROOT
BRANCH   7   8
ATOM      8  N   UNL     1      87.171  52.510  42.759  0.00  0.00    -0.305 N 
ATOM      9  C   UNL     1      86.049  53.042  43.476  0.00  0.00    +0.237 C 
ATOM     10  O   UNL     1      84.923  52.477  43.398  0.00  0.00    -0.271 OA
ATOM     11  H   UNL     1      88.071  52.854  42.961  0.00  0.00    +0.000 HD
BRANCH   9  12
ATOM     12  C   UNL     1      86.239  54.216  44.352  0.00  0.00    +0.001 C 
ATOM     13  C   UNL     1      86.565  54.172  45.654  0.00  0.00    -0.050 C 
BRANCH  13  14
ATOM     14  C   UNL     1      86.606  52.951  46.484  0.00  0.00    -0.025 A 
ATOM     15  C   UNL     1      85.875  52.857  47.683  0.00  0.00    -0.055 A 
ATOM     16  C   UNL     1      85.966  51.710  48.476  0.00  0.00    -0.061 A 
ATOM     17  C   UNL     1      86.801  50.658  48.092  0.00  0.00    -0.062 A 
ATOM     18  C   UNL     1      87.553  50.755  46.918  0.00  0.00    -0.061 A 
ATOM     19  C   UNL     1      87.465  51.902  46.123  0.00  0.00    -0.055 A 
ENDBRANCH  13  14
ENDBRANCH   9  12
ENDBRANCH   7   8
BRANCH   1  20
ATOM     20  O   UNL     1      87.810  49.315  40.947  0.00  0.00    -0.382 OA
ATOM     21  H   UNL     1      87.607  49.751  40.104  0.00  0.00    +0.000 HD
ENDBRANCH   1  20
BRANCH   1  22
ATOM     22  C   UNL     1      87.896  49.606  43.327  0.00  0.00    +0.079 C 
BRANCH  22  23
ATOM     23  C   UNL     1      86.893  48.489  43.387  0.00  0.00    +0.310 C 
ATOM     24  O   UNL     1      87.094  47.426  42.738  0.00  0.00    -0.251 OA
BRANCH  23  26
ATOM     25  C   UNL     1      84.497  49.063  43.594  0.00  0.00    +0.082 C 
ATOM     26  O   UNL     1      85.735  48.646  44.154  0.00  0.00    -0.468 OA
ENDBRANCH  23  26
ENDBRANCH  22  23
ENDBRANCH   1  22
TORSDOF 7
ENDMDL
MODEL 9
REMARK VINA RESULT:    -7.291      2.558      5.474
REMARK INTER + INTRA:         -11.142
REMARK INTER:                 -10.061
REMARK INTRA:                  -1.081
REMARK UNBOUND:                -1.081
REMARK  Name = 
REMARK  8 active torsions:
REMARK  status: ('A' for Active; 'I' for Inactive)
REMARK    1  A    between atoms: C_1  and  O_2
REMARK    2  A    between atoms: O_2  and  C_3
REMARK    3  A    between atoms: C_3  and  C_5
REMARK    4  A    between atoms: C_5  and  C_6
REMARK    5  A    between atoms: C_6  and  O_7
REMARK    6  A    between atoms: C_13  and  N_14
REMARK    7  A    between atoms: C_15  and  C_17
REMARK    8  A    between atoms: C_18  and  C_19
REMARK                            x       y       z     vdW  Elec       q    Type
REMARK                         _______ _______ _______ _____ _____    ______ ____
ROOT
ATOM      1  C   UNL     1      85.515  54.975  45.079  0.00  0.00    +0.113 C 
ATOM      2  C   UNL     1      86.313  55.605  46.204  0.00  0.00    -0.047 C 
ATOM      3  C   UNL     1      85.978  55.428  47.487  0.00  0.00    -0.020 C 
ATOM      4  C   UNL     1      84.883  54.518  47.872  0.00  0.00    +0.158 C 
ATOM      5  O   UNL     1      84.576  54.393  49.087  0.00  0.00    -0.293 OA
ATOM      6  C   UNL     1      84.104  53.768  46.825  0.00  0.00    +0.031 C 
ATOM      7  C   UNL     1      84.933  53.594  45.538  0.00  0.00    +0.063 C 
ENDROOT
BRANCH   7   8
ATOM      8  N   UNL     1      85.990  52.602  45.783  0.00  0.00    -0.305 N 
ATOM      9  C   UNL     1      85.916  51.260  45.280  0.00  0.00    +0.237 C 
ATOM     10  O   UNL     1      85.038  50.952  44.429  0.00  0.00    -0.271 OA
ATOM     11  H   UNL     1      86.777  52.869  46.311  0.00  0.00    +0.000 HD
BRANCH   9  12
ATOM     12  C   UNL     1      86.914  50.265  45.723  0.00  0.00    +0.001 C 
ATOM     13  C   UNL     1      88.012  49.906  45.039  0.00  0.00    -0.050 C 
BRANCH  13  14
ATOM     14  C   UNL     1      88.319  50.298  43.648  0.00  0.00    -0.025 A 
ATOM     15  C   UNL     1      88.741  49.350  42.698  0.00  0.00    -0.055 A 
ATOM     16  C   UNL     1      89.071  49.752  41.400  0.00  0.00    -0.061 A 
ATOM     17  C   UNL     1      89.004  51.102  41.047  0.00  0.00    -0.062 A 
ATOM     18  C   UNL     1      88.615  52.054  41.994  0.00  0.00    -0.061 A 
ATOM     19  C   UNL     1      88.284  51.655  43.293  0.00  0.00    -0.055 A 
ENDBRANCH  13  14
ENDBRANCH   9  12
ENDBRANCH   7   8
BRANCH   1  20
ATOM     20  O   UNL     1      84.443  55.853  44.817  0.00  0.00    -0.382 OA
ATOM     21  H   UNL     1      84.148  55.738  43.899  0.00  0.00    +0.000 HD
ENDBRANCH   1  20
BRANCH   1  22
ATOM     22  C   UNL     1      86.367  54.865  43.779  0.00  0.00    +0.079 C 
BRANCH  22  23
ATOM     23  C   UNL     1      85.580  54.746  42.505  0.00  0.00    +0.310 C 
ATOM     24  O   UNL     1      85.108  55.780  41.957  0.00  0.00    -0.251 OA
BRANCH  23  26
ATOM     25  C   UNL     1      84.620  53.294  40.748  0.00  0.00    +0.082 C 
ATOM     26  O   UNL     1      85.367  53.484  41.944  0.00  0.00    -0.468 OA
ENDBRANCH  23  26
ENDBRANCH  22  23
ENDBRANCH   1  22
TORSDOF 7
ENDMDL
