REMARK  Name = 
REMARK  11 active torsions:
REMARK  status: ('A' for Active; 'I' for Inactive)
REMARK    1  A    between atoms: C_1  and  C_2
REMARK    2  A    between atoms: C_2  and  C_3
REMARK    3  A    between atoms: C_2  and  C_11
REMARK    4  A    between atoms: C_3  and  C_4
REMARK    5  A    between atoms: C_4  and  C_5
REMARK    6  A    between atoms: C_5  and  C_6
REMARK    7  A    between atoms: C_6  and  C_7
REMARK    8  A    between atoms: C_6  and  C_8
REMARK    9  A    between atoms: C_8  and  O_10
REMARK   10  A    between atoms: C_15  and  C_30
REMARK   11  A    between atoms: C_28  and  C_29
REMARK                            x       y       z     vdW  Elec       q    Type
REMARK                         _______ _______ _______ _____ _____    ______ ____
ROOT
ATOM      1  C   UNL     1       6.117  -0.131  -4.780  0.00  0.00    -0.002 C 
ATOM      2  C   UNL     1       5.355  -1.486  -4.758  0.00  0.00    +0.004 C 
ATOM      3  C   UNL     1       4.809  -1.728  -6.172  0.00  0.00    +0.004 C 
ATOM      4  C   UNL     1       5.496  -0.673  -7.026  0.00  0.00    -0.001 C 
ATOM      5  C   UNL     1       5.600   0.556  -6.082  0.00  0.00    -0.026 C 
ATOM      6  C   UNL     1       6.603   1.509  -6.751  0.00  0.00    +0.007 C 
ATOM      7  C   UNL     1       6.149   1.946  -8.148  0.00  0.00    +0.005 C 
ATOM      8  C   UNL     1       5.654   0.808  -9.074  0.00  0.00    +0.002 C 
ATOM      9  C   UNL     1       4.839  -0.310  -8.359  0.00  0.00    -0.003 C 
ATOM     10  C   UNL     1       4.686  -1.506  -9.311  0.00  0.00    +0.008 C 
ATOM     11  C   UNL     1       3.969  -1.081 -10.595  0.00  0.00    +0.032 C 
ATOM     12  C   UNL     1       4.598   0.127 -11.256  0.00  0.00    -0.060 C 
ATOM     13  C   UNL     1       4.858   0.113 -12.576  0.00  0.00    +0.046 C 
ATOM     14  C   UNL     1       5.365   1.313 -13.281  0.00  0.00    +0.156 C 
ATOM     15  O   UNL     1       5.649   1.235 -14.479  0.00  0.00    -0.293 OA
ATOM     16  C   UNL     1       5.412   2.611 -12.528  0.00  0.00    +0.080 C 
ATOM     17  C   UNL     1       5.813   2.358 -11.081  0.00  0.00    +0.019 C 
ATOM     18  C   UNL     1       4.900   1.331 -10.353  0.00  0.00    -0.007 C 
ATOM     19  C   UNL     1       3.561   2.030 -10.003  0.00  0.00    +0.016 C 
ATOM     20  C   UNL     1       4.244   1.270  -5.865  0.00  0.00    +0.012 C 
ENDROOT
BRANCH   1  22
ATOM     21  C   UNL     1       6.617   2.034  -3.478  0.00  0.00    +0.008 C 
ATOM     22  C   UNL     1       6.044   0.613  -3.405  0.00  0.00    -0.010 C 
BRANCH  22  23
ATOM     23  C   UNL     1       6.776  -0.227  -2.319  0.00  0.00    +0.003 C 
BRANCH  23  24
ATOM     24  C   UNL     1       6.877   0.373  -0.907  0.00  0.00    +0.001 C 
BRANCH  24  25
ATOM     25  C   UNL     1       5.556   0.802  -0.258  0.00  0.00    +0.014 C 
BRANCH  25  26
ATOM     26  C   UNL     1       4.574  -0.343   0.031  0.00  0.00    +0.095 C 
ATOM     27  C   UNL     1       3.274   0.203   0.617  0.00  0.00    +0.019 C 
BRANCH  26  28
ATOM     28  C   UNL     1       5.148  -1.336   1.017  0.00  0.00    +0.308 C 
ATOM     29  O   UNL     1       5.926  -1.104   1.928  0.00  0.00    -0.251 OA
BRANCH  28  30
ATOM     30  O   UNL     1       4.668  -2.581   0.833  0.00  0.00    -0.480 OA
ATOM     31  H   UNL     1       5.088  -3.106   1.544  0.00  0.00    +0.295 HD
ENDBRANCH  28  30
ENDBRANCH  26  28
ENDBRANCH  25  26
ENDBRANCH  24  25
ENDBRANCH  23  24
ENDBRANCH  22  23
ENDBRANCH   1  22
TORSDOF 7
