REMARK  Name = 
REMARK  11 active torsions:
REMARK  status: ('A' for Active; 'I' for Inactive)
REMARK    1  A    between atoms: C_1  and  C_2
REMARK    2  A    between atoms: C_2  and  C_3
REMARK    3  A    between atoms: C_2  and  C_11
REMARK    4  A    between atoms: C_3  and  C_4
REMARK    5  A    between atoms: C_4  and  C_5
REMARK    6  A    between atoms: C_5  and  C_6
REMARK    7  A    between atoms: C_6  and  C_7
REMARK    8  A    between atoms: C_6  and  C_8
REMARK    9  A    between atoms: C_8  and  O_10
REMARK   10  A    between atoms: C_15  and  C_30
REMARK   11  A    between atoms: C_28  and  C_29
REMARK                            x       y       z     vdW  Elec       q    Type
REMARK                         _______ _______ _______ _____ _____    ______ ____
ROOT
ATOM      1  C   UNL     1      -0.972  -0.518   1.175  0.00  0.00    -0.002 C 
ATOM      2  C   UNL     1      -1.651   0.777   0.643  0.00  0.00    +0.004 C 
ATOM      3  C   UNL     1      -2.920   0.359  -0.107  0.00  0.00    +0.004 C 
ATOM      4  C   UNL     1      -3.080  -1.118   0.207  0.00  0.00    -0.001 C 
ATOM      5  C   UNL     1      -1.629  -1.649   0.324  0.00  0.00    -0.026 C 
ATOM      6  C   UNL     1      -1.755  -3.016   1.023  0.00  0.00    +0.007 C 
ATOM      7  C   UNL     1      -2.634  -3.995   0.226  0.00  0.00    +0.005 C 
ATOM      8  C   UNL     1      -3.995  -3.418  -0.250  0.00  0.00    +0.002 C 
ATOM      9  C   UNL     1      -3.906  -1.954  -0.772  0.00  0.00    -0.003 C 
ATOM     10  C   UNL     1      -5.308  -1.378  -0.998  0.00  0.00    +0.008 C 
ATOM     11  C   UNL     1      -6.109  -2.240  -1.968  0.00  0.00    +0.032 C 
ATOM     12  C   UNL     1      -6.118  -3.700  -1.578  0.00  0.00    -0.060 C 
ATOM     13  C   UNL     1      -7.283  -4.366  -1.527  0.00  0.00    +0.046 C 
ATOM     14  C   UNL     1      -7.334  -5.826  -1.282  0.00  0.00    +0.156 C 
ATOM     15  O   UNL     1      -8.421  -6.385  -1.183  0.00  0.00    -0.293 OA
ATOM     16  C   UNL     1      -6.032  -6.580  -1.282  0.00  0.00    +0.080 C 
ATOM     17  C   UNL     1      -4.947  -5.745  -0.618  0.00  0.00    +0.019 C 
ATOM     18  C   UNL     1      -4.758  -4.346  -1.270  0.00  0.00    -0.007 C 
ATOM     19  C   UNL     1      -3.984  -4.519  -2.600  0.00  0.00    +0.016 C 
ATOM     20  C   UNL     1      -0.930  -1.798  -1.052  0.00  0.00    +0.012 C 
ENDROOT
BRANCH   1  22
ATOM     21  C   UNL     1       1.246  -1.743   1.565  0.00  0.00    +0.008 C 
ATOM     22  C   UNL     1       0.590  -0.408   1.191  0.00  0.00    -0.010 C 
BRANCH  22  23
ATOM     23  C   UNL     1       1.054   0.720   2.152  0.00  0.00    +0.003 C 
BRANCH  23  24
ATOM     24  C   UNL     1       2.574   0.941   2.273  0.00  0.00    +0.001 C 
BRANCH  24  25
ATOM     25  C   UNL     1       3.303   1.280   0.967  0.00  0.00    +0.014 C 
BRANCH  25  26
ATOM     26  C   UNL     1       2.809   2.560   0.273  0.00  0.00    +0.095 C 
ATOM     27  C   UNL     1       2.987   3.792   1.162  0.00  0.00    +0.019 C 
BRANCH  26  28
ATOM     28  C   UNL     1       3.534   2.754  -1.044  0.00  0.00    +0.308 C 
ATOM     29  O   UNL     1       4.264   3.682  -1.355  0.00  0.00    -0.251 OA
BRANCH  28  30
ATOM     30  O   UNL     1       3.264   1.780  -1.930  0.00  0.00    -0.480 OA
ATOM     31  H   UNL     1       3.768   2.041  -2.731  0.00  0.00    +0.295 HD
ENDBRANCH  28  30
ENDBRANCH  26  28
ENDBRANCH  25  26
ENDBRANCH  24  25
ENDBRANCH  23  24
ENDBRANCH  22  23
ENDBRANCH   1  22
TORSDOF 7
