REMARK  Name = 
REMARK  11 active torsions:
REMARK  status: ('A' for Active; 'I' for Inactive)
REMARK    1  A    between atoms: C_1  and  C_2
REMARK    2  A    between atoms: C_2  and  C_3
REMARK    3  A    between atoms: C_2  and  C_11
REMARK    4  A    between atoms: C_3  and  C_4
REMARK    5  A    between atoms: C_4  and  C_5
REMARK    6  A    between atoms: C_5  and  C_6
REMARK    7  A    between atoms: C_6  and  C_7
REMARK    8  A    between atoms: C_6  and  C_8
REMARK    9  A    between atoms: C_8  and  O_10
REMARK   10  A    between atoms: C_15  and  C_30
REMARK   11  A    between atoms: C_23  and  C_29
REMARK                            x       y       z     vdW  Elec       q    Type
REMARK                         _______ _______ _______ _____ _____    ______ ____
ROOT
ATOM      1  C   UNL     1       1.245   0.297   1.824  0.00  0.00    -0.002 C 
ATOM      2  C   UNL     1       0.419  -0.048   3.163  0.00  0.00    +0.005 C 
ATOM      3  C   UNL     1      -1.052   0.187   2.909  0.00  0.00    +0.009 C 
ATOM      4  C   UNL     1      -0.992   0.934   1.602  0.00  0.00    +0.021 C 
ATOM      5  C   UNL     1       0.410   1.666   1.558  0.00  0.00    -0.022 C 
ATOM      6  C   UNL     1       0.414   2.601   0.308  0.00  0.00    +0.008 C 
ATOM      7  C   UNL     1      -0.574   2.396  -0.830  0.00  0.00    +0.009 C 
ATOM      8  C   UNL     1      -2.024   1.997  -0.483  0.00  0.00    +0.021 C 
ATOM      9  C   UNL     1      -2.222   1.349   0.876  0.00  0.00    -0.066 C 
ATOM     10  C   UNL     1      -3.415   0.807   1.178  0.00  0.00    -0.027 C 
ATOM     11  C   UNL     1      -4.664   1.019   0.386  0.00  0.00    +0.031 C 
ATOM     12  C   UNL     1      -4.462   1.860  -0.879  0.00  0.00    +0.006 C 
ATOM     13  C   UNL     1      -3.268   2.896  -0.829  0.00  0.00    -0.022 C 
ATOM     14  C   UNL     1      -3.178   3.629  -2.206  0.00  0.00    +0.015 C 
ATOM     15  C   UNL     1      -4.128   3.094  -3.272  0.00  0.00    +0.075 C 
ATOM     16  C   UNL     1      -5.555   3.037  -2.732  0.00  0.00    +0.134 C 
ATOM     17  O   UNL     1      -6.498   3.394  -3.435  0.00  0.00    -0.297 OA
ATOM     18  C   UNL     1      -5.763   2.488  -1.353  0.00  0.00    +0.078 C 
ATOM     19  C   UNL     1      -3.513   3.991   0.246  0.00  0.00    +0.012 C 
ATOM     20  C   UNL     1       1.157   2.613   2.561  0.00  0.00    +0.012 C 
ENDROOT
BRANCH   1  22
ATOM     21  C   UNL     1       2.322  -2.057   2.279  0.00  0.00    +0.008 C 
ATOM     22  C   UNL     1       1.587  -1.173   1.261  0.00  0.00    -0.010 C 
BRANCH  22  23
ATOM     23  C   UNL     1       2.435  -0.984  -0.012  0.00  0.00    +0.003 C 
BRANCH  23  24
ATOM     24  C   UNL     1       2.900  -2.218  -0.763  0.00  0.00    +0.001 C 
BRANCH  24  25
ATOM     25  C   UNL     1       3.672  -1.814  -2.032  0.00  0.00    +0.014 C 
BRANCH  25  26
ATOM     26  C   UNL     1       4.933  -0.935  -1.832  0.00  0.00    +0.095 C 
ATOM     27  C   UNL     1       5.944  -1.625  -0.917  0.00  0.00    +0.019 C 
BRANCH  26  28
ATOM     28  C   UNL     1       4.687   0.517  -1.369  0.00  0.00    +0.308 C 
ATOM     29  O   UNL     1       5.274   1.051  -0.438  0.00  0.00    -0.251 OA
BRANCH  28  30
ATOM     30  O   UNL     1       3.799   1.171  -2.121  0.00  0.00    -0.480 OA
ATOM     31  H   UNL     1       3.407   0.675  -2.865  0.00  0.00    +0.295 HD
ENDBRANCH  28  30
ENDBRANCH  26  28
ENDBRANCH  25  26
ENDBRANCH  24  25
ENDBRANCH  23  24
ENDBRANCH  22  23
ENDBRANCH   1  22
TORSDOF 7
