REMARK  Name = 
REMARK  16 active torsions:
REMARK  status: ('A' for Active; 'I' for Inactive)
REMARK    1  A    between atoms: C_1  and  C_2
REMARK    2  A    between atoms: C_2  and  C_18
REMARK    3  A    between atoms: C_3  and  C_4
REMARK    4  A    between atoms: C_4  and  C_5
REMARK    5  A    between atoms: C_5  and  C_6
REMARK    6  A    between atoms: C_6  and  C_17
REMARK    7  A    between atoms: C_7  and  C_8
REMARK    8  A    between atoms: C_8  and  C_9
REMARK    9  A    between atoms: C_18  and  C_19
REMARK   10  A    between atoms: C_19  and  C_20
REMARK   11  A    between atoms: C_21  and  C_22
REMARK   12  A    between atoms: C_21  and  C_28
REMARK   13  A    between atoms: C_22  and  C_23
REMARK   14  A    between atoms: C_23  and  C_24
REMARK   15  A    between atoms: C_25  and  C_26
REMARK   16  A    between atoms: C_25  and  C_27
REMARK                            x       y       z     vdW  Elec       q    Type
REMARK                         _______ _______ _______ _____ _____    ______ ____
ROOT
ATOM      1  C   UNL     1      -1.468  -2.231  -0.472  0.00  0.00    -0.031 C 
ENDROOT
BRANCH   1   4
ATOM      2  C   UNL     1       0.994  -2.199  -2.119  0.00  0.00    -0.044 C 
ATOM      3  C   UNL     1       0.412  -0.935  -1.532  0.00  0.00    -0.076 C 
ATOM      4  C   UNL     1      -0.717  -0.959  -0.788  0.00  0.00    -0.085 C 
BRANCH   3   5
ATOM      5  C   UNL     1       1.100   0.391  -1.793  0.00  0.00    -0.029 C 
BRANCH   5   6
ATOM      6  C   UNL     1       1.769   0.954  -0.530  0.00  0.00    -0.031 C 
BRANCH   6   7
ATOM      7  C   UNL     1       2.801   0.004   0.030  0.00  0.00    -0.085 C 
ATOM      8  C   UNL     1       4.094  -0.045  -0.364  0.00  0.00    -0.076 C 
ATOM      9  C   UNL     1       4.654   0.912  -1.389  0.00  0.00    -0.044 C 
BRANCH   8  10
ATOM     10  C   UNL     1       5.011  -1.082   0.254  0.00  0.00    -0.029 C 
BRANCH  10  11
ATOM     11  C   UNL     1       5.389  -0.726   1.700  0.00  0.00    -0.031 C 
BRANCH  11  12
ATOM     12  C   UNL     1       6.124   0.591   1.783  0.00  0.00    -0.085 C 
ATOM     13  C   UNL     1       7.457   0.738   1.620  0.00  0.00    -0.080 C 
ATOM     14  C   UNL     1       8.041   2.124   1.699  0.00  0.00    -0.044 C 
ATOM     15  C   UNL     1       8.371  -0.442   1.385  0.00  0.00    -0.044 C 
ENDBRANCH  11  12
ENDBRANCH  10  11
ENDBRANCH   8  10
ENDBRANCH   6   7
ENDBRANCH   5   6
ENDBRANCH   3   5
ENDBRANCH   1   4
BRANCH   1  16
ATOM     16  C   UNL     1      -2.696  -1.976   0.414  0.00  0.00    -0.029 C 
BRANCH  16  17
ATOM     17  C   UNL     1      -3.761  -1.176  -0.308  0.00  0.00    -0.076 C 
ATOM     18  C   UNL     1      -3.913   0.138  -0.022  0.00  0.00    -0.083 C 
ATOM     19  C   UNL     1      -4.592  -1.867  -1.360  0.00  0.00    -0.044 C 
BRANCH  18  20
ATOM     20  C   UNL     1      -4.944   1.046  -0.652  0.00  0.00    -0.009 C 
BRANCH  20  21
ATOM     21  C   UNL     1      -6.120   1.319   0.298  0.00  0.00    +0.057 C 
ATOM     22  C   UNL     1      -7.213   2.194  -0.278  0.00  0.00    -0.064 C 
ATOM     23  C   UNL     1      -8.295   1.988   0.490  0.00  0.00    -0.074 C 
ATOM     24  C   UNL     1      -7.919   0.968   1.539  0.00  0.00    +0.056 C 
ATOM     25  C   UNL     1      -6.973   0.113   0.705  0.00  0.00    -0.013 C 
ATOM     26  C   UNL     1      -6.891   1.637   2.395  0.00  0.00    +0.221 C 
ATOM     27  O   UNL     1      -6.999   1.932   3.614  0.00  0.00    -0.275 OA
ATOM     28  N   UNL     1      -5.739   1.896   1.597  0.00  0.00    -0.306 N 
ATOM     29  H   UNL     1      -4.901   2.347   1.850  0.00  0.00    +0.000 HD
ENDBRANCH  20  21
ENDBRANCH  18  20
ENDBRANCH  16  17
ENDBRANCH   1  16
TORSDOF 11
