REMARK  Name = 
REMARK  5 active torsions:
REMARK  status: ('A' for Active; 'I' for Inactive)
REMARK    1  A    between atoms: C_1  and  C_2
REMARK    2  A    between atoms: C_5  and  C_12
REMARK    3  A    between atoms: C_12  and  O_13
REMARK    4  A    between atoms: C_12  and  C_14
REMARK    5  A    between atoms: C_12  and  C_15
REMARK                            x       y       z     vdW  Elec       q    Type
REMARK                         _______ _______ _______ _____ _____    ______ ____
ROOT
ATOM      1  C   UNL     1       1.992   2.570   0.074  0.00  0.00    -0.043 C 
ATOM      2  C   UNL     1       2.169   1.094  -0.122  0.00  0.00    -0.069 C 
ATOM      3  C   UNL     1       1.176   0.228  -0.272  0.00  0.00    -0.045 C 
ATOM      4  C   UNL     1      -0.237   0.619  -0.447  0.00  0.00    -0.056 C 
ATOM      5  C   UNL     1      -1.270  -0.039   0.121  0.00  0.00    -0.039 C 
ATOM      6  C   UNL     1      -1.000  -1.045   1.230  0.00  0.00    -0.029 C 
ATOM      7  C   UNL     1      -0.282  -2.302   0.722  0.00  0.00    -0.049 C 
ATOM      8  C   UNL     1       1.240  -2.114   0.652  0.00  0.00    -0.046 C 
ATOM      9  C   UNL     1       1.670  -1.167  -0.481  0.00  0.00    -0.016 C 
ATOM     10  C   UNL     1       3.202  -1.011  -0.537  0.00  0.00    -0.043 C 
ATOM     11  C   UNL     1       3.498   0.432  -0.127  0.00  0.00    -0.031 C 
ENDROOT
BRANCH   5  12
ATOM     12  C   UNL     1      -2.714   0.357  -0.235  0.00  0.00    +0.082 C 
ATOM     13  C   UNL     1      -3.032   1.726   0.386  0.00  0.00    -0.032 C 
ATOM     14  C   UNL     1      -2.922   0.424  -1.766  0.00  0.00    -0.032 C 
BRANCH  12  15
ATOM     15  O   UNL     1      -3.636  -0.569   0.293  0.00  0.00    -0.385 OA
ATOM     16  H   UNL     1      -3.523  -0.626   1.254  0.00  0.00    +0.000 HD
ENDBRANCH  12  15
ENDBRANCH   5  12
TORSDOF 2
