REMARK  Name = 
REMARK  2 active torsions:
REMARK  status: ('A' for Active; 'I' for Inactive)
REMARK    1  A    between atoms: C_1  and  O_2
REMARK    2  A    between atoms: O_2  and  C_3
REMARK                            x       y       z     vdW  Elec       q    Type
REMARK                         _______ _______ _______ _____ _____    ______ ____
ROOT
ATOM      1  C   UNL     1      -1.854  -1.357  -0.153  0.00  0.00    +0.128 A 
ATOM      2  C   UNL     1      -2.146  -2.723   0.038  0.00  0.00    -0.019 A 
ATOM      3  C   UNL     1      -1.133  -3.651   0.249  0.00  0.00    -0.058 A 
ATOM      4  C   UNL     1       0.197  -3.253   0.236  0.00  0.00    -0.053 A 
ATOM      5  C   UNL     1       0.527  -1.899   0.083  0.00  0.00    -0.001 A 
ATOM      6  C   UNL     1      -0.513  -0.897  -0.010  0.00  0.00    +0.036 A 
ATOM      7  C   UNL     1      -0.132   0.506  -0.026  0.00  0.00    +0.041 A 
ATOM      8  C   UNL     1      -0.982   1.625   0.154  0.00  0.00    +0.175 A 
ATOM      9  O   UNL     1      -2.323   1.675   0.493  0.00  0.00    -0.452 OA
ATOM     10  C   UNL     1      -2.735   3.042   0.590  0.00  0.00    +0.233 C 
ATOM     11  O   UNL     1      -1.552   3.800   0.329  0.00  0.00    -0.453 OA
ATOM     12  C   UNL     1      -0.518   2.915   0.090  0.00  0.00    +0.167 A 
ATOM     13  C   UNL     1       0.824   3.230  -0.118  0.00  0.00    -0.008 A 
ATOM     14  C   UNL     1       1.740   2.170  -0.209  0.00  0.00    -0.010 A 
ATOM     15  C   UNL     1       1.245   0.837  -0.149  0.00  0.00    +0.018 A 
ATOM     16  C   UNL     1       2.166  -0.171  -0.155  0.00  0.00    +0.069 A 
ATOM     17  C   UNL     1       1.868  -1.485  -0.007  0.00  0.00    +0.059 A 
ATOM     18  C   UNL     1       3.110  -2.132   0.005  0.00  0.00    +0.253 A 
ATOM     19  O   UNL     1       3.312  -3.369   0.116  0.00  0.00    -0.281 OA
ATOM     20  C   UNL     1       4.105  -1.157  -0.125  0.00  0.00    +0.303 A 
ATOM     21  O   UNL     1       5.346  -1.372  -0.140  0.00  0.00    -0.263 OA
ATOM     22  N   UNL     1       3.546   0.065  -0.221  0.00  0.00    -0.280 N 
ATOM     23  C   UNL     1       4.051   1.322  -0.308  0.00  0.00    +0.014 A 
ATOM     24  C   UNL     1       3.141   2.404  -0.308  0.00  0.00    -0.037 A 
ENDROOT
BRANCH   1  26
ATOM     25  C   UNL     1      -4.231  -0.825  -0.765  0.00  0.00    +0.079 C 
ATOM     26  O   UNL     1      -2.864  -0.477  -0.567  0.00  0.00    -0.494 OA
ENDBRANCH   1  26
TORSDOF 1
