REMARK  Name = 
REMARK  21 active torsions:
REMARK  status: ('A' for Active; 'I' for Inactive)
REMARK    1  A    between atoms: C_2  and  C_3
REMARK    2  A    between atoms: C_3  and  O_4
REMARK    3  A    between atoms: C_3  and  C_8
REMARK    4  A    between atoms: O_4  and  C_5
REMARK    5  A    between atoms: C_5  and  C_7
REMARK    6  A    between atoms: C_9  and  C_10
REMARK    7  A    between atoms: C_11  and  C_12
REMARK    8  A    between atoms: C_12  and  C_13
REMARK    9  A    between atoms: C_12  and  O_27
REMARK   10  A    between atoms: C_13  and  C_14
REMARK   11  A    between atoms: C_14  and  C_15
REMARK   12  A    between atoms: C_15  and  C_16
REMARK   13  A    between atoms: C_16  and  C_17
REMARK   14  A    between atoms: C_17  and  C_18
REMARK   15  A    between atoms: C_18  and  C_19
REMARK   16  A    between atoms: C_19  and  C_20
REMARK   17  A    between atoms: C_20  and  C_21
REMARK   18  A    between atoms: C_21  and  C_22
REMARK   19  A    between atoms: C_22  and  O_23
REMARK   20  A    between atoms: O_23  and  C_24
REMARK   21  A    between atoms: C_24  and  C_26
REMARK                            x       y       z     vdW  Elec       q    Type
REMARK                         _______ _______ _______ _____ _____    ______ ____
ROOT
ATOM      1  C   UNL     1       2.756  -1.813  -0.803  0.00  0.00    +0.116 C 
ENDROOT
BRANCH   1   2
ATOM      2  O   UNL     1       2.994  -2.801  -1.774  0.00  0.00    -0.379 OA
ATOM      3  H   UNL     1       3.619  -3.455  -1.424  0.00  0.00    +0.000 HD
ENDBRANCH   1   2
BRANCH   1   5
ATOM      4  C   UNL     1       5.042  -0.560  -0.192  0.00  0.00    -0.012 C 
ATOM      5  C   UNL     1       4.013  -1.125  -0.467  0.00  0.00    -0.057 C 
BRANCH   4   7
ATOM      6  C   UNL     1       7.274   0.672   0.401  0.00  0.00    -0.040 C 
ATOM      7  C   UNL     1       6.246   0.103   0.129  0.00  0.00    -0.011 C 
BRANCH   6   8
ATOM      8  C   UNL     1       8.523   1.369   0.730  0.00  0.00    +0.182 C 
BRANCH   8  10
ATOM      9  C   UNL     1      10.666   0.396  -0.069  0.00  0.00    -0.098 C 
ATOM     10  C   UNL     1       9.544   1.073  -0.332  0.00  0.00    -0.039 C 
ENDBRANCH   8  10
BRANCH   8  11
ATOM     11  O   UNL     1       8.296   2.776   0.770  0.00  0.00    -0.444 OA
BRANCH  11  12
ATOM     12  C   UNL     1       7.601   3.416   1.804  0.00  0.00    +0.305 C 
ATOM     13  O   UNL     1       7.146   2.759   2.779  0.00  0.00    -0.251 OA
ATOM     14  C   UNL     1       7.367   4.886   1.731  0.00  0.00    +0.033 C 
ENDBRANCH  11  12
ENDBRANCH   8  11
ENDBRANCH   6   8
ENDBRANCH   4   7
ENDBRANCH   1   5
BRANCH   1  15
ATOM     15  C   UNL     1       2.117  -2.410   0.468  0.00  0.00    -0.016 C 
BRANCH  15  16
ATOM     16  C   UNL     1       0.802  -3.161   0.196  0.00  0.00    -0.050 C 
BRANCH  16  17
ATOM     17  C   UNL     1      -0.343  -2.222  -0.214  0.00  0.00    -0.053 C 
BRANCH  17  18
ATOM     18  C   UNL     1      -1.675  -2.983  -0.290  0.00  0.00    -0.053 C 
BRANCH  18  19
ATOM     19  C   UNL     1      -2.829  -2.118  -0.822  0.00  0.00    -0.053 C 
BRANCH  19  20
ATOM     20  C   UNL     1      -3.264  -1.033   0.178  0.00  0.00    -0.053 C 
BRANCH  20  21
ATOM     21  C   UNL     1      -4.483  -0.234  -0.312  0.00  0.00    -0.053 C 
BRANCH  21  22
ATOM     22  C   UNL     1      -5.804  -1.002  -0.126  0.00  0.00    -0.050 C 
BRANCH  22  23
ATOM     23  C   UNL     1      -7.024  -0.192  -0.594  0.00  0.00    -0.019 C 
BRANCH  23  24
ATOM     24  C   UNL     1      -7.390   0.941   0.374  0.00  0.00    +0.092 C 
BRANCH  24  25
ATOM     25  O   UNL     1      -8.619   1.552  -0.016  0.00  0.00    -0.465 OA
BRANCH  25  26
ATOM     26  C   UNL     1      -8.732   2.432  -1.098  0.00  0.00    +0.304 C 
ATOM     27  O   UNL     1      -7.715   2.775  -1.761  0.00  0.00    -0.251 OA
ATOM     28  C   UNL     1     -10.062   3.019  -1.428  0.00  0.00    +0.033 C 
ENDBRANCH  25  26
ENDBRANCH  24  25
ENDBRANCH  23  24
ENDBRANCH  22  23
ENDBRANCH  21  22
ENDBRANCH  20  21
ENDBRANCH  19  20
ENDBRANCH  18  19
ENDBRANCH  17  18
ENDBRANCH  16  17
ENDBRANCH  15  16
ENDBRANCH   1  15
TORSDOF 19
