REMARK  Name = 
REMARK  15 active torsions:
REMARK  status: ('A' for Active; 'I' for Inactive)
REMARK    1  A    between atoms: O_1  and  C_2
REMARK    2  A    between atoms: C_2  and  C_3
REMARK    3  A    between atoms: C_3  and  C_4
REMARK    4  A    between atoms: C_3  and  O_22
REMARK    5  A    between atoms: C_5  and  C_6
REMARK    6  A    between atoms: C_7  and  C_8
REMARK    7  A    between atoms: C_9  and  C_10
REMARK    8  A    between atoms: C_11  and  C_12
REMARK    9  A    between atoms: C_12  and  C_13
REMARK   10  A    between atoms: C_13  and  C_14
REMARK   11  A    between atoms: C_14  and  C_15
REMARK   12  A    between atoms: C_15  and  C_16
REMARK   13  A    between atoms: C_16  and  C_17
REMARK   14  A    between atoms: C_17  and  C_18
REMARK   15  A    between atoms: C_18  and  C_19
REMARK                            x       y       z     vdW  Elec       q    Type
REMARK                         _______ _______ _______ _____ _____    ______ ____
ROOT
ATOM      1  C   UNL     1      -3.469  -0.908   0.011  0.00  0.00    -0.000 C 
ATOM      2  C   UNL     1      -2.300  -0.620  -0.041  0.00  0.00    -0.001 C 
ENDROOT
BRANCH   1   4
ATOM      3  C   UNL     1      -6.008  -1.533   0.122  0.00  0.00    -0.001 C 
ATOM      4  C   UNL     1      -4.839  -1.245   0.070  0.00  0.00    -0.000 C 
BRANCH   3   6
ATOM      5  C   UNL     1      -8.547  -2.158   0.232  0.00  0.00    -0.055 C 
ATOM      6  C   UNL     1      -7.377  -1.870   0.181  0.00  0.00    -0.011 C 
BRANCH   5   7
ATOM      7  C   UNL     1      -9.972  -2.509   0.293  0.00  0.00    +0.139 C 
BRANCH   7   8
ATOM      8  O   UNL     1     -10.621  -1.630   1.172  0.00  0.00    -0.377 OA
ATOM      9  H   UNL     1     -10.525  -0.721   0.849  0.00  0.00    +0.000 HD
ENDBRANCH   7   8
BRANCH   7  10
ATOM     10  C   UNL     1     -10.602  -2.433  -1.102  0.00  0.00    +0.081 C 
BRANCH  10  11
ATOM     11  O   UNL     1     -10.554  -1.118  -1.588  0.00  0.00    -0.391 OA
ATOM     12  H   UNL     1     -10.956  -1.085  -2.470  0.00  0.00    +0.000 HD
ENDBRANCH  10  11
ENDBRANCH   7  10
ENDBRANCH   5   7
ENDBRANCH   3   6
ENDBRANCH   1   4
BRANCH   2  13
ATOM     13  C   UNL     1      -0.931  -0.282  -0.101  0.00  0.00    -0.014 C 
ATOM     14  C   UNL     1       0.238   0.007  -0.151  0.00  0.00    -0.088 C 
BRANCH  14  15
ATOM     15  C   UNL     1       1.661   0.358  -0.213  0.00  0.00    +0.010 C 
BRANCH  15  16
ATOM     16  C   UNL     1       2.020   1.328   0.918  0.00  0.00    -0.042 C 
BRANCH  16  17
ATOM     17  C   UNL     1       3.469   1.837   0.823  0.00  0.00    -0.052 C 
BRANCH  17  18
ATOM     18  C   UNL     1       4.525   0.738   1.081  0.00  0.00    -0.053 C 
BRANCH  18  19
ATOM     19  C   UNL     1       5.196   0.229  -0.210  0.00  0.00    -0.053 C 
BRANCH  19  20
ATOM     20  C   UNL     1       6.254   1.194  -0.775  0.00  0.00    -0.043 C 
BRANCH  20  21
ATOM     21  C   UNL     1       7.582   1.126  -0.009  0.00  0.00    +0.045 C 
BRANCH  21  22
ATOM     22  C   UNL     1       8.599   2.018  -0.648  0.00  0.00    +0.305 C 
ATOM     23  O   UNL     1       8.691   3.224  -0.296  0.00  0.00    -0.251 OA
ATOM     24  O   UNL     1       9.413   1.525  -1.663  0.00  0.00    -0.481 OA
ENDBRANCH  21  22
ENDBRANCH  20  21
ENDBRANCH  19  20
ENDBRANCH  18  19
ENDBRANCH  17  18
ENDBRANCH  16  17
ENDBRANCH  15  16
ENDBRANCH  14  15
ENDBRANCH   2  13
TORSDOF 15
