REMARK  Name = 
REMARK  14 active torsions:
REMARK  status: ('A' for Active; 'I' for Inactive)
REMARK    1  A    between atoms: O_1  and  C_2
REMARK    2  A    between atoms: C_2  and  C_3
REMARK    3  A    between atoms: C_3  and  C_4
REMARK    4  A    between atoms: C_5  and  C_6
REMARK    5  A    between atoms: C_7  and  C_8
REMARK    6  A    between atoms: C_9  and  C_10
REMARK    7  A    between atoms: C_11  and  C_12
REMARK    8  A    between atoms: C_12  and  C_13
REMARK    9  A    between atoms: C_13  and  C_14
REMARK   10  A    between atoms: C_14  and  C_15
REMARK   11  A    between atoms: C_15  and  C_16
REMARK   12  A    between atoms: C_16  and  C_17
REMARK   13  A    between atoms: C_17  and  C_18
REMARK   14  A    between atoms: C_18  and  C_19
REMARK                            x       y       z     vdW  Elec       q    Type
REMARK                         _______ _______ _______ _____ _____    ______ ____
ROOT
ATOM      1  C   UNL     1       0.834  -1.514  -0.971  0.00  0.00    -0.014 C 
ATOM      2  C   UNL     1      -0.325  -1.845  -1.000  0.00  0.00    -0.088 C 
ENDROOT
BRANCH   1   4
ATOM      3  C   UNL     1       3.348  -0.792  -0.906  0.00  0.00    -0.000 C 
ATOM      4  C   UNL     1       2.190  -1.125  -0.936  0.00  0.00    -0.001 C 
BRANCH   3   6
ATOM      5  C   UNL     1       5.863  -0.070  -0.841  0.00  0.00    -0.001 C 
ATOM      6  C   UNL     1       4.705  -0.403  -0.871  0.00  0.00    -0.000 C 
BRANCH   5   8
ATOM      7  C   UNL     1       8.377   0.652  -0.777  0.00  0.00    -0.086 C 
ATOM      8  C   UNL     1       7.219   0.319  -0.806  0.00  0.00    -0.014 C 
BRANCH   7   9
ATOM      9  C   UNL     1       9.788   1.056  -0.742  0.00  0.00    +0.033 C 
BRANCH   9  10
ATOM     10  C   UNL     1      10.178   1.797  -2.023  0.00  0.00    +0.055 C 
BRANCH  10  11
ATOM     11  O   UNL     1      10.043   0.963  -3.143  0.00  0.00    -0.394 OA
ATOM     12  H   UNL     1      10.295   1.453  -3.942  0.00  0.00    +0.000 HD
ENDBRANCH  10  11
ENDBRANCH   9  10
ENDBRANCH   7   9
ENDBRANCH   5   8
ENDBRANCH   3   6
ENDBRANCH   1   4
BRANCH   2  13
ATOM     13  C   UNL     1      -1.735  -2.248  -1.035  0.00  0.00    +0.010 C 
BRANCH  13  14
ATOM     14  C   UNL     1      -2.485  -1.674   0.170  0.00  0.00    -0.042 C 
BRANCH  14  15
ATOM     15  C   UNL     1      -3.967  -2.074   0.135  0.00  0.00    -0.052 C 
BRANCH  15  16
ATOM     16  C   UNL     1      -4.726  -1.683   1.417  0.00  0.00    -0.053 C 
BRANCH  16  17
ATOM     17  C   UNL     1      -4.763  -0.174   1.718  0.00  0.00    -0.053 C 
BRANCH  17  18
ATOM     18  C   UNL     1      -5.480   0.638   0.625  0.00  0.00    -0.043 C 
BRANCH  18  19
ATOM     19  C   UNL     1      -5.627   2.117   1.006  0.00  0.00    +0.045 C 
BRANCH  19  20
ATOM     20  C   UNL     1      -6.611   2.312   2.118  0.00  0.00    +0.305 C 
ATOM     21  O   UNL     1      -7.848   2.252   1.885  0.00  0.00    -0.251 OA
ATOM     22  O   UNL     1      -6.157   2.530   3.415  0.00  0.00    -0.481 OA
ENDBRANCH  19  20
ENDBRANCH  18  19
ENDBRANCH  17  18
ENDBRANCH  16  17
ENDBRANCH  15  16
ENDBRANCH  14  15
ENDBRANCH  13  14
ENDBRANCH   2  13
TORSDOF 14
