REMARK  Name = 
REMARK  10 active torsions:
REMARK  status: ('A' for Active; 'I' for Inactive)
REMARK    1  A    between atoms: C_1  and  O_2
REMARK    2  A    between atoms: O_2  and  C_3
REMARK    3  A    between atoms: C_4  and  C_16
REMARK    4  A    between atoms: C_10  and  C_11
REMARK    5  A    between atoms: C_13  and  C_15
REMARK    6  A    between atoms: C_17  and  C_18
REMARK    7  A    between atoms: C_20  and  O_29
REMARK    8  A    between atoms: C_26  and  O_27
REMARK    9  A    between atoms: O_27  and  C_28
REMARK   10  A    between atoms: O_29  and  C_30
REMARK                            x       y       z     vdW  Elec       q    Type
REMARK                         _______ _______ _______ _____ _____    ______ ____
ROOT
ATOM      1  C   UNL     1       1.300   0.343   0.288  0.00  0.00    +0.140 C 
ATOM      2  C   UNL     1       0.557   0.037  -0.796  0.00  0.00    +0.072 C 
ATOM      3  C   UNL     1       1.121   0.204  -2.151  0.00  0.00    +0.190 C 
ATOM      4  O   UNL     1       0.411  -0.006  -3.171  0.00  0.00    -0.287 OA
ATOM      5  C   UNL     1       2.517   0.617  -2.316  0.00  0.00    -0.010 C 
ATOM      6  C   UNL     1       3.272   0.928  -1.255  0.00  0.00    -0.030 C 
ATOM      7  C   UNL     1       2.682   0.911   0.123  0.00  0.00    +0.037 C 
ATOM      8  C   UNL     1       3.412   1.433   1.147  0.00  0.00    +0.012 C 
ATOM      9  C   UNL     1       2.846   1.673   2.522  0.00  0.00    -0.026 C 
ATOM     10  N   UNL     1       4.787   1.796   0.927  0.00  0.00    -0.344 N 
ATOM     11  C   UNL     1       5.532   1.312  -0.232  0.00  0.00    +0.022 C 
ATOM     12  C   UNL     1       4.668   1.453  -1.488  0.00  0.00    -0.009 C 
ATOM     13  C   UNL     1       5.974  -0.138  -0.003  0.00  0.00    -0.046 C 
ATOM     14  H   UNL     1       5.237   2.386   1.575  0.00  0.00    +0.000 HD
ENDROOT
BRANCH   2  15
ATOM     15  C   UNL     1      -0.832  -0.481  -0.649  0.00  0.00    +0.000 A 
ATOM     16  C   UNL     1      -1.089  -1.849  -0.881  0.00  0.00    -0.038 A 
ATOM     17  C   UNL     1       0.008  -2.801  -1.297  0.00  0.00    -0.039 C 
ATOM     18  C   UNL     1      -2.390  -2.341  -0.754  0.00  0.00    -0.016 A 
ATOM     19  C   UNL     1      -3.455  -1.512  -0.369  0.00  0.00    +0.132 A 
ATOM     20  C   UNL     1      -3.218  -0.136  -0.122  0.00  0.00    +0.066 A 
ATOM     21  C   UNL     1      -1.897   0.382  -0.277  0.00  0.00    -0.003 A 
ATOM     22  C   UNL     1      -1.671   1.759  -0.067  0.00  0.00    -0.053 A 
ATOM     23  C   UNL     1      -2.707   2.604   0.309  0.00  0.00    -0.058 A 
ATOM     24  C   UNL     1      -3.991   2.105   0.480  0.00  0.00    -0.019 A 
ATOM     25  C   UNL     1      -4.269   0.742   0.268  0.00  0.00    +0.131 A 
BRANCH  25  26
ATOM     26  O   UNL     1      -5.574   0.246   0.439  0.00  0.00    -0.494 OA
ATOM     27  C   UNL     1      -6.702   1.024   0.825  0.00  0.00    +0.079 C 
ENDBRANCH  25  26
BRANCH  19  28
ATOM     28  O   UNL     1      -4.754  -2.035  -0.232  0.00  0.00    -0.494 OA
ATOM     29  C   UNL     1      -5.120  -3.394  -0.449  0.00  0.00    +0.079 C 
ENDBRANCH  19  28
ENDBRANCH   2  15
BRANCH   1  31
ATOM     30  C   UNL     1       0.829  -1.173   2.176  0.00  0.00    +0.079 C 
ATOM     31  O   UNL     1       0.774   0.111   1.564  0.00  0.00    -0.494 OA
ENDBRANCH   1  31
TORSDOF 4
