REMARK  Name = 
REMARK  10 active torsions:
REMARK  status: ('A' for Active; 'I' for Inactive)
REMARK    1  A    between atoms: C_2  and  C_3
REMARK    2  A    between atoms: C_2  and  O_9
REMARK    3  A    between atoms: O_9  and  C_10
REMARK    4  A    between atoms: C_10  and  C_11
REMARK    5  A    between atoms: C_11  and  O_12
REMARK    6  A    between atoms: C_15  and  O_28
REMARK    7  A    between atoms: C_16  and  O_19
REMARK    8  A    between atoms: C_17  and  O_18
REMARK    9  A    between atoms: O_19  and  C_20
REMARK   10  A    between atoms: C_20  and  C_22
REMARK                            x       y       z     vdW  Elec       q    Type
REMARK                         _______ _______ _______ _____ _____    ______ ____
ROOT
ATOM      1  C   UNL     1       0.756   2.445  -0.404  0.00  0.00    +0.147 C 
ATOM      2  C   UNL     1       1.290   2.098  -1.787  0.00  0.00    -0.048 C 
ATOM      3  C   UNL     1       0.675   1.243  -2.620  0.00  0.00    -0.053 C 
ATOM      4  C   UNL     1      -0.500   0.394  -2.195  0.00  0.00    +0.113 C 
ATOM      5  C   UNL     1      -1.244   0.983  -0.981  0.00  0.00    +0.161 C 
ATOM      6  C   UNL     1      -0.221   1.351   0.114  0.00  0.00    +0.130 C 
ENDROOT
BRANCH   1   7
ATOM      7  O   UNL     1       0.049   3.662  -0.491  0.00  0.00    -0.378 OA
ATOM      8  H   UNL     1       0.642   4.358  -0.813  0.00  0.00    +0.000 HD
ENDBRANCH   1   7
BRANCH   6   9
ATOM      9  O   UNL     1      -0.884   1.824   1.260  0.00  0.00    -0.385 OA
ATOM     10  H   UNL     1      -1.389   2.621   1.036  0.00  0.00    +0.000 HD
ENDBRANCH   6   9
BRANCH   4  11
ATOM     11  O   UNL     1      -1.383   0.204  -3.272  0.00  0.00    -0.384 OA
ATOM     12  H   UNL     1      -1.740   1.062  -3.552  0.00  0.00    +0.000 HD
ENDBRANCH   4  11
BRANCH   1  13
ATOM     13  C   UNL     1       1.933   2.616   0.592  0.00  0.00    +0.128 C 
BRANCH  13  14
ATOM     14  O   UNL     1       2.606   1.378   0.832  0.00  0.00    -0.458 OA
BRANCH  14  16
ATOM     15  O   UNL     1       4.221   1.642  -0.797  0.00  0.00    -0.245 OA
ATOM     16  C   UNL     1       3.663   0.894   0.052  0.00  0.00    +0.339 C 
BRANCH  16  17
ATOM     17  C   UNL     1       4.129  -0.497   0.235  0.00  0.00    +0.059 A 
ATOM     18  C   UNL     1       5.221  -0.993  -0.503  0.00  0.00    -0.048 A 
ATOM     19  C   UNL     1       5.650  -2.313  -0.330  0.00  0.00    -0.061 A 
ATOM     20  C   UNL     1       4.997  -3.149   0.578  0.00  0.00    -0.062 A 
ATOM     21  C   UNL     1       3.911  -2.668   1.314  0.00  0.00    -0.061 A 
ATOM     22  C   UNL     1       3.478  -1.350   1.145  0.00  0.00    -0.048 A 
ENDBRANCH  16  17
ENDBRANCH  14  16
ENDBRANCH  13  14
ENDBRANCH   1  13
BRANCH   5  23
ATOM     23  O   UNL     1      -2.167   0.005  -0.496  0.00  0.00    -0.452 OA
BRANCH  23  24
ATOM     24  C   UNL     1      -3.346   0.315   0.194  0.00  0.00    +0.340 C 
ATOM     25  O   UNL     1      -3.682   1.519   0.367  0.00  0.00    -0.245 OA
BRANCH  24  26
ATOM     26  C   UNL     1      -4.199  -0.776   0.715  0.00  0.00    +0.059 A 
ATOM     27  C   UNL     1      -5.391  -0.489   1.407  0.00  0.00    -0.048 A 
ATOM     28  C   UNL     1      -6.190  -1.526   1.898  0.00  0.00    -0.061 A 
ATOM     29  C   UNL     1      -5.810  -2.856   1.704  0.00  0.00    -0.062 A 
ATOM     30  C   UNL     1      -4.629  -3.152   1.020  0.00  0.00    -0.061 A 
ATOM     31  C   UNL     1      -3.825  -2.119   0.527  0.00  0.00    -0.048 A 
ENDBRANCH  24  26
ENDBRANCH  23  24
ENDBRANCH   5  23
TORSDOF 10
