REMARK  Name = 
REMARK  1 active torsions:
REMARK  status: ('A' for Active; 'I' for Inactive)
REMARK    1  A    between atoms: C_2  and  C_3
REMARK                            x       y       z     vdW  Elec       q    Type
REMARK                         _______ _______ _______ _____ _____    ______ ____
ROOT
ATOM      1  C   UNL     1       1.668  -0.404   0.006  0.00  0.00    +0.015 A 
ATOM      2  C   UNL     1       1.551   1.012  -0.032  0.00  0.00    -0.050 A 
ATOM      3  C   UNL     1       0.286   1.628  -0.045  0.00  0.00    -0.037 A 
ATOM      4  C   UNL     1      -0.838   0.807  -0.019  0.00  0.00    +0.046 A 
ATOM      5  C   UNL     1      -0.733  -0.557   0.017  0.00  0.00    +0.000 A 
ATOM      6  C   UNL     1       0.502  -1.201   0.031  0.00  0.00    -0.042 A 
ATOM      7  C   UNL     1      -2.012  -1.069   0.035  0.00  0.00    -0.037 A 
ATOM      8  C   UNL     1      -2.848   0.042   0.007  0.00  0.00    +0.003 A 
ATOM      9  N   UNL     1      -2.127   1.186  -0.026  0.00  0.00    -0.361 N 
ATOM     10  H   UNL     1      -2.474   2.107  -0.050  0.00  0.00    +0.000 HD
ENDROOT
BRANCH   1  12
ATOM     11  O   UNL     1       4.050  -0.376  -0.001  0.00  0.00    -0.296 OA
ATOM     12  C   UNL     1       2.989  -1.056   0.020  0.00  0.00    +0.150 C 
ENDBRANCH   1  12
TORSDOF 1
