REMARK  Name = 
REMARK  12 active torsions:
REMARK  status: ('A' for Active; 'I' for Inactive)
REMARK    1  A    between atoms: C_1  and  C_2
REMARK    2  A    between atoms: C_2  and  O_4
REMARK    3  A    between atoms: O_4  and  C_5
REMARK    4  A    between atoms: C_8  and  O_23
REMARK    5  A    between atoms: C_9  and  O_22
REMARK    6  A    between atoms: C_10  and  O_11
REMARK    7  A    between atoms: C_10  and  C_12
REMARK    8  A    between atoms: C_12  and  O_13
REMARK    9  A    between atoms: O_13  and  C_14
REMARK   10  A    between atoms: C_14  and  C_16
REMARK   11  A    between atoms: O_23  and  C_24
REMARK   12  A    between atoms: C_24  and  C_26
REMARK                            x       y       z     vdW  Elec       q    Type
REMARK                         _______ _______ _______ _____ _____    ______ ____
ROOT
ATOM      1  C   UNL     1      -1.973   1.355   1.265  0.00  0.00    +0.156 C 
ATOM      2  C   UNL     1      -3.343   1.038   0.718  0.00  0.00    -0.041 C 
ATOM      3  C   UNL     1      -3.595  -0.036  -0.044  0.00  0.00    -0.042 C 
ATOM      4  C   UNL     1      -2.503  -0.917  -0.605  0.00  0.00    +0.150 C 
ATOM      5  C   UNL     1      -1.179  -0.775   0.172  0.00  0.00    +0.131 C 
ATOM      6  C   UNL     1      -0.833   0.727   0.412  0.00  0.00    +0.170 C 
ENDROOT
BRANCH   6   7
ATOM      7  O   UNL     1      -0.762   1.425  -0.813  0.00  0.00    -0.379 OA
ATOM      8  H   UNL     1      -0.056   1.047  -1.360  0.00  0.00    +0.000 HD
ENDBRANCH   6   7
BRANCH   5   9
ATOM      9  O   UNL     1      -0.153  -1.412  -0.548  0.00  0.00    -0.385 OA
ATOM     10  H   UNL     1      -0.060  -0.991  -1.418  0.00  0.00    +0.000 HD
ENDBRANCH   5   9
BRANCH   1  11
ATOM     11  O   UNL     1      -1.835   2.778   1.319  0.00  0.00    -0.454 OA
BRANCH  11  13
ATOM     12  C   UNL     1      -1.191   4.962   2.342  0.00  0.00    +0.033 C 
ATOM     13  C   UNL     1      -1.299   3.477   2.407  0.00  0.00    +0.305 C 
ATOM     14  O   UNL     1      -0.944   2.873   3.455  0.00  0.00    -0.251 OA
ENDBRANCH  11  13
ENDBRANCH   1  11
BRANCH   6  15
ATOM     15  C   UNL     1       0.509   0.875   1.176  0.00  0.00    +0.128 C 
BRANCH  15  16
ATOM     16  O   UNL     1       1.593   0.343   0.419  0.00  0.00    -0.458 OA
BRANCH  16  17
ATOM     17  C   UNL     1       2.913   0.339   0.881  0.00  0.00    +0.339 C 
ATOM     18  O   UNL     1       3.189   0.832   2.009  0.00  0.00    -0.245 OA
BRANCH  17  19
ATOM     19  C   UNL     1       3.982  -0.246   0.042  0.00  0.00    +0.059 A 
ATOM     20  C   UNL     1       3.674  -0.800  -1.214  0.00  0.00    -0.048 A 
ATOM     21  C   UNL     1       4.682  -1.355  -2.009  0.00  0.00    -0.061 A 
ATOM     22  C   UNL     1       6.005  -1.362  -1.560  0.00  0.00    -0.062 A 
ATOM     23  C   UNL     1       6.322  -0.814  -0.315  0.00  0.00    -0.061 A 
ATOM     24  C   UNL     1       5.318  -0.259   0.484  0.00  0.00    -0.048 A 
ENDBRANCH  17  19
ENDBRANCH  16  17
ENDBRANCH  15  16
ENDBRANCH   6  15
BRANCH   4  25
ATOM     25  O   UNL     1      -2.918  -2.284  -0.569  0.00  0.00    -0.455 OA
BRANCH  25  26
ATOM     26  C   UNL     1      -3.865  -2.828  -1.444  0.00  0.00    +0.305 C 
ATOM     27  O   UNL     1      -4.369  -2.131  -2.367  0.00  0.00    -0.251 OA
ATOM     28  C   UNL     1      -4.240  -4.265  -1.317  0.00  0.00    +0.033 C 
ENDBRANCH  25  26
ENDBRANCH   4  25
TORSDOF 10
