REMARK  Name = 
REMARK  18 active torsions:
REMARK  status: ('A' for Active; 'I' for Inactive)
REMARK    1  A    between atoms: C_1  and  C_2
REMARK    2  A    between atoms: C_2  and  C_33
REMARK    3  A    between atoms: C_3  and  C_4
REMARK    4  A    between atoms: C_4  and  C_5
REMARK    5  A    between atoms: C_10  and  C_13
REMARK    6  A    between atoms: C_19  and  O_32
REMARK    7  A    between atoms: C_21  and  C_22
REMARK    8  A    between atoms: C_22  and  C_23
REMARK    9  A    between atoms: C_24  and  C_25
REMARK   10  A    between atoms: C_24  and  C_31
REMARK   11  A    between atoms: C_25  and  C_26
REMARK   12  A    between atoms: C_26  and  C_27
REMARK   13  A    between atoms: C_28  and  C_29
REMARK   14  A    between atoms: C_28  and  C_30
REMARK   15  A    between atoms: C_33  and  C_34
REMARK   16  A    between atoms: C_34  and  C_35
REMARK   17  A    between atoms: C_36  and  C_37
REMARK   18  A    between atoms: C_36  and  C_38
REMARK                            x       y       z     vdW  Elec       q    Type
REMARK                         _______ _______ _______ _____ _____    ______ ____
ROOT
ATOM      1  C   UNL     1       0.659  -0.941  -3.324  0.00  0.00    +0.140 A 
ATOM      2  O   UNL     1       1.487  -0.175  -2.634  0.00  0.00    -0.454 OA
ATOM      3  C   UNL     1       2.713  -0.487  -2.975  0.00  0.00    +0.139 A 
ATOM      4  C   UNL     1       2.705  -1.484  -3.910  0.00  0.00    +0.024 A 
ATOM      5  C   UNL     1       1.389  -1.800  -4.154  0.00  0.00    -0.008 A 
ATOM      6  C   UNL     1       3.880  -2.005  -4.446  0.00  0.00    -0.009 A 
ATOM      7  C   UNL     1       5.104  -1.472  -3.991  0.00  0.00    +0.118 A 
ATOM      8  C   UNL     1       5.114  -0.442  -3.024  0.00  0.00    -0.013 A 
ATOM      9  C   UNL     1       3.905   0.072  -2.503  0.00  0.00    +0.003 A 
ENDROOT
BRANCH   1  15
ATOM     10  C   UNL     1      -2.928   0.308  -2.264  0.00  0.00    +0.007 C 
ATOM     11  C   UNL     1      -3.695  -0.521  -2.991  0.00  0.00    -0.008 C 
ATOM     12  C   UNL     1      -3.086  -1.569  -3.823  0.00  0.00    +0.180 C 
ATOM     13  O   UNL     1      -3.817  -2.363  -4.471  0.00  0.00    -0.288 OA
ATOM     14  C   UNL     1      -1.620  -1.688  -3.900  0.00  0.00    -0.001 C 
ATOM     15  C   UNL     1      -0.822  -0.851  -3.212  0.00  0.00    +0.068 C 
ATOM     16  C   UNL     1      -1.446   0.191  -2.346  0.00  0.00    +0.193 C 
ATOM     17  O   UNL     1      -0.719   0.980  -1.683  0.00  0.00    -0.287 OA
BRANCH  10  18
ATOM     18  C   UNL     1      -3.571   1.383  -1.417  0.00  0.00    -0.005 C 
BRANCH  18  21
ATOM     19  C   UNL     1      -2.889  -0.312   0.969  0.00  0.00    -0.044 C 
ATOM     20  C   UNL     1      -4.311   0.050   0.606  0.00  0.00    -0.076 C 
ATOM     21  C   UNL     1      -4.601   0.821  -0.466  0.00  0.00    -0.081 C 
BRANCH  20  22
ATOM     22  C   UNL     1      -5.441  -0.446   1.478  0.00  0.00    -0.029 C 
BRANCH  22  23
ATOM     23  C   UNL     1      -5.823   0.609   2.521  0.00  0.00    -0.031 C 
BRANCH  23  24
ATOM     24  C   UNL     1      -7.069   0.196   3.265  0.00  0.00    -0.085 C 
ATOM     25  C   UNL     1      -8.328   0.485   2.861  0.00  0.00    -0.080 C 
ATOM     26  C   UNL     1      -8.600   1.325   1.634  0.00  0.00    -0.044 C 
ATOM     27  C   UNL     1      -9.482  -0.035   3.678  0.00  0.00    -0.044 C 
ENDBRANCH  23  24
ENDBRANCH  22  23
ENDBRANCH  20  22
ENDBRANCH  18  21
ENDBRANCH  10  18
ENDBRANCH   1  15
BRANCH   7  28
ATOM     28  O   UNL     1       6.312  -1.958  -4.484  0.00  0.00    -0.507 OA
ATOM     29  H   UNL     1       6.315  -2.641  -5.126  0.00  0.00    +0.000 HD
ENDBRANCH   7  28
BRANCH   9  30
ATOM     30  C   UNL     1       3.911   1.131  -1.436  0.00  0.00    -0.006 C 
BRANCH  30  31
ATOM     31  C   UNL     1       4.256   0.507  -0.107  0.00  0.00    -0.081 C 
ATOM     32  C   UNL     1       3.412   0.383   0.941  0.00  0.00    -0.076 C 
ATOM     33  C   UNL     1       1.994   0.898   0.891  0.00  0.00    -0.044 C 
BRANCH  32  34
ATOM     34  C   UNL     1       3.901  -0.295   2.205  0.00  0.00    -0.029 C 
BRANCH  34  35
ATOM     35  C   UNL     1       4.661   0.671   3.127  0.00  0.00    -0.031 C 
BRANCH  35  36
ATOM     36  C   UNL     1       5.911   1.225   2.485  0.00  0.00    -0.085 C 
ATOM     37  C   UNL     1       7.097   0.580   2.423  0.00  0.00    -0.080 C 
ATOM     38  C   UNL     1       8.235   1.241   1.690  0.00  0.00    -0.044 C 
ATOM     39  C   UNL     1       7.316  -0.764   3.076  0.00  0.00    -0.044 C 
ENDBRANCH  35  36
ENDBRANCH  34  35
ENDBRANCH  32  34
ENDBRANCH  30  31
ENDBRANCH   9  30
TORSDOF 12
