REMARK  Name = 
REMARK  9 active torsions:
REMARK  status: ('A' for Active; 'I' for Inactive)
REMARK    1  A    between atoms: C_1  and  C_2
REMARK    2  A    between atoms: C_2  and  C_16
REMARK    3  A    between atoms: C_3  and  C_4
REMARK    4  A    between atoms: C_4  and  C_5
REMARK    5  A    between atoms: C_5  and  C_6
REMARK    6  A    between atoms: C_6  and  C_7
REMARK    7  A    between atoms: C_6  and  O_14
REMARK    8  A    between atoms: C_6  and  C_15
REMARK    9  A    between atoms: C_12  and  C_13
REMARK                            x       y       z     vdW  Elec       q    Type
REMARK                         _______ _______ _______ _____ _____    ______ ____
ROOT
ATOM      1  C   UNL     1      -0.689   0.227   0.745  0.00  0.00    +0.089 C 
ATOM      2  C   UNL     1      -0.256  -0.849   1.758  0.00  0.00    -0.032 C 
ENDROOT
BRANCH   1   3
ATOM      3  C   UNL     1      -1.983  -0.267   0.049  0.00  0.00    -0.013 A 
ATOM      4  C   UNL     1      -1.883  -1.066  -1.117  0.00  0.00    -0.056 A 
ATOM      5  C   UNL     1      -3.016  -1.541  -1.774  0.00  0.00    -0.061 A 
ATOM      6  C   UNL     1      -4.282  -1.259  -1.279  0.00  0.00    -0.061 A 
ATOM      7  C   UNL     1      -4.421  -0.525  -0.105  0.00  0.00    -0.058 A 
ATOM      8  C   UNL     1      -3.293  -0.051   0.592  0.00  0.00    -0.045 A 
ATOM      9  C   UNL     1      -3.550   0.694   1.881  0.00  0.00    -0.039 C 
ENDBRANCH   1   3
BRANCH   1  10
ATOM     10  O   UNL     1      -0.929   1.425   1.445  0.00  0.00    -0.384 OA
ATOM     11  H   UNL     1      -1.204   2.115   0.820  0.00  0.00    +0.000 HD
ENDBRANCH   1  10
BRANCH   1  12
ATOM     12  C   UNL     1       0.474   0.482  -0.273  0.00  0.00    -0.017 C 
BRANCH  12  13
ATOM     13  C   UNL     1       1.631   1.325   0.296  0.00  0.00    -0.032 C 
BRANCH  13  16
ATOM     14  C   UNL     1       3.893  -0.646   0.140  0.00  0.00    -0.044 C 
ATOM     15  C   UNL     1       3.768   0.530  -0.801  0.00  0.00    -0.080 C 
ATOM     16  C   UNL     1       2.758   1.423  -0.701  0.00  0.00    -0.085 C 
ATOM     17  C   UNL     1       4.805   0.735  -1.875  0.00  0.00    -0.044 C 
ENDBRANCH  13  16
ENDBRANCH  12  13
ENDBRANCH   1  12
TORSDOF 5
