REMARK  Name = 
REMARK  9 active torsions:
REMARK  status: ('A' for Active; 'I' for Inactive)
REMARK    1  A    between atoms: C_1  and  C_2
REMARK    2  A    between atoms: C_2  and  C_3
REMARK    3  A    between atoms: C_3  and  C_4
REMARK    4  A    between atoms: C_4  and  C_5
REMARK    5  A    between atoms: C_5  and  C_6
REMARK    6  A    between atoms: C_6  and  C_7
REMARK    7  A    between atoms: C_7  and  C_8
REMARK    8  A    between atoms: C_7  and  C_15
REMARK    9  A    between atoms: C_8  and  C_9
REMARK                            x       y       z     vdW  Elec       q    Type
REMARK                         _______ _______ _______ _____ _____    ______ ____
ROOT
ATOM      1  C   UNL     1      -0.988   0.060  -0.245  0.00  0.00    +0.018 C 
ENDROOT
BRANCH   1   2
ATOM      2  C   UNL     1      -1.454   0.176  -1.677  0.00  0.00    +0.124 C 
ATOM      3  O   UNL     1      -1.487   1.260  -2.239  0.00  0.00    -0.301 OA
ENDBRANCH   1   2
BRANCH   1   4
ATOM      4  C   UNL     1       0.474   0.534  -0.097  0.00  0.00    -0.043 C 
BRANCH   4   5
ATOM      5  C   UNL     1       1.460  -0.375  -0.855  0.00  0.00    -0.052 C 
BRANCH   5   6
ATOM      6  C   UNL     1       2.910   0.129  -0.778  0.00  0.00    -0.053 C 
BRANCH   6   7
ATOM      7  C   UNL     1       3.552  -0.119   0.598  0.00  0.00    -0.053 C 
BRANCH   7   9
ATOM      8  C   UNL     1       5.972  -0.505  -0.121  0.00  0.00    -0.065 C 
ATOM      9  C   UNL     1       5.004   0.378   0.668  0.00  0.00    -0.056 C 
ENDBRANCH   7   9
ENDBRANCH   6   7
ENDBRANCH   5   6
ENDBRANCH   4   5
ENDBRANCH   1   4
BRANCH   1  10
ATOM     10  C   UNL     1      -1.912   0.858   0.699  0.00  0.00    -0.018 C 
BRANCH  10  11
ATOM     11  C   UNL     1      -3.319   0.313   0.699  0.00  0.00    -0.047 A 
ATOM     12  C   UNL     1      -4.317   0.915  -0.087  0.00  0.00    -0.059 A 
ATOM     13  C   UNL     1      -5.612   0.389  -0.105  0.00  0.00    -0.062 A 
ATOM     14  C   UNL     1      -5.920  -0.743   0.656  0.00  0.00    -0.062 A 
ATOM     15  C   UNL     1      -4.931  -1.352   1.434  0.00  0.00    -0.062 A 
ATOM     16  C   UNL     1      -3.635  -0.830   1.454  0.00  0.00    -0.059 A 
ENDBRANCH  10  11
ENDBRANCH   1  10
TORSDOF 8
