REMARK  Name = 
REMARK  7 active torsions:
REMARK  status: ('A' for Active; 'I' for Inactive)
REMARK    1  A    between atoms: C_1  and  O_2
REMARK    2  A    between atoms: O_2  and  C_3
REMARK    3  A    between atoms: C_4  and  O_5
REMARK    4  A    between atoms: O_5  and  C_6
REMARK    5  A    between atoms: C_19  and  O_23
REMARK    6  A    between atoms: C_20  and  O_21
REMARK    7  A    between atoms: O_21  and  C_22
REMARK                            x       y       z     vdW  Elec       q    Type
REMARK                         _______ _______ _______ _____ _____    ______ ____
ROOT
ATOM      1  C   UNL     1       2.052   1.145   0.357  0.00  0.00    +0.169 A 
ATOM      2  C   UNL     1       2.961   0.321  -0.359  0.00  0.00    +0.163 A 
ATOM      3  C   UNL     1       2.498  -0.869  -0.954  0.00  0.00    -0.009 A 
ATOM      4  C   UNL     1       1.158  -1.252  -0.853  0.00  0.00    -0.013 A 
ATOM      5  C   UNL     1       0.251  -0.440  -0.145  0.00  0.00    +0.001 A 
ATOM      6  C   UNL     1       0.696   0.757   0.460  0.00  0.00    +0.029 A 
ATOM      7  C   UNL     1      -0.232   1.550   1.163  0.00  0.00    -0.050 A 
ATOM      8  C   UNL     1      -1.571   1.167   1.264  0.00  0.00    -0.050 A 
ATOM      9  C   UNL     1      -2.025  -0.018   0.663  0.00  0.00    +0.029 A 
ATOM     10  C   UNL     1      -1.106  -0.828  -0.043  0.00  0.00    +0.001 A 
ATOM     11  C   UNL     1      -1.542  -2.027  -0.648  0.00  0.00    -0.013 A 
ATOM     12  C   UNL     1      -0.627  -2.825  -1.349  0.00  0.00    -0.053 A 
ATOM     13  C   UNL     1       0.711  -2.441  -1.451  0.00  0.00    -0.053 A 
ATOM     14  C   UNL     1      -2.885  -2.412  -0.540  0.00  0.00    -0.009 A 
ATOM     15  C   UNL     1      -3.798  -1.617   0.159  0.00  0.00    +0.160 A 
ATOM     16  C   UNL     1      -3.377  -0.412   0.752  0.00  0.00    +0.169 A 
ENDROOT
BRANCH   1  18
ATOM     17  C   UNL     1       3.734   2.928   1.008  0.00  0.00    +0.079 C 
ATOM     18  O   UNL     1       2.434   2.351   0.983  0.00  0.00    -0.491 OA
ENDBRANCH   1  18
BRANCH   2  19
ATOM     19  O   UNL     1       4.310   0.696  -0.468  0.00  0.00    -0.491 OA
ATOM     20  C   UNL     1       5.315  -0.042  -1.156  0.00  0.00    +0.079 C 
ENDBRANCH   2  19
BRANCH  16  21
ATOM     21  O   UNL     1      -4.301   0.385   1.433  0.00  0.00    -0.491 OA
ATOM     22  C   UNL     1      -5.074   1.364   0.750  0.00  0.00    +0.079 C 
ENDBRANCH  16  21
BRANCH  15  23
ATOM     23  O   UNL     1      -5.121  -2.046   0.258  0.00  0.00    -0.503 OA
ATOM     24  H   UNL     1      -5.384  -2.851  -0.143  0.00  0.00    +0.000 HD
ENDBRANCH  15  23
TORSDOF 4
