REMARK  Name = 
REMARK  14 active torsions:
REMARK  status: ('A' for Active; 'I' for Inactive)
REMARK    1  A    between atoms: C_1  and  C_2
REMARK    2  A    between atoms: C_2  and  C_3
REMARK    3  A    between atoms: C_2  and  C_32
REMARK    4  A    between atoms: C_3  and  C_5
REMARK    5  A    between atoms: C_5  and  C_6
REMARK    6  A    between atoms: C_6  and  C_7
REMARK    7  A    between atoms: C_7  and  C_8
REMARK    8  A    between atoms: C_7  and  C_31
REMARK    9  A    between atoms: C_11  and  C_30
REMARK   10  A    between atoms: C_12  and  C_13
REMARK   11  A    between atoms: C_21  and  C_22
REMARK   12  A    between atoms: C_25  and  O_29
REMARK   13  A    between atoms: C_26  and  C_27
REMARK   14  A    between atoms: C_26  and  C_28
REMARK                            x       y       z     vdW  Elec       q    Type
REMARK                         _______ _______ _______ _____ _____    ______ ____
ROOT
ATOM      1  C   UNL     1      -1.998  -0.810   0.001  0.00  0.00    -0.032 C 
ATOM      2  C   UNL     1      -2.246   0.510  -0.788  0.00  0.00    -0.049 C 
ATOM      3  C   UNL     1      -0.882   1.061  -1.243  0.00  0.00    -0.043 C 
ATOM      4  C   UNL     1       0.089  -0.097  -1.013  0.00  0.00    -0.001 C 
ATOM      5  C   UNL     1      -0.465  -0.733   0.301  0.00  0.00    -0.016 C 
ATOM      6  C   UNL     1      -0.226   0.194   1.550  0.00  0.00    -0.058 C 
ATOM      7  C   UNL     1       0.299  -2.064   0.521  0.00  0.00    -0.028 C 
ATOM      8  C   UNL     1       1.803  -1.842   0.472  0.00  0.00    -0.079 C 
ATOM      9  C   UNL     1       2.398  -0.732  -0.053  0.00  0.00    -0.042 C 
ATOM     10  C   UNL     1       1.558   0.237  -0.825  0.00  0.00    -0.041 C 
ATOM     11  C   UNL     1       2.133   1.197  -1.553  0.00  0.00    -0.080 C 
ATOM     12  C   UNL     1       3.614   1.280  -1.698  0.00  0.00    -0.030 C 
ATOM     13  C   UNL     1       4.351   0.956  -0.372  0.00  0.00    -0.021 C 
ATOM     14  C   UNL     1       3.912  -0.478   0.164  0.00  0.00    -0.003 C 
ATOM     15  C   UNL     1       4.147  -0.516   1.704  0.00  0.00    -0.055 C 
ATOM     16  C   UNL     1       4.702  -1.639  -0.536  0.00  0.00    -0.041 C 
ATOM     17  C   UNL     1       5.967  -1.216  -1.292  0.00  0.00    -0.026 C 
ATOM     18  C   UNL     1       6.758  -0.140  -0.541  0.00  0.00    +0.061 C 
ATOM     19  C   UNL     1       5.941   1.201  -0.441  0.00  0.00    -0.005 C 
ATOM     20  C   UNL     1       6.397   2.019   0.798  0.00  0.00    -0.057 C 
ATOM     21  C   UNL     1       6.358   2.075  -1.665  0.00  0.00    -0.057 C 
ATOM     22  C   UNL     1       0.024  -1.023  -2.273  0.00  0.00    -0.055 C 
ENDROOT
BRANCH   1  23
ATOM     23  C   UNL     1      -3.000  -1.014   1.200  0.00  0.00    -0.040 C 
ATOM     24  C   UNL     1      -2.640  -2.271   2.025  0.00  0.00    -0.062 C 
BRANCH  23  25
ATOM     25  C   UNL     1      -4.482  -1.175   0.728  0.00  0.00    -0.046 C 
BRANCH  25  26
ATOM     26  C   UNL     1      -5.183   0.137   0.315  0.00  0.00    -0.031 C 
BRANCH  26  27
ATOM     27  C   UNL     1      -6.704   0.101   0.286  0.00  0.00    -0.074 C 
ATOM     28  C   UNL     1      -7.402  -1.053   0.210  0.00  0.00    -0.099 C 
BRANCH  27  30
ATOM     29  C   UNL     1      -8.183   1.557  -1.164  0.00  0.00    -0.059 C 
ATOM     30  C   UNL     1      -7.425   1.441   0.165  0.00  0.00    -0.026 C 
ATOM     31  C   UNL     1      -8.350   1.696   1.366  0.00  0.00    -0.059 C 
ENDBRANCH  27  30
ENDBRANCH  26  27
ENDBRANCH  25  26
ENDBRANCH  23  25
ENDBRANCH   1  23
BRANCH  18  32
ATOM     32  O   UNL     1       7.153  -0.627   0.720  0.00  0.00    -0.391 OA
ATOM     33  H   UNL     1       6.366  -0.845   1.243  0.00  0.00    +0.000 HD
ENDBRANCH  18  32
TORSDOF 6
