REMARK  Name = 
REMARK  6 active torsions:
REMARK  status: ('A' for Active; 'I' for Inactive)
REMARK    1  A    between atoms: C_1  and  C_2
REMARK    2  A    between atoms: C_2  and  C_3
REMARK    3  A    between atoms: C_12  and  C_16
REMARK    4  A    between atoms: C_16  and  C_17
REMARK    5  A    between atoms: C_19  and  C_20
REMARK    6  A    between atoms: C_19  and  C_21
REMARK                            x       y       z     vdW  Elec       q    Type
REMARK                         _______ _______ _______ _____ _____    ______ ____
ROOT
ATOM      1  C   UNL     1       5.450  -0.077  -1.196  0.00  0.00    -0.021 C 
ATOM      2  C   UNL     1       4.524  -0.083   0.025  0.00  0.00    +0.124 C 
ATOM      3  C   UNL     1       5.067  -1.048   1.087  0.00  0.00    -0.021 C 
ATOM      4  C   UNL     1       4.463   1.317   0.618  0.00  0.00    -0.041 C 
ATOM      5  C   UNL     1       3.320   1.850   1.062  0.00  0.00    -0.051 C 
ATOM      6  C   UNL     1       2.043   1.145   0.882  0.00  0.00    +0.019 A 
ATOM      7  C   UNL     1       2.038  -0.046   0.134  0.00  0.00    +0.153 A 
ATOM      8  O   UNL     1       3.231  -0.547  -0.394  0.00  0.00    -0.480 OA
ATOM      9  C   UNL     1       0.819  -0.686  -0.079  0.00  0.00    +0.090 A 
ATOM     10  N   UNL     1       0.595  -1.810  -0.783  0.00  0.00    -0.358 N 
ATOM     11  C   UNL     1      -0.739  -2.029  -0.723  0.00  0.00    +0.006 A 
ATOM     12  C   UNL     1      -1.359  -1.041   0.037  0.00  0.00    -0.020 A 
ATOM     13  C   UNL     1      -0.351  -0.184   0.431  0.00  0.00    +0.007 A 
ATOM     14  C   UNL     1      -0.383   0.996   1.177  0.00  0.00    -0.052 A 
ATOM     15  C   UNL     1       0.834   1.667   1.401  0.00  0.00    -0.050 A 
ATOM     16  H   UNL     1       1.265  -2.362  -1.247  0.00  0.00    +0.000 HD
ENDROOT
BRANCH  12  17
ATOM     17  C   UNL     1      -2.830  -0.890   0.277  0.00  0.00    +0.003 C 
BRANCH  17  18
ATOM     18  C   UNL     1      -3.424   0.109  -0.724  0.00  0.00    +0.092 C 
ATOM     19  O   UNL     1      -4.288  -0.520  -1.650  0.00  0.00    -0.365 OA
ATOM     20  C   UNL     1      -4.896   0.340  -0.713  0.00  0.00    +0.091 C 
ATOM     21  C   UNL     1      -5.803  -0.406   0.272  0.00  0.00    -0.034 C 
ATOM     22  C   UNL     1      -5.412   1.627  -1.355  0.00  0.00    -0.034 C 
ENDBRANCH  17  18
ENDBRANCH  12  17
TORSDOF 2
