REMARK  Name = 
REMARK  9 active torsions:
REMARK  status: ('A' for Active; 'I' for Inactive)
REMARK    1  A    between atoms: O_1  and  C_2
REMARK    2  A    between atoms: C_2  and  C_3
REMARK    3  A    between atoms: C_2  and  C_7
REMARK    4  A    between atoms: C_3  and  O_4
REMARK    5  A    between atoms: C_3  and  C_5
REMARK    6  A    between atoms: C_3  and  C_6
REMARK    7  A    between atoms: C_7  and  C_8
REMARK    8  A    between atoms: C_18  and  C_21
REMARK    9  A    between atoms: C_18  and  C_22
REMARK                            x       y       z     vdW  Elec       q    Type
REMARK                         _______ _______ _______ _____ _____    ______ ____
ROOT
ATOM      1  C   UNL     1      -1.080   0.891  -0.215  0.00  0.00    -0.020 A 
ATOM      2  C   UNL     1      -0.540   1.940   0.524  0.00  0.00    +0.006 A 
ATOM      3  N   UNL     1       0.796   1.781   0.662  0.00  0.00    -0.358 N 
ATOM      4  C   UNL     1       1.101   0.635   0.028  0.00  0.00    +0.090 A 
ATOM      5  C   UNL     1      -0.018   0.060  -0.516  0.00  0.00    +0.007 A 
ATOM      6  C   UNL     1       0.038  -1.153  -1.206  0.00  0.00    -0.052 A 
ATOM      7  C   UNL     1       1.292  -1.779  -1.336  0.00  0.00    -0.050 A 
ATOM      8  C   UNL     1       2.449  -1.183  -0.782  0.00  0.00    +0.019 A 
ATOM      9  C   UNL     1       2.356   0.040  -0.093  0.00  0.00    +0.153 A 
ATOM     10  O   UNL     1       3.498   0.617   0.469  0.00  0.00    -0.480 OA
ATOM     11  C   UNL     1       4.829   0.191   0.139  0.00  0.00    +0.124 C 
ATOM     12  C   UNL     1       4.857  -1.236  -0.387  0.00  0.00    -0.041 C 
ATOM     13  C   UNL     1       3.762  -1.839  -0.863  0.00  0.00    -0.051 C 
ATOM     14  C   UNL     1       5.387   1.128  -0.939  0.00  0.00    -0.021 C 
ATOM     15  C   UNL     1       5.689   0.281   1.405  0.00  0.00    -0.021 C 
ATOM     16  H   UNL     1       1.419   2.382   1.131  0.00  0.00    +0.000 HD
ENDROOT
BRANCH   1  17
ATOM     17  C   UNL     1      -2.534   0.673  -0.519  0.00  0.00    +0.003 C 
BRANCH  17  18
ATOM     18  C   UNL     1      -3.229  -0.085   0.633  0.00  0.00    +0.087 C 
BRANCH  18  19
ATOM     19  C   UNL     1      -4.772  -0.254   0.459  0.00  0.00    +0.087 C 
ATOM     20  C   UNL     1      -5.111  -1.036  -0.831  0.00  0.00    -0.034 C 
ATOM     21  C   UNL     1      -5.479   1.119   0.434  0.00  0.00    -0.034 C 
BRANCH  19  22
ATOM     22  O   UNL     1      -5.239  -0.980   1.574  0.00  0.00    -0.387 OA
ATOM     23  H   UNL     1      -4.803  -1.846   1.602  0.00  0.00    +0.000 HD
ENDBRANCH  19  22
ENDBRANCH  18  19
BRANCH  18  24
ATOM     24  O   UNL     1      -2.626  -1.350   0.769  0.00  0.00    -0.389 OA
ATOM     25  H   UNL     1      -3.054  -1.836   1.491  0.00  0.00    +0.000 HD
ENDBRANCH  18  24
ENDBRANCH  17  18
ENDBRANCH   1  17
TORSDOF 5
