REMARK  Name = 
REMARK  13 active torsions:
REMARK  status: ('A' for Active; 'I' for Inactive)
REMARK    1  A    between atoms: O_1  and  C_2
REMARK    2  A    between atoms: C_5  and  C_8
REMARK    3  A    between atoms: C_9  and  C_10
REMARK    4  A    between atoms: C_10  and  C_12
REMARK    5  A    between atoms: C_14  and  O_15
REMARK    6  A    between atoms: O_15  and  C_16
REMARK    7  A    between atoms: C_19  and  C_22
REMARK    8  A    between atoms: C_23  and  C_24
REMARK    9  A    between atoms: C_24  and  C_26
REMARK   10  A    between atoms: C_29  and  O_33
REMARK   11  A    between atoms: C_31  and  O_32
REMARK   12  A    between atoms: C_34  and  O_38
REMARK   13  A    between atoms: C_36  and  O_37
REMARK                            x       y       z     vdW  Elec       q    Type
REMARK                         _______ _______ _______ _____ _____    ______ ____
ROOT
ATOM      1  C   UNL     1       3.722   1.423  -0.560  0.00  0.00    +0.067 A 
ATOM      2  C   UNL     1       2.521   1.896  -0.004  0.00  0.00    -0.001 A 
ATOM      3  C   UNL     1       1.286   1.572  -0.575  0.00  0.00    +0.170 A 
ATOM      4  C   UNL     1       1.246   0.807  -1.756  0.00  0.00    +0.163 A 
ATOM      5  C   UNL     1       2.439   0.344  -2.324  0.00  0.00    +0.026 A 
ATOM      6  C   UNL     1       3.675   0.652  -1.740  0.00  0.00    +0.131 A 
ENDROOT
BRANCH   1   7
ATOM      7  C   UNL     1       5.005   1.769   0.096  0.00  0.00    +0.190 C 
ATOM      8  O   UNL     1       5.148   2.920   0.593  0.00  0.00    -0.287 OA
BRANCH   7  10
ATOM      9  C   UNL     1       7.309   1.095   0.674  0.00  0.00    -0.051 C 
ATOM     10  C   UNL     1       6.091   0.772   0.217  0.00  0.00    -0.014 C 
BRANCH   9  14
ATOM     11  C   UNL     1      10.584  -1.653   1.148  0.00  0.00    +0.117 A 
ATOM     12  C   UNL     1       9.536  -1.977   0.282  0.00  0.00    -0.020 A 
ATOM     13  C   UNL     1       8.462  -1.097   0.114  0.00  0.00    -0.051 A 
ATOM     14  C   UNL     1       8.419   0.122   0.823  0.00  0.00    -0.025 A 
ATOM     15  C   UNL     1       9.487   0.445   1.677  0.00  0.00    -0.051 A 
ATOM     16  C   UNL     1      10.559  -0.437   1.843  0.00  0.00    -0.020 A 
BRANCH  11  17
ATOM     17  O   UNL     1      11.644  -2.542   1.309  0.00  0.00    -0.507 OA
ATOM     18  H   UNL     1      11.651  -3.352   0.840  0.00  0.00    +0.000 HD
ENDBRANCH  11  17
ENDBRANCH   9  14
ENDBRANCH   7  10
ENDBRANCH   1   7
BRANCH   6  19
ATOM     19  O   UNL     1       4.852   0.219  -2.352  0.00  0.00    -0.506 OA
ATOM     20  H   UNL     1       4.812  -0.293  -3.136  0.00  0.00    +0.000 HD
ENDBRANCH   6  19
BRANCH   4  21
ATOM     21  O   UNL     1       0.027   0.535  -2.375  0.00  0.00    -0.503 OA
ATOM     22  H   UNL     1      -0.771   0.845  -1.995  0.00  0.00    +0.000 HD
ENDBRANCH   4  21
BRANCH   3  23
ATOM     23  O   UNL     1       0.119   2.057   0.030  0.00  0.00    -0.452 OA
BRANCH  23  24
ATOM     24  C   UNL     1      -1.041   1.302   0.259  0.00  0.00    +0.129 A 
ATOM     25  C   UNL     1      -1.003  -0.096   0.400  0.00  0.00    -0.019 A 
ATOM     26  C   UNL     1      -2.179  -0.812   0.637  0.00  0.00    -0.051 A 
ATOM     27  C   UNL     1      -3.413  -0.150   0.736  0.00  0.00    -0.025 A 
ATOM     28  C   UNL     1      -3.441   1.254   0.626  0.00  0.00    -0.051 A 
ATOM     29  C   UNL     1      -2.262   1.970   0.393  0.00  0.00    -0.019 A 
BRANCH  27  30
ATOM     30  C   UNL     1      -4.634  -0.951   0.992  0.00  0.00    -0.051 C 
ATOM     31  C   UNL     1      -5.869  -0.542   0.668  0.00  0.00    -0.014 C 
BRANCH  31  32
ATOM     32  C   UNL     1      -7.065  -1.370   0.934  0.00  0.00    +0.190 C 
ATOM     33  O   UNL     1      -6.975  -2.380   1.686  0.00  0.00    -0.287 OA
BRANCH  32  34
ATOM     34  C   UNL     1      -8.389  -1.002   0.379  0.00  0.00    +0.063 A 
ATOM     35  C   UNL     1      -9.533  -1.161   1.179  0.00  0.00    -0.044 A 
ATOM     36  C   UNL     1     -10.796  -0.816   0.691  0.00  0.00    -0.019 A 
ATOM     37  C   UNL     1     -10.937  -0.317  -0.605  0.00  0.00    +0.120 A 
ATOM     38  C   UNL     1      -9.807  -0.171  -1.420  0.00  0.00    +0.022 A 
ATOM     39  C   UNL     1      -8.535  -0.521  -0.941  0.00  0.00    +0.131 A 
BRANCH  39  40
ATOM     40  O   UNL     1      -7.429  -0.413  -1.785  0.00  0.00    -0.506 OA
ATOM     41  H   UNL     1      -7.536  -0.093  -2.659  0.00  0.00    +0.000 HD
ENDBRANCH  39  40
BRANCH  37  42
ATOM     42  O   UNL     1     -12.202   0.028  -1.076  0.00  0.00    -0.507 OA
ATOM     43  H   UNL     1     -12.951  -0.074  -0.523  0.00  0.00    +0.000 HD
ENDBRANCH  37  42
ENDBRANCH  32  34
ENDBRANCH  31  32
ENDBRANCH  27  30
ENDBRANCH  23  24
ENDBRANCH   3  23
TORSDOF 13
