REMARK  Name = 
REMARK  6 active torsions:
REMARK  status: ('A' for Active; 'I' for Inactive)
REMARK    1  A    between atoms: O_1  and  C_2
REMARK    2  A    between atoms: C_5  and  O_18
REMARK    3  A    between atoms: C_6  and  C_8
REMARK    4  A    between atoms: C_8  and  O_9
REMARK    5  A    between atoms: O_9  and  C_10
REMARK    6  A    between atoms: C_10  and  C_12
REMARK                            x       y       z     vdW  Elec       q    Type
REMARK                         _______ _______ _______ _____ _____    ______ ____
ROOT
ATOM      1  C   UNL     1      -3.677   0.204   1.120  0.00  0.00    +0.117 A 
ATOM      2  C   UNL     1      -3.884   1.383   0.396  0.00  0.00    -0.017 A 
ATOM      3  C   UNL     1      -3.169   1.617  -0.780  0.00  0.00    -0.016 A 
ATOM      4  C   UNL     1      -2.242   0.679  -1.248  0.00  0.00    +0.123 A 
ATOM      5  C   UNL     1      -2.030  -0.519  -0.524  0.00  0.00    +0.035 A 
ATOM      6  C   UNL     1      -2.754  -0.740   0.661  0.00  0.00    -0.010 A 
ENDROOT
BRANCH   1   7
ATOM      7  O   UNL     1      -4.382  -0.039   2.296  0.00  0.00    -0.507 OA
ATOM      8  H   UNL     1      -5.002   0.590   2.609  0.00  0.00    +0.000 HD
ENDBRANCH   1   7
BRANCH   4   9
ATOM      9  O   UNL     1      -1.551   0.966  -2.427  0.00  0.00    -0.506 OA
ATOM     10  H   UNL     1      -1.715   1.768  -2.883  0.00  0.00    +0.000 HD
ENDBRANCH   4   9
BRANCH   5  11
ATOM     11  C   UNL     1      -1.029  -1.551  -0.982  0.00  0.00    +0.121 C 
BRANCH  11  12
ATOM     12  O   UNL     1       0.295  -1.027  -0.913  0.00  0.00    -0.456 OA
BRANCH  12  13
ATOM     13  C   UNL     1       0.968  -0.785   0.291  0.00  0.00    +0.339 C 
ATOM     14  O   UNL     1       0.429  -1.093   1.390  0.00  0.00    -0.245 OA
BRANCH  13  15
ATOM     15  C   UNL     1       2.312  -0.168   0.270  0.00  0.00    +0.059 A 
ATOM     16  C   UNL     1       3.014   0.067   1.468  0.00  0.00    -0.048 A 
ATOM     17  C   UNL     1       4.284   0.653   1.440  0.00  0.00    -0.061 A 
ATOM     18  C   UNL     1       4.864   1.010   0.221  0.00  0.00    -0.062 A 
ATOM     19  C   UNL     1       4.177   0.782  -0.973  0.00  0.00    -0.061 A 
ATOM     20  C   UNL     1       2.907   0.197  -0.951  0.00  0.00    -0.048 A 
ENDBRANCH  13  15
ENDBRANCH  12  13
ENDBRANCH  11  12
ENDBRANCH   5  11
TORSDOF 6
