REMARK  Name = 
REMARK  6 active torsions:
REMARK  status: ('A' for Active; 'I' for Inactive)
REMARK    1  A    between atoms: C_1  and  O_2
REMARK    2  A    between atoms: O_2  and  C_3
REMARK    3  A    between atoms: C_4  and  O_5
REMARK    4  A    between atoms: C_18  and  O_22
REMARK    5  A    between atoms: C_19  and  O_20
REMARK    6  A    between atoms: O_20  and  C_21
REMARK                            x       y       z     vdW  Elec       q    Type
REMARK                         _______ _______ _______ _____ _____    ______ ____
ROOT
ATOM      1  C   UNL     1       2.841  -0.018  -0.365  0.00  0.00    +0.169 A 
ATOM      2  C   UNL     1       3.317   1.299  -0.511  0.00  0.00    +0.160 A 
ATOM      3  C   UNL     1       2.430   2.378  -0.446  0.00  0.00    -0.009 A 
ATOM      4  C   UNL     1       1.060   2.163  -0.247  0.00  0.00    -0.013 A 
ATOM      5  C   UNL     1       0.572   0.845  -0.116  0.00  0.00    +0.001 A 
ATOM      6  C   UNL     1       1.463  -0.251  -0.178  0.00  0.00    +0.029 A 
ATOM      7  C   UNL     1       0.955  -1.556  -0.050  0.00  0.00    -0.050 A 
ATOM      8  C   UNL     1      -0.411  -1.774   0.140  0.00  0.00    -0.050 A 
ATOM      9  C   UNL     1      -1.308  -0.694   0.204  0.00  0.00    +0.029 A 
ATOM     10  C   UNL     1      -0.811   0.624   0.077  0.00  0.00    +0.001 A 
ATOM     11  C   UNL     1      -1.695   1.724   0.143  0.00  0.00    -0.013 A 
ATOM     12  C   UNL     1      -1.196   3.028   0.013  0.00  0.00    -0.053 A 
ATOM     13  C   UNL     1       0.171   3.245  -0.182  0.00  0.00    -0.053 A 
ATOM     14  C   UNL     1      -3.064   1.502   0.342  0.00  0.00    -0.009 A 
ATOM     15  C   UNL     1      -3.562   0.202   0.471  0.00  0.00    +0.160 A 
ATOM     16  C   UNL     1      -2.691  -0.901   0.390  0.00  0.00    +0.169 A 
ENDROOT
BRANCH   1  18
ATOM     17  C   UNL     1       4.409  -1.540   0.757  0.00  0.00    +0.079 C 
ATOM     18  O   UNL     1       3.738  -1.088  -0.412  0.00  0.00    -0.491 OA
ENDBRANCH   1  18
BRANCH   2  19
ATOM     19  O   UNL     1       4.671   1.557  -0.728  0.00  0.00    -0.503 OA
ATOM     20  H   UNL     1       5.281   0.848  -0.775  0.00  0.00    +0.000 HD
ENDBRANCH   2  19
BRANCH  16  21
ATOM     21  O   UNL     1      -3.202  -2.197   0.501  0.00  0.00    -0.491 OA
ATOM     22  C   UNL     1      -3.684  -2.900  -0.637  0.00  0.00    +0.079 C 
ENDBRANCH  16  21
BRANCH  15  23
ATOM     23  O   UNL     1      -4.930   0.027   0.685  0.00  0.00    -0.503 OA
ATOM     24  H   UNL     1      -5.495   0.773   0.737  0.00  0.00    +0.000 HD
ENDBRANCH  15  23
TORSDOF 4
