REMARK  Name = 
REMARK  9 active torsions:
REMARK  status: ('A' for Active; 'I' for Inactive)
REMARK    1  A    between atoms: C_1  and  C_2
REMARK    2  A    between atoms: C_3  and  C_4
REMARK    3  A    between atoms: C_4  and  C_5
REMARK    4  A    between atoms: C_4  and  C_19
REMARK    5  A    between atoms: C_4  and  C_20
REMARK    6  A    between atoms: C_11  and  C_12
REMARK    7  A    between atoms: C_12  and  C_13
REMARK    8  A    between atoms: C_14  and  C_15
REMARK    9  A    between atoms: C_14  and  C_16
REMARK                            x       y       z     vdW  Elec       q    Type
REMARK                         _______ _______ _______ _____ _____    ______ ____
ROOT
ATOM      1  C   UNL     1      -1.562   0.640   0.277  0.00  0.00    -0.013 A 
ATOM      2  C   UNL     1      -2.009   1.863   0.795  0.00  0.00    +0.007 A 
ATOM      3  N   UNL     1      -1.124   2.849   0.544  0.00  0.00    -0.360 N 
ATOM      4  C   UNL     1      -0.103   2.277  -0.108  0.00  0.00    +0.047 A 
ATOM      5  C   UNL     1      -0.317   0.931  -0.284  0.00  0.00    +0.004 A 
ATOM      6  C   UNL     1       0.650   0.126  -0.895  0.00  0.00    -0.049 A 
ATOM      7  C   UNL     1       1.847   0.728  -1.343  0.00  0.00    -0.043 A 
ATOM      8  C   UNL     1       2.038   2.121  -1.177  0.00  0.00    -0.056 A 
ATOM      9  C   UNL     1       1.060   2.905  -0.546  0.00  0.00    -0.038 A 
ATOM     10  H   UNL     1      -1.210   3.799   0.790  0.00  0.00    +0.000 HD
ENDROOT
BRANCH   1  11
ATOM     11  C   UNL     1      -2.266  -0.716   0.403  0.00  0.00    +0.010 C 
ATOM     12  C   UNL     1      -1.440  -1.622   1.337  0.00  0.00    -0.052 C 
ATOM     13  C   UNL     1      -2.409  -1.397  -0.978  0.00  0.00    -0.052 C 
BRANCH  11  16
ATOM     14  C   UNL     1      -6.008   0.220   1.014  0.00  0.00    -0.047 C 
ATOM     15  C   UNL     1      -4.657   0.092   0.383  0.00  0.00    -0.090 C 
ATOM     16  C   UNL     1      -3.660  -0.557   1.010  0.00  0.00    -0.078 C 
ENDBRANCH  11  16
ENDBRANCH   1  11
BRANCH   7  17
ATOM     17  C   UNL     1       2.908  -0.109  -2.011  0.00  0.00    -0.009 C 
BRANCH  17  18
ATOM     18  C   UNL     1       3.400  -1.211  -1.103  0.00  0.00    -0.081 C 
ATOM     19  C   UNL     1       4.212  -1.020  -0.040  0.00  0.00    -0.079 C 
ATOM     20  C   UNL     1       4.624  -2.219   0.773  0.00  0.00    -0.044 C 
ATOM     21  C   UNL     1       4.715   0.350   0.345  0.00  0.00    -0.044 C 
ENDBRANCH  17  18
ENDBRANCH   7  17
TORSDOF 4
