REMARK  Name = 
REMARK  12 active torsions:
REMARK  status: ('A' for Active; 'I' for Inactive)
REMARK    1  A    between atoms: C_1  and  O_2
REMARK    2  A    between atoms: O_2  and  C_3
REMARK    3  A    between atoms: C_11  and  C_14
REMARK    4  A    between atoms: C_14  and  C_15
REMARK    5  A    between atoms: C_14  and  C_25
REMARK    6  A    between atoms: C_15  and  C_17
REMARK    7  A    between atoms: C_20  and  O_24
REMARK    8  A    between atoms: C_22  and  O_23
REMARK    9  A    between atoms: C_25  and  C_26
REMARK   10  A    between atoms: C_25  and  C_33
REMARK   11  A    between atoms: C_29  and  O_32
REMARK   12  A    between atoms: C_36  and  O_39
REMARK                            x       y       z     vdW  Elec       q    Type
REMARK                         _______ _______ _______ _____ _____    ______ ____
ROOT
ATOM      1  C   UNL     1      -1.341   0.861   0.143  0.00  0.00    +0.065 C 
ENDROOT
BRANCH   1  10
ATOM      2  C   UNL     1       4.603  -0.726   1.373  0.00  0.00    +0.121 A 
ATOM      3  C   UNL     1       4.883  -1.168   0.066  0.00  0.00    -0.016 A 
ATOM      4  C   UNL     1       3.897  -1.118  -0.923  0.00  0.00    -0.015 A 
ATOM      5  C   UNL     1       2.622  -0.630  -0.623  0.00  0.00    +0.139 A 
ATOM      6  C   UNL     1       2.325  -0.189   0.684  0.00  0.00    +0.068 A 
ATOM      7  C   UNL     1       3.325  -0.239   1.673  0.00  0.00    -0.006 A 
ATOM      8  C   UNL     1       1.032   0.292   0.950  0.00  0.00    +0.196 A 
ATOM      9  O   UNL     1       0.741   0.721   2.101  0.00  0.00    -0.287 OA
ATOM     10  C   UNL     1       0.062   0.291  -0.076  0.00  0.00    +0.046 A 
ATOM     11  C   UNL     1       0.469  -0.131  -1.357  0.00  0.00    +0.100 A 
ATOM     12  O   UNL     1       1.700  -0.577  -1.575  0.00  0.00    -0.462 OA
BRANCH   2  14
ATOM     13  C   UNL     1       6.898  -1.217   2.235  0.00  0.00    +0.079 C 
ATOM     14  O   UNL     1       5.562  -0.753   2.397  0.00  0.00    -0.495 OA
ENDBRANCH   2  14
ENDBRANCH   1  10
BRANCH   1  15
ATOM     15  C   UNL     1      -1.558   2.027  -0.817  0.00  0.00    +0.175 C 
ATOM     16  O   UNL     1      -2.630   2.130  -1.473  0.00  0.00    -0.291 OA
BRANCH  15  17
ATOM     17  C   UNL     1      -0.535   3.091  -0.963  0.00  0.00    +0.060 A 
ATOM     18  C   UNL     1       0.005   3.693   0.187  0.00  0.00    -0.044 A 
ATOM     19  C   UNL     1       0.947   4.719   0.077  0.00  0.00    -0.019 A 
ATOM     20  C   UNL     1       1.361   5.160  -1.184  0.00  0.00    +0.120 A 
ATOM     21  C   UNL     1       0.838   4.562  -2.334  0.00  0.00    +0.022 A 
ATOM     22  C   UNL     1      -0.095   3.523  -2.237  0.00  0.00    +0.131 A 
BRANCH  22  23
ATOM     23  O   UNL     1      -0.539   2.928  -3.420  0.00  0.00    -0.506 OA
ATOM     24  H   UNL     1      -0.227   3.239  -4.247  0.00  0.00    +0.000 HD
ENDBRANCH  22  23
BRANCH  20  25
ATOM     25  O   UNL     1       2.293   6.188  -1.306  0.00  0.00    -0.507 OA
ATOM     26  H   UNL     1       2.647   6.593  -0.539  0.00  0.00    +0.000 HD
ENDBRANCH  20  25
ENDBRANCH  15  17
ENDBRANCH   1  15
BRANCH   1  27
ATOM     27  C   UNL     1      -2.505  -0.200   0.124  0.00  0.00    +0.023 C 
BRANCH  27  28
ATOM     28  C   UNL     1      -2.514  -1.143  -1.077  0.00  0.00    -0.039 A 
ATOM     29  C   UNL     1      -1.717  -2.306  -1.118  0.00  0.00    -0.055 A 
ATOM     30  C   UNL     1      -1.738  -3.146  -2.235  0.00  0.00    -0.020 A 
ATOM     31  C   UNL     1      -2.555  -2.845  -3.327  0.00  0.00    +0.117 A 
ATOM     32  C   UNL     1      -3.357  -1.699  -3.297  0.00  0.00    -0.020 A 
ATOM     33  C   UNL     1      -3.339  -0.857  -2.183  0.00  0.00    -0.055 A 
BRANCH  31  34
ATOM     34  O   UNL     1      -2.564  -3.691  -4.434  0.00  0.00    -0.507 OA
ATOM     35  H   UNL     1      -2.023  -4.456  -4.443  0.00  0.00    +0.000 HD
ENDBRANCH  31  34
ENDBRANCH  27  28
BRANCH  27  36
ATOM     36  C   UNL     1      -2.699  -0.952   1.442  0.00  0.00    -0.039 A 
ATOM     37  C   UNL     1      -1.635  -1.584   2.117  0.00  0.00    -0.055 A 
ATOM     38  C   UNL     1      -1.856  -2.275   3.312  0.00  0.00    -0.020 A 
ATOM     39  C   UNL     1      -3.142  -2.362   3.849  0.00  0.00    +0.117 A 
ATOM     40  C   UNL     1      -4.212  -1.757   3.182  0.00  0.00    -0.020 A 
ATOM     41  C   UNL     1      -3.995  -1.066   1.987  0.00  0.00    -0.055 A 
BRANCH  39  42
ATOM     42  O   UNL     1      -3.345  -3.054   5.041  0.00  0.00    -0.507 OA
ATOM     43  H   UNL     1      -2.621  -3.455   5.480  0.00  0.00    +0.000 HD
ENDBRANCH  39  42
ENDBRANCH  27  36
ENDBRANCH   1  27
TORSDOF 11
