REMARK  Name = 
REMARK  11 active torsions:
REMARK  status: ('A' for Active; 'I' for Inactive)
REMARK    1  A    between atoms: C_1  and  C_2
REMARK    2  A    between atoms: C_2  and  C_22
REMARK    3  A    between atoms: C_3  and  C_4
REMARK    4  A    between atoms: C_4  and  C_6
REMARK    5  A    between atoms: C_12  and  C_15
REMARK    6  A    between atoms: C_15  and  C_16
REMARK    7  A    between atoms: C_16  and  C_17
REMARK    8  A    between atoms: C_16  and  O_21
REMARK    9  A    between atoms: C_17  and  O_18
REMARK   10  A    between atoms: C_17  and  C_19
REMARK   11  A    between atoms: C_17  and  C_20
REMARK                            x       y       z     vdW  Elec       q    Type
REMARK                         _______ _______ _______ _____ _____    ______ ____
ROOT
ATOM      1  C   UNL     1       1.946  -0.261  -0.422  0.00  0.00    +0.022 A 
ATOM      2  C   UNL     1       2.155  -0.262  -1.829  0.00  0.00    -0.049 A 
ATOM      3  C   UNL     1       1.131  -0.650  -2.711  0.00  0.00    -0.037 A 
ATOM      4  C   UNL     1      -0.091  -1.031  -2.167  0.00  0.00    +0.047 A 
ATOM      5  C   UNL     1      -0.305  -1.038  -0.814  0.00  0.00    +0.004 A 
ATOM      6  C   UNL     1       0.692  -0.671   0.090  0.00  0.00    -0.042 A 
ATOM      7  C   UNL     1      -1.604  -1.472  -0.617  0.00  0.00    -0.020 A 
ATOM      8  C   UNL     1      -2.114  -1.717  -1.889  0.00  0.00    +0.006 A 
ATOM      9  N   UNL     1      -1.184  -1.443  -2.831  0.00  0.00    -0.360 N 
ATOM     10  H   UNL     1      -1.287  -1.528  -3.807  0.00  0.00    +0.000 HD
ENDROOT
BRANCH   1  11
ATOM     11  C   UNL     1       3.027   0.137   0.513  0.00  0.00    +0.186 C 
ATOM     12  O   UNL     1       2.994  -0.290   1.699  0.00  0.00    -0.287 OA
BRANCH  11  15
ATOM     13  C   UNL     1       5.711   0.426   1.895  0.00  0.00    -0.044 C 
ATOM     14  C   UNL     1       5.294   1.232   0.691  0.00  0.00    -0.072 C 
ATOM     15  C   UNL     1       4.101   1.070   0.083  0.00  0.00    -0.016 C 
ATOM     16  C   UNL     1       6.255   2.238   0.114  0.00  0.00    -0.044 C 
ENDBRANCH  11  15
ENDBRANCH   1  11
BRANCH   7  17
ATOM     17  C   UNL     1      -2.332  -1.636   0.690  0.00  0.00    +0.003 C 
BRANCH  17  18
ATOM     18  C   UNL     1      -2.934  -0.317   1.240  0.00  0.00    +0.087 C 
BRANCH  18  19
ATOM     19  C   UNL     1      -4.070   0.312   0.372  0.00  0.00    +0.087 C 
ATOM     20  C   UNL     1      -5.218  -0.696   0.140  0.00  0.00    -0.034 C 
ATOM     21  C   UNL     1      -4.639   1.546   1.108  0.00  0.00    -0.034 C 
BRANCH  19  22
ATOM     22  O   UNL     1      -3.534   0.723  -0.863  0.00  0.00    -0.387 OA
ATOM     23  H   UNL     1      -3.174  -0.046  -1.332  0.00  0.00    +0.000 HD
ENDBRANCH  19  22
ENDBRANCH  18  19
BRANCH  18  24
ATOM     24  O   UNL     1      -1.909   0.628   1.424  0.00  0.00    -0.389 OA
ATOM     25  H   UNL     1      -1.512   0.846   0.566  0.00  0.00    +0.000 HD
ENDBRANCH  18  24
ENDBRANCH  17  18
ENDBRANCH   7  17
TORSDOF 7
