REMARK  Name = 
REMARK  9 active torsions:
REMARK  status: ('A' for Active; 'I' for Inactive)
REMARK    1  A    between atoms: C_1  and  C_2
REMARK    2  A    between atoms: C_2  and  C_28
REMARK    3  A    between atoms: C_3  and  C_4
REMARK    4  A    between atoms: C_4  and  C_5
REMARK    5  A    between atoms: C_13  and  N_14
REMARK    6  A    between atoms: C_20  and  C_21
REMARK    7  A    between atoms: C_21  and  C_22
REMARK    8  A    between atoms: C_23  and  C_24
REMARK    9  A    between atoms: C_23  and  C_25
REMARK                            x       y       z     vdW  Elec       q    Type
REMARK                         _______ _______ _______ _____ _____    ______ ____
ROOT
ATOM      1  C   UNL     1       4.235  -0.105   1.056  0.00  0.00    -0.042 A 
ATOM      2  C   UNL     1       3.686   1.203   1.015  0.00  0.00    -0.058 A 
ATOM      3  C   UNL     1       2.360   1.414   0.600  0.00  0.00    -0.050 A 
ATOM      4  C   UNL     1       1.607   0.299   0.236  0.00  0.00    +0.024 A 
ATOM      5  C   UNL     1       2.122  -0.971   0.292  0.00  0.00    +0.049 A 
ATOM      6  C   UNL     1       3.433  -1.212   0.697  0.00  0.00    -0.034 A 
ATOM      7  N   UNL     1       1.208  -1.883  -0.089  0.00  0.00    -0.359 N 
ATOM      8  C   UNL     1       0.087  -1.190  -0.393  0.00  0.00    +0.027 A 
ATOM      9  C   UNL     1       0.302   0.170  -0.195  0.00  0.00    +0.072 A 
ATOM     10  H   UNL     1       1.331  -2.859  -0.138  0.00  0.00    +0.000 HD
ENDROOT
BRANCH   9  11
ATOM     11  N   UNL     1      -0.624   1.230  -0.481  0.00  0.00    -0.314 N 
ATOM     12  C   UNL     1      -0.338   2.379  -1.139  0.00  0.00    +0.011 A 
ATOM     13  C   UNL     1      -1.482   3.152  -1.294  0.00  0.00    -0.036 A 
ATOM     14  C   UNL     1      -2.493   2.429  -0.699  0.00  0.00    +0.000 A 
ATOM     15  C   UNL     1      -1.947   1.269  -0.216  0.00  0.00    +0.054 A 
ATOM     16  C   UNL     1      -2.722   0.337   0.481  0.00  0.00    -0.034 A 
ATOM     17  C   UNL     1      -4.097   0.609   0.658  0.00  0.00    -0.042 A 
ATOM     18  C   UNL     1      -4.652   1.802   0.131  0.00  0.00    -0.058 A 
ATOM     19  C   UNL     1      -3.844   2.728  -0.550  0.00  0.00    -0.052 A 
BRANCH  17  20
ATOM     20  C   UNL     1      -4.970  -0.386   1.372  0.00  0.00    -0.009 C 
BRANCH  20  21
ATOM     21  C   UNL     1      -5.321  -1.522   0.444  0.00  0.00    -0.081 C 
ATOM     22  C   UNL     1      -6.522  -1.688  -0.154  0.00  0.00    -0.079 C 
ATOM     23  C   UNL     1      -7.680  -0.751   0.095  0.00  0.00    -0.044 C 
ATOM     24  C   UNL     1      -6.698  -2.850  -1.097  0.00  0.00    -0.044 C 
ENDBRANCH  20  21
ENDBRANCH  17  20
ENDBRANCH   9  11
BRANCH   1  25
ATOM     25  C   UNL     1       5.657  -0.313   1.508  0.00  0.00    -0.009 C 
BRANCH  25  28
ATOM     26  C   UNL     1       6.396  -1.263  -1.245  0.00  0.00    -0.044 C 
ATOM     27  C   UNL     1       6.984  -0.016  -0.627  0.00  0.00    -0.079 C 
ATOM     28  C   UNL     1       6.635   0.403   0.609  0.00  0.00    -0.081 C 
ATOM     29  C   UNL     1       7.989   0.796  -1.403  0.00  0.00    -0.044 C 
ENDBRANCH  25  28
ENDBRANCH   1  25
TORSDOF 5
