REMARK  Name = 
REMARK  18 active torsions:
REMARK  status: ('A' for Active; 'I' for Inactive)
REMARK    1  A    between atoms: C_1  and  C_2
REMARK    2  A    between atoms: C_2  and  C_3
REMARK    3  A    between atoms: C_3  and  C_4
REMARK    4  A    between atoms: C_5  and  C_6
REMARK    5  A    between atoms: C_6  and  C_7
REMARK    6  A    between atoms: C_7  and  C_8
REMARK    7  A    between atoms: C_8  and  C_9
REMARK    8  A    between atoms: C_9  and  C_10
REMARK    9  A    between atoms: C_10  and  C_11
REMARK   10  A    between atoms: C_11  and  C_12
REMARK   11  A    between atoms: C_12  and  C_13
REMARK   12  A    between atoms: C_13  and  C_14
REMARK   13  A    between atoms: C_14  and  C_15
REMARK   14  A    between atoms: C_15  and  C_16
REMARK   15  A    between atoms: C_16  and  C_17
REMARK   16  A    between atoms: C_17  and  C_18
REMARK   17  A    between atoms: C_22  and  O_25
REMARK   18  A    between atoms: C_23  and  O_24
REMARK                            x       y       z     vdW  Elec       q    Type
REMARK                         _______ _______ _______ _____ _____    ______ ____
ROOT
ATOM      1  C   UNL     1       2.027   0.205  -0.680  0.00  0.00    -0.053 C 
ENDROOT
BRANCH   1   2
ATOM      2  C   UNL     1       2.957  -1.005  -0.489  0.00  0.00    -0.053 C 
BRANCH   2   3
ATOM      3  C   UNL     1       4.430  -0.595  -0.332  0.00  0.00    -0.049 C 
BRANCH   3   4
ATOM      4  C   UNL     1       5.080  -0.195  -1.665  0.00  0.00    -0.024 C 
BRANCH   4   5
ATOM      5  C   UNL     1       6.553   0.086  -1.476  0.00  0.00    -0.002 A 
ATOM      6  C   UNL     1       6.966   1.416  -1.286  0.00  0.00    -0.055 A 
ATOM      7  C   UNL     1       8.313   1.723  -1.095  0.00  0.00    -0.058 A 
ATOM      8  C   UNL     1       9.267   0.707  -1.082  0.00  0.00    -0.017 A 
ATOM      9  C   UNL     1       8.881  -0.625  -1.250  0.00  0.00    +0.158 A 
ATOM     10  C   UNL     1       7.523  -0.950  -1.440  0.00  0.00    +0.161 A 
BRANCH   9  11
ATOM     11  O   UNL     1       9.861  -1.617  -1.222  0.00  0.00    -0.503 OA
ATOM     12  H   UNL     1      10.760  -1.384  -1.094  0.00  0.00    +0.000 HD
ENDBRANCH   9  11
BRANCH  10  13
ATOM     13  O   UNL     1       7.173  -2.296  -1.583  0.00  0.00    -0.503 OA
ATOM     14  H   UNL     1       7.836  -2.957  -1.555  0.00  0.00    +0.000 HD
ENDBRANCH  10  13
ENDBRANCH   4   5
ENDBRANCH   3   4
ENDBRANCH   2   3
ENDBRANCH   1   2
BRANCH   1  15
ATOM     15  C   UNL     1       0.563  -0.196  -0.942  0.00  0.00    -0.053 C 
BRANCH  15  16
ATOM     16  C   UNL     1      -0.110  -1.010   0.178  0.00  0.00    -0.053 C 
BRANCH  16  17
ATOM     17  C   UNL     1      -0.184  -0.250   1.513  0.00  0.00    -0.053 C 
BRANCH  17  18
ATOM     18  C   UNL     1      -0.889  -1.052   2.623  0.00  0.00    -0.053 C 
BRANCH  18  19
ATOM     19  C   UNL     1      -2.377  -1.354   2.372  0.00  0.00    -0.053 C 
BRANCH  19  20
ATOM     20  C   UNL     1      -3.232  -0.086   2.225  0.00  0.00    -0.053 C 
BRANCH  20  21
ATOM     21  C   UNL     1      -4.725  -0.432   2.174  0.00  0.00    -0.050 C 
BRANCH  21  22
ATOM     22  C   UNL     1      -5.577   0.832   2.013  0.00  0.00    -0.035 C 
BRANCH  22  24
ATOM     23  C   UNL     1      -7.682   0.149   0.793  0.00  0.00    -0.088 C 
ATOM     24  C   UNL     1      -7.041   0.482   1.929  0.00  0.00    -0.088 C 
BRANCH  23  25
ATOM     25  C   UNL     1      -7.057   0.164  -0.578  0.00  0.00    -0.035 C 
BRANCH  25  27
ATOM     26  C   UNL     1      -6.525   1.588  -2.591  0.00  0.00    -0.065 C 
ATOM     27  C   UNL     1      -7.175   1.555  -1.211  0.00  0.00    -0.052 C 
ENDBRANCH  25  27
ENDBRANCH  23  25
ENDBRANCH  22  24
ENDBRANCH  21  22
ENDBRANCH  20  21
ENDBRANCH  19  20
ENDBRANCH  18  19
ENDBRANCH  17  18
ENDBRANCH  16  17
ENDBRANCH  15  16
ENDBRANCH   1  15
TORSDOF 17
