REMARK  Name = 
REMARK  8 active torsions:
REMARK  status: ('A' for Active; 'I' for Inactive)
REMARK    1  A    between atoms: C_1  and  C_2
REMARK    2  A    between atoms: C_2  and  C_14
REMARK    3  A    between atoms: C_3  and  C_4
REMARK    4  A    between atoms: C_4  and  C_5
REMARK    5  A    between atoms: C_14  and  C_15
REMARK    6  A    between atoms: C_15  and  C_16
REMARK    7  A    between atoms: C_17  and  C_18
REMARK    8  A    between atoms: C_17  and  C_19
REMARK                            x       y       z     vdW  Elec       q    Type
REMARK                         _______ _______ _______ _____ _____    ______ ____
ROOT
ATOM      1  C   UNL     1      -1.454  -1.809   0.867  0.00  0.00    -0.007 C 
ENDROOT
BRANCH   1   2
ATOM      2  C   UNL     1      -2.690  -0.975   0.703  0.00  0.00    -0.019 A 
ATOM      3  C   UNL     1      -3.617  -0.663   1.693  0.00  0.00    +0.006 A 
ATOM      4  N   UNL     1      -4.612   0.099   1.185  0.00  0.00    -0.360 N 
ATOM      5  C   UNL     1      -4.325   0.265  -0.118  0.00  0.00    +0.047 A 
ATOM      6  C   UNL     1      -3.162  -0.379  -0.451  0.00  0.00    +0.003 A 
ATOM      7  C   UNL     1      -2.659  -0.361  -1.753  0.00  0.00    -0.052 A 
ATOM      8  C   UNL     1      -3.384   0.350  -2.726  0.00  0.00    -0.061 A 
ATOM      9  C   UNL     1      -4.581   1.016  -2.382  0.00  0.00    -0.060 A 
ATOM     10  C   UNL     1      -5.065   0.977  -1.061  0.00  0.00    -0.038 A 
ATOM     11  H   UNL     1      -5.389   0.459   1.671  0.00  0.00    +0.000 HD
ENDBRANCH   1   2
BRANCH   1  14
ATOM     12  C   UNL     1      -0.303   0.314   2.653  0.00  0.00    -0.044 C 
ATOM     13  C   UNL     1       0.320  -0.061   1.330  0.00  0.00    -0.076 C 
ATOM     14  C   UNL     1      -0.211  -1.020   0.537  0.00  0.00    -0.081 C 
BRANCH  13  15
ATOM     15  C   UNL     1       1.570   0.658   0.873  0.00  0.00    -0.029 C 
BRANCH  15  16
ATOM     16  C   UNL     1       2.806  -0.232   1.046  0.00  0.00    -0.031 C 
BRANCH  16  17
ATOM     17  C   UNL     1       4.046   0.471   0.552  0.00  0.00    -0.085 C 
ATOM     18  C   UNL     1       4.472   0.450  -0.732  0.00  0.00    -0.080 C 
ATOM     19  C   UNL     1       3.771  -0.357  -1.796  0.00  0.00    -0.044 C 
ATOM     20  C   UNL     1       5.713   1.210  -1.122  0.00  0.00    -0.044 C 
ENDBRANCH  16  17
ENDBRANCH  15  16
ENDBRANCH  13  15
ENDBRANCH   1  14
TORSDOF 5
