REMARK  Name = 
REMARK  2 active torsions:
REMARK  status: ('A' for Active; 'I' for Inactive)
REMARK    1  A    between atoms: C_2  and  C_3
REMARK    2  A    between atoms: C_7  and  O_9
REMARK                            x       y       z     vdW  Elec       q    Type
REMARK                         _______ _______ _______ _____ _____    ______ ____
ROOT
ATOM      1  C   UNL     1       1.102  -0.053  -0.038  0.00  0.00    +0.018 A 
ATOM      2  C   UNL     1       0.672   1.192   0.454  0.00  0.00    -0.051 A 
ATOM      3  C   UNL     1      -0.693   1.465   0.582  0.00  0.00    -0.058 A 
ATOM      4  C   UNL     1      -1.639   0.501   0.222  0.00  0.00    -0.020 A 
ATOM      5  C   UNL     1      -1.221  -0.743  -0.270  0.00  0.00    +0.118 A 
ATOM      6  C   UNL     1       0.146  -1.017  -0.399  0.00  0.00    -0.010 A 
ENDROOT
BRANCH   1   8
ATOM      7  O   UNL     1       3.418   0.481   0.134  0.00  0.00    -0.296 OA
ATOM      8  C   UNL     1       2.537  -0.362  -0.181  0.00  0.00    +0.150 C 
ENDBRANCH   1   8
BRANCH   5   9
ATOM      9  O   UNL     1      -2.154  -1.711  -0.633  0.00  0.00    -0.507 OA
ATOM     10  H   UNL     1      -3.070  -1.534  -0.550  0.00  0.00    +0.000 HD
ENDBRANCH   5   9
TORSDOF 2
