REMARK  Name = 
REMARK  7 active torsions:
REMARK  status: ('A' for Active; 'I' for Inactive)
REMARK    1  A    between atoms: C_1  and  O_2
REMARK    2  A    between atoms: O_2  and  C_3
REMARK    3  A    between atoms: C_9  and  O_14
REMARK    4  A    between atoms: C_10  and  C_11
REMARK    5  A    between atoms: C_11  and  C_12
REMARK    6  A    between atoms: C_11  and  C_13
REMARK    7  A    between atoms: O_14  and  C_15
REMARK                            x       y       z     vdW  Elec       q    Type
REMARK                         _______ _______ _______ _____ _____    ______ ____
ROOT
ATOM      1  C   UNL     1      -0.451   1.162  -0.743  0.00  0.00    +0.128 C 
ATOM      2  C   UNL     1       0.618   1.965  -0.900  0.00  0.00    -0.009 C 
ATOM      3  C   UNL     1       1.935   1.599  -0.362  0.00  0.00    +0.022 C 
ATOM      4  C   UNL     1       2.980   2.416  -0.533  0.00  0.00    -0.088 C 
ATOM      5  C   UNL     1       2.059   0.320   0.359  0.00  0.00    +0.227 C 
ATOM      6  O   UNL     1       3.175  -0.023   0.833  0.00  0.00    -0.283 OA
ATOM      7  C   UNL     1       0.855  -0.546   0.515  0.00  0.00    +0.174 C 
ATOM      8  C   UNL     1      -0.336  -0.145  -0.009  0.00  0.00    +0.042 C 
ENDROOT
BRANCH   8   9
ATOM      9  C   UNL     1      -1.596  -1.008   0.131  0.00  0.00    -0.014 C 
ATOM     10  C   UNL     1      -2.026  -1.181   1.595  0.00  0.00    -0.058 C 
ATOM     11  C   UNL     1      -1.462  -2.358  -0.587  0.00  0.00    -0.058 C 
ENDBRANCH   8   9
BRANCH   1  13
ATOM     12  C   UNL     1      -1.992   2.723  -1.983  0.00  0.00    +0.079 C 
ATOM     13  O   UNL     1      -1.708   1.525  -1.264  0.00  0.00    -0.495 OA
ENDBRANCH   1  13
BRANCH   7  14
ATOM     14  O   UNL     1       0.912  -1.778   1.195  0.00  0.00    -0.491 OA
ATOM     15  C   UNL     1       2.061  -2.356   1.804  0.00  0.00    +0.079 C 
ENDBRANCH   7  14
TORSDOF 3
