REMARK  Name = 
REMARK  7 active torsions:
REMARK  status: ('A' for Active; 'I' for Inactive)
REMARK    1  A    between atoms: C_2  and  C_3
REMARK    2  A    between atoms: C_3  and  C_4
REMARK    3  A    between atoms: C_7  and  C_14
REMARK    4  A    between atoms: C_10  and  C_11
REMARK    5  A    between atoms: C_11  and  C_13
REMARK    6  A    between atoms: C_14  and  C_15
REMARK    7  A    between atoms: C_14  and  C_16
REMARK                            x       y       z     vdW  Elec       q    Type
REMARK                         _______ _______ _______ _____ _____    ______ ____
ROOT
ATOM      1  C   UNL     1      -1.365  -0.847  -0.631  0.00  0.00    -0.001 C 
ATOM      2  C   UNL     1      -1.509  -0.490  -2.142  0.00  0.00    -0.055 C 
ATOM      3  C   UNL     1      -0.388  -2.085  -0.515  0.00  0.00    -0.043 C 
ATOM      4  C   UNL     1       0.993  -1.789   0.110  0.00  0.00    -0.042 C 
ATOM      5  C   UNL     1       1.624  -0.480  -0.417  0.00  0.00    +0.020 C 
ATOM      6  C   UNL     1       0.617   0.652  -0.368  0.00  0.00    +0.144 C 
ATOM      7  O   UNL     1       0.891   1.728  -0.880  0.00  0.00    -0.296 OA
ATOM      8  C   UNL     1      -0.777   0.378   0.170  0.00  0.00    +0.047 C 
ENDROOT
BRANCH   8   9
ATOM      9  C   UNL     1      -1.597   1.676   0.321  0.00  0.00    -0.069 C 
ATOM     10  C   UNL     1      -2.830   1.878  -0.183  0.00  0.00    -0.099 C 
ATOM     11  C   UNL     1      -1.030   2.776   1.188  0.00  0.00    -0.043 C 
ENDBRANCH   8   9
BRANCH   5  12
ATOM     12  C   UNL     1       2.954  -0.154   0.331  0.00  0.00    -0.037 C 
ATOM     13  C   UNL     1       2.740   0.441   1.734  0.00  0.00    -0.062 C 
ATOM     14  C   UNL     1       3.862   0.768  -0.498  0.00  0.00    -0.062 C 
ENDBRANCH   5  12
BRANCH   1  16
ATOM     15  C   UNL     1      -3.462  -2.248  -0.531  0.00  0.00    -0.102 C 
ATOM     16  C   UNL     1      -2.717  -1.248  -0.042  0.00  0.00    -0.084 C 
ENDBRANCH   1  16
TORSDOF 3
