REMARK  Name = 
REMARK  3 active torsions:
REMARK  status: ('A' for Active; 'I' for Inactive)
REMARK    1  A    between atoms: C_2  and  C_4
REMARK    2  A    between atoms: C_7  and  O_11
REMARK    3  A    between atoms: C_8  and  O_10
REMARK                            x       y       z     vdW  Elec       q    Type
REMARK                         _______ _______ _______ _____ _____    ______ ____
ROOT
ATOM      1  C   UNL     1       1.080  -0.011  -0.216  0.00  0.00    +0.063 A 
ATOM      2  C   UNL     1       0.757   1.341  -0.018  0.00  0.00    -0.044 A 
ATOM      3  C   UNL     1      -0.554   1.717   0.280  0.00  0.00    -0.016 A 
ATOM      4  C   UNL     1      -1.566   0.758   0.387  0.00  0.00    +0.158 A 
ATOM      5  C   UNL     1      -1.253  -0.607   0.190  0.00  0.00    +0.159 A 
ATOM      6  C   UNL     1       0.065  -0.977  -0.109  0.00  0.00    -0.003 A 
ENDROOT
BRANCH   1   8
ATOM      7  O   UNL     1       2.779  -1.761  -0.727  0.00  0.00    -0.477 OA
ATOM      8  C   UNL     1       2.468  -0.417  -0.533  0.00  0.00    +0.337 C 
ATOM      9  O   UNL     1       3.380   0.447  -0.629  0.00  0.00    -0.245 OA
ENDBRANCH   1   8
BRANCH   5  10
ATOM     10  O   UNL     1      -2.209  -1.621   0.280  0.00  0.00    -0.503 OA
ATOM     11  H   UNL     1      -3.100  -1.408   0.478  0.00  0.00    +0.000 HD
ENDBRANCH   5  10
BRANCH   4  12
ATOM     12  O   UNL     1      -2.856   1.202   0.687  0.00  0.00    -0.503 OA
ATOM     13  H   UNL     1      -3.020   2.116   0.810  0.00  0.00    +0.000 HD
ENDBRANCH   4  12
TORSDOF 3
