REMARK  Name = 
REMARK  7 active torsions:
REMARK  status: ('A' for Active; 'I' for Inactive)
REMARK    1  A    between atoms: C_1  and  O_2
REMARK    2  A    between atoms: O_2  and  C_3
REMARK    3  A    between atoms: C_4  and  O_5
REMARK    4  A    between atoms: O_5  and  C_6
REMARK    5  A    between atoms: C_8  and  O_13
REMARK    6  A    between atoms: C_10  and  O_11
REMARK    7  A    between atoms: O_11  and  C_12
REMARK                            x       y       z     vdW  Elec       q    Type
REMARK                         _______ _______ _______ _____ _____    ______ ____
ROOT
ATOM      1  C   UNL     1       0.406  -0.581   0.034  0.00  0.00    +0.204 A 
ATOM      2  C   UNL     1       1.292   0.412   0.486  0.00  0.00    +0.169 A 
ATOM      3  C   UNL     1       0.866   1.749   0.571  0.00  0.00    +0.025 A 
ATOM      4  C   UNL     1      -0.433   2.101   0.210  0.00  0.00    +0.124 A 
ATOM      5  C   UNL     1      -1.320   1.120  -0.240  0.00  0.00    +0.025 A 
ATOM      6  C   UNL     1      -0.919  -0.227  -0.335  0.00  0.00    +0.169 A 
ENDROOT
BRANCH   1   8
ATOM      7  C   UNL     1       0.201  -3.057  -0.444  0.00  0.00    +0.079 C 
ATOM      8  O   UNL     1       0.907  -1.896  -0.022  0.00  0.00    -0.488 OA
ENDBRANCH   1   8
BRANCH   2   9
ATOM      9  O   UNL     1       2.595   0.027   0.843  0.00  0.00    -0.491 OA
ATOM     10  C   UNL     1       3.601   0.917   1.317  0.00  0.00    +0.079 C 
ENDBRANCH   2   9
BRANCH   6  11
ATOM     11  O   UNL     1      -1.810  -1.213  -0.787  0.00  0.00    -0.491 OA
ATOM     12  C   UNL     1      -3.158  -0.977  -1.184  0.00  0.00    +0.079 C 
ENDBRANCH   6  11
BRANCH   4  13
ATOM     13  O   UNL     1      -0.833   3.432   0.302  0.00  0.00    -0.507 OA
ATOM     14  H   UNL     1      -0.231   4.083   0.605  0.00  0.00    +0.000 HD
ENDBRANCH   4  13
TORSDOF 4
