REMARK  Name = 
REMARK  8 active torsions:
REMARK  status: ('A' for Active; 'I' for Inactive)
REMARK    1  A    between atoms: C_1  and  C_2
REMARK    2  A    between atoms: C_2  and  C_3
REMARK    3  A    between atoms: C_5  and  C_6
REMARK    4  A    between atoms: C_6  and  C_7
REMARK    5  A    between atoms: C_13  and  C_16
REMARK    6  A    between atoms: C_16  and  C_17
REMARK    7  A    between atoms: C_19  and  C_20
REMARK    8  A    between atoms: C_19  and  C_21
REMARK                            x       y       z     vdW  Elec       q    Type
REMARK                         _______ _______ _______ _____ _____    ______ ____
ROOT
ATOM      1  C   UNL     1      -1.527   0.682  -1.658  0.00  0.00    -0.044 A 
ATOM      2  C   UNL     1      -1.955   1.974  -2.060  0.00  0.00    -0.057 A 
ATOM      3  C   UNL     1      -1.031   3.025  -2.198  0.00  0.00    -0.038 A 
ATOM      4  C   UNL     1       0.308   2.758  -1.920  0.00  0.00    +0.047 A 
ATOM      5  C   UNL     1       0.726   1.515  -1.522  0.00  0.00    +0.003 A 
ATOM      6  C   UNL     1      -0.164   0.452  -1.372  0.00  0.00    -0.049 A 
ATOM      7  C   UNL     1       2.087   1.600  -1.309  0.00  0.00    -0.020 A 
ATOM      8  C   UNL     1       2.429   2.922  -1.580  0.00  0.00    +0.006 A 
ATOM      9  N   UNL     1       1.337   3.622  -1.961  0.00  0.00    -0.360 N 
ATOM     10  H   UNL     1       1.302   4.572  -2.217  0.00  0.00    +0.000 HD
ENDROOT
BRANCH   1  11
ATOM     11  C   UNL     1      -2.528  -0.423  -1.469  0.00  0.00    +0.001 C 
BRANCH  11  16
ATOM     12  C   UNL     1      -4.114  -2.792  -0.481  0.00  0.00    -0.034 C 
ATOM     13  C   UNL     1      -3.767  -1.642   0.471  0.00  0.00    +0.091 C 
ATOM     14  C   UNL     1      -4.585  -1.473   1.751  0.00  0.00    -0.034 C 
ATOM     15  O   UNL     1      -2.380  -1.529   0.705  0.00  0.00    -0.365 OA
ATOM     16  C   UNL     1      -2.985  -0.467  -0.005  0.00  0.00    +0.092 C 
ENDBRANCH  11  16
ENDBRANCH   1  11
BRANCH   7  17
ATOM     17  C   UNL     1       2.994   0.531  -0.782  0.00  0.00    +0.003 C 
BRANCH  17  18
ATOM     18  C   UNL     1       2.873   0.452   0.744  0.00  0.00    +0.092 C 
ATOM     19  O   UNL     1       2.073  -0.639   1.155  0.00  0.00    -0.365 OA
ATOM     20  C   UNL     1       3.449  -0.726   1.452  0.00  0.00    +0.091 C 
ATOM     21  C   UNL     1       3.727  -0.582   2.948  0.00  0.00    -0.034 C 
ATOM     22  C   UNL     1       4.152  -1.843   0.674  0.00  0.00    -0.034 C 
ENDBRANCH  17  18
ENDBRANCH   7  17
TORSDOF 4
