REMARK  Name = 
REMARK  8 active torsions:
REMARK  status: ('A' for Active; 'I' for Inactive)
REMARK    1  A    between atoms: C_1  and  C_2
REMARK    2  A    between atoms: C_2  and  C_21
REMARK    3  A    between atoms: C_3  and  C_4
REMARK    4  A    between atoms: C_4  and  C_6
REMARK    5  A    between atoms: C_12  and  C_15
REMARK    6  A    between atoms: C_15  and  C_16
REMARK    7  A    between atoms: C_18  and  C_19
REMARK    8  A    between atoms: C_18  and  C_20
REMARK                            x       y       z     vdW  Elec       q    Type
REMARK                         _______ _______ _______ _____ _____    ______ ____
ROOT
ATOM      1  C   UNL     1      -1.230  -0.831   0.685  0.00  0.00    +0.022 A 
ATOM      2  C   UNL     1      -1.204  -1.886   1.640  0.00  0.00    -0.049 A 
ATOM      3  C   UNL     1      -0.196  -1.952   2.618  0.00  0.00    -0.037 A 
ATOM      4  C   UNL     1       0.774  -0.954   2.625  0.00  0.00    +0.047 A 
ATOM      5  C   UNL     1       0.768   0.061   1.706  0.00  0.00    +0.004 A 
ATOM      6  C   UNL     1      -0.210   0.151   0.717  0.00  0.00    -0.042 A 
ATOM      7  C   UNL     1       1.873   0.847   1.970  0.00  0.00    -0.020 A 
ATOM      8  C   UNL     1       2.516   0.242   3.046  0.00  0.00    +0.006 A 
ATOM      9  N   UNL     1       1.833  -0.855   3.448  0.00  0.00    -0.360 N 
ATOM     10  H   UNL     1       2.065  -1.457   4.192  0.00  0.00    +0.000 HD
ENDROOT
BRANCH   1  11
ATOM     11  C   UNL     1      -2.285  -0.759  -0.361  0.00  0.00    +0.186 C 
ATOM     12  O   UNL     1      -2.082  -0.043  -1.379  0.00  0.00    -0.287 OA
BRANCH  11  15
ATOM     13  C   UNL     1      -5.720  -2.486  -0.828  0.00  0.00    -0.044 C 
ATOM     14  C   UNL     1      -4.445  -1.771  -1.188  0.00  0.00    -0.072 C 
ATOM     15  C   UNL     1      -3.582  -1.467  -0.196  0.00  0.00    -0.016 C 
ATOM     16  C   UNL     1      -4.170  -1.452  -2.636  0.00  0.00    -0.044 C 
ENDBRANCH  11  15
ENDBRANCH   1  11
BRANCH   7  17
ATOM     17  C   UNL     1       2.378   2.006   1.168  0.00  0.00    +0.003 C 
BRANCH  17  18
ATOM     18  C   UNL     1       3.349   1.504   0.091  0.00  0.00    +0.092 C 
ATOM     19  O   UNL     1       2.668   0.907  -0.995  0.00  0.00    -0.365 OA
ATOM     20  C   UNL     1       3.343   2.114  -1.272  0.00  0.00    +0.091 C 
ATOM     21  C   UNL     1       2.377   3.249  -1.634  0.00  0.00    -0.034 C 
ATOM     22  C   UNL     1       4.576   1.892  -2.149  0.00  0.00    -0.034 C 
ENDBRANCH  17  18
ENDBRANCH   7  17
TORSDOF 4
