REMARK  Name = 
REMARK  8 active torsions:
REMARK  status: ('A' for Active; 'I' for Inactive)
REMARK    1  A    between atoms: C_2  and  C_3
REMARK    2  A    between atoms: C_4  and  O_5
REMARK    3  A    between atoms: C_6  and  C_7
REMARK    4  A    between atoms: C_7  and  C_9
REMARK    5  A    between atoms: C_10  and  C_11
REMARK    6  A    between atoms: C_17  and  O_23
REMARK    7  A    between atoms: C_18  and  C_21
REMARK    8  A    between atoms: C_19  and  O_20
REMARK                            x       y       z     vdW  Elec       q    Type
REMARK                         _______ _______ _______ _____ _____    ______ ____
ROOT
ATOM      1  C   UNL     1      -3.177   1.178  -0.276  0.00  0.00    +0.098 A 
ATOM      2  C   UNL     1      -1.929   0.613  -0.625  0.00  0.00    +0.145 A 
ATOM      3  C   UNL     1      -1.588  -0.678  -0.181  0.00  0.00    +0.106 A 
ATOM      4  C   UNL     1      -2.512  -1.433   0.574  0.00  0.00    +0.145 A 
ATOM      5  C   UNL     1      -3.786  -0.900   0.870  0.00  0.00    +0.098 A 
ATOM      6  C   UNL     1      -4.108   0.411   0.461  0.00  0.00    +0.144 A 
ENDROOT
BRANCH   1   8
ATOM      7  O   UNL     1      -2.696   3.498  -0.527  0.00  0.00    -0.295 OA
ATOM      8  C   UNL     1      -3.519   2.558  -0.680  0.00  0.00    +0.157 C 
ENDBRANCH   1   8
BRANCH   2   9
ATOM      9  O   UNL     1      -1.026   1.292  -1.452  0.00  0.00    -0.505 OA
ATOM     10  H   UNL     1      -1.230   2.153  -1.761  0.00  0.00    +0.000 HD
ENDBRANCH   2   9
BRANCH   3  11
ATOM     11  C   UNL     1      -0.278  -1.250  -0.562  0.00  0.00    +0.193 C 
ATOM     12  O   UNL     1      -0.241  -2.338  -1.200  0.00  0.00    -0.287 OA
BRANCH  11  13
ATOM     13  C   UNL     1       0.971  -0.546  -0.206  0.00  0.00    -0.014 C 
ATOM     14  C   UNL     1       2.179  -1.013  -0.554  0.00  0.00    -0.051 C 
BRANCH  14  15
ATOM     15  C   UNL     1       3.453  -0.338  -0.206  0.00  0.00    -0.025 A 
ATOM     16  C   UNL     1       3.525   1.038   0.094  0.00  0.00    -0.055 A 
ATOM     17  C   UNL     1       4.754   1.630   0.404  0.00  0.00    -0.061 A 
ATOM     18  C   UNL     1       5.921   0.864   0.410  0.00  0.00    -0.062 A 
ATOM     19  C   UNL     1       5.864  -0.496   0.100  0.00  0.00    -0.061 A 
ATOM     20  C   UNL     1       4.639  -1.093  -0.212  0.00  0.00    -0.055 A 
ENDBRANCH  14  15
ENDBRANCH  11  13
ENDBRANCH   3  11
BRANCH   6  21
ATOM     21  O   UNL     1      -5.354   0.937   0.823  0.00  0.00    -0.505 OA
ATOM     22  H   UNL     1      -5.960   0.415   1.312  0.00  0.00    +0.000 HD
ENDBRANCH   6  21
BRANCH   5  23
ATOM     23  C   UNL     1      -4.792  -1.682   1.638  0.00  0.00    +0.157 C 
ATOM     24  O   UNL     1      -4.581  -2.872   1.992  0.00  0.00    -0.295 OA
ENDBRANCH   5  23
BRANCH   4  25
ATOM     25  O   UNL     1      -2.173  -2.703   1.055  0.00  0.00    -0.505 OA
ATOM     26  H   UNL     1      -1.331  -3.066   0.864  0.00  0.00    +0.000 HD
ENDBRANCH   4  25
TORSDOF 8
