REMARK  Name = 
REMARK  8 active torsions:
REMARK  status: ('A' for Active; 'I' for Inactive)
REMARK    1  A    between atoms: C_2  and  C_3
REMARK    2  A    between atoms: C_2  and  C_14
REMARK    3  A    between atoms: C_4  and  O_5
REMARK    4  A    between atoms: C_6  and  C_7
REMARK    5  A    between atoms: C_8  and  O_13
REMARK    6  A    between atoms: C_9  and  C_12
REMARK    7  A    between atoms: C_10  and  O_11
REMARK    8  A    between atoms: C_15  and  C_16
REMARK                            x       y       z     vdW  Elec       q    Type
REMARK                         _______ _______ _______ _____ _____    ______ ____
ROOT
ATOM      1  C   UNL     1      -1.368  -0.497  -0.654  0.00  0.00    +0.105 A 
ATOM      2  C   UNL     1      -2.153  -0.073  -1.748  0.00  0.00    +0.138 A 
ATOM      3  C   UNL     1      -3.379   0.578  -1.523  0.00  0.00    +0.034 A 
ATOM      4  C   UNL     1      -4.185   1.085  -2.693  0.00  0.00    -0.033 C 
ATOM      5  C   UNL     1      -3.805   0.845  -0.209  0.00  0.00    +0.130 A 
ATOM      6  C   UNL     1      -3.062   0.357   0.893  0.00  0.00    +0.034 A 
ATOM      7  C   UNL     1      -1.811  -0.264   0.662  0.00  0.00    +0.138 A 
ATOM      8  C   UNL     1      -3.597   0.498   2.299  0.00  0.00    -0.033 C 
ENDROOT
BRANCH   1  10
ATOM      9  O   UNL     1      -0.073  -2.276  -1.528  0.00  0.00    -0.287 OA
ATOM     10  C   UNL     1      -0.084  -1.195  -0.876  0.00  0.00    +0.193 C 
BRANCH  10  11
ATOM     11  C   UNL     1       1.172  -0.629  -0.342  0.00  0.00    -0.014 C 
ATOM     12  C   UNL     1       2.347  -1.263  -0.458  0.00  0.00    -0.051 C 
BRANCH  12  13
ATOM     13  C   UNL     1       3.626  -0.732   0.074  0.00  0.00    -0.025 A 
ATOM     14  C   UNL     1       3.830   0.640   0.332  0.00  0.00    -0.055 A 
ATOM     15  C   UNL     1       5.059   1.092   0.823  0.00  0.00    -0.061 A 
ATOM     16  C   UNL     1       6.098   0.189   1.054  0.00  0.00    -0.062 A 
ATOM     17  C   UNL     1       5.913  -1.169   0.788  0.00  0.00    -0.061 A 
ATOM     18  C   UNL     1       4.687  -1.627   0.296  0.00  0.00    -0.055 A 
ENDBRANCH  12  13
ENDBRANCH  10  11
ENDBRANCH   1  10
BRANCH   2  19
ATOM     19  O   UNL     1      -1.718  -0.254  -3.066  0.00  0.00    -0.506 OA
ATOM     20  H   UNL     1      -0.903  -0.685  -3.235  0.00  0.00    +0.000 HD
ENDBRANCH   2  19
BRANCH   7  21
ATOM     21  O   UNL     1      -0.985  -0.662   1.720  0.00  0.00    -0.506 OA
ATOM     22  H   UNL     1      -1.256  -0.519   2.606  0.00  0.00    +0.000 HD
ENDBRANCH   7  21
BRANCH   5  23
ATOM     23  O   UNL     1      -4.961   1.614  -0.029  0.00  0.00    -0.506 OA
ATOM     24  H   UNL     1      -5.436   1.926  -0.774  0.00  0.00    +0.000 HD
ENDBRANCH   5  23
TORSDOF 6
