REMARK  Name = 
REMARK  8 active torsions:
REMARK  status: ('A' for Active; 'I' for Inactive)
REMARK    1  A    between atoms: C_1  and  C_2
REMARK    2  A    between atoms: C_3  and  C_4
REMARK    3  A    between atoms: C_4  and  C_5
REMARK    4  A    between atoms: C_4  and  C_19
REMARK    5  A    between atoms: C_4  and  C_20
REMARK    6  A    between atoms: C_11  and  C_12
REMARK    7  A    between atoms: C_13  and  C_14
REMARK    8  A    between atoms: C_14  and  C_16
REMARK                            x       y       z     vdW  Elec       q    Type
REMARK                         _______ _______ _______ _____ _____    ______ ____
ROOT
ATOM      1  C   UNL     1      -1.551  -0.213   0.598  0.00  0.00    -0.013 A 
ATOM      2  C   UNL     1      -2.090  -1.056   1.579  0.00  0.00    +0.007 A 
ATOM      3  N   UNL     1      -1.140  -1.851   2.112  0.00  0.00    -0.360 N 
ATOM      4  C   UNL     1       0.008  -1.519   1.504  0.00  0.00    +0.047 A 
ATOM      5  C   UNL     1      -0.188  -0.519   0.584  0.00  0.00    +0.004 A 
ATOM      6  C   UNL     1       0.889   0.018  -0.130  0.00  0.00    -0.045 A 
ATOM      7  C   UNL     1       2.184  -0.500   0.097  0.00  0.00    -0.024 A 
ATOM      8  C   UNL     1       2.358  -1.557   1.031  0.00  0.00    -0.053 A 
ATOM      9  C   UNL     1       1.264  -2.064   1.749  0.00  0.00    -0.037 A 
ATOM     10  H   UNL     1      -1.264  -2.538   2.806  0.00  0.00    +0.000 HD
ENDROOT
BRANCH   1  11
ATOM     11  C   UNL     1      -2.305   0.856  -0.201  0.00  0.00    +0.010 C 
ATOM     12  C   UNL     1      -1.820   2.248   0.248  0.00  0.00    -0.052 C 
ATOM     13  C   UNL     1      -2.061   0.691  -1.719  0.00  0.00    -0.052 C 
BRANCH  11  16
ATOM     14  C   UNL     1      -6.030  -0.312  -0.051  0.00  0.00    -0.047 C 
ATOM     15  C   UNL     1      -4.558  -0.276  -0.321  0.00  0.00    -0.090 C 
ATOM     16  C   UNL     1      -3.810   0.775   0.058  0.00  0.00    -0.078 C 
ENDBRANCH  11  16
ENDBRANCH   1  11
BRANCH   7  17
ATOM     17  C   UNL     1       3.316   0.067  -0.678  0.00  0.00    -0.051 C 
ATOM     18  C   UNL     1       4.597  -0.016  -0.293  0.00  0.00    -0.019 C 
BRANCH  18  19
ATOM     19  C   UNL     1       5.696   0.570  -1.085  0.00  0.00    +0.153 C 
ATOM     20  O   UNL     1       5.464   1.154  -2.179  0.00  0.00    -0.293 OA
ATOM     21  C   UNL     1       7.102   0.467  -0.589  0.00  0.00    -0.002 C 
ENDBRANCH  18  19
ENDBRANCH   7  17
TORSDOF 4
