REMARK  Name = 
REMARK  13 active torsions:
REMARK  status: ('A' for Active; 'I' for Inactive)
REMARK    1  A    between atoms: C_1  and  C_2
REMARK    2  A    between atoms: C_2  and  O_4
REMARK    3  A    between atoms: O_4  and  C_5
REMARK    4  A    between atoms: C_5  and  C_6
REMARK    5  A    between atoms: C_6  and  C_7
REMARK    6  A    between atoms: C_6  and  C_11
REMARK    7  A    between atoms: C_7  and  O_8
REMARK    8  A    between atoms: C_7  and  C_9
REMARK    9  A    between atoms: C_7  and  C_10
REMARK   10  A    between atoms: C_17  and  C_20
REMARK   11  A    between atoms: C_20  and  C_21
REMARK   12  A    between atoms: C_23  and  C_24
REMARK   13  A    between atoms: C_23  and  C_25
REMARK                            x       y       z     vdW  Elec       q    Type
REMARK                         _______ _______ _______ _____ _____    ______ ____
ROOT
ATOM      1  C   UNL     1      -1.106   0.197   1.349  0.00  0.00    -0.013 A 
ATOM      2  C   UNL     1      -1.254   0.956   2.511  0.00  0.00    +0.006 A 
ATOM      3  N   UNL     1      -0.466   2.053   2.466  0.00  0.00    -0.360 N 
ATOM      4  C   UNL     1       0.168   2.007   1.283  0.00  0.00    +0.047 A 
ATOM      5  C   UNL     1      -0.199   0.895   0.570  0.00  0.00    +0.004 A 
ATOM      6  C   UNL     1       0.296   0.652  -0.712  0.00  0.00    -0.049 A 
ATOM      7  C   UNL     1       1.213   1.576  -1.259  0.00  0.00    -0.044 A 
ATOM      8  C   UNL     1       1.591   2.720  -0.511  0.00  0.00    -0.057 A 
ATOM      9  C   UNL     1       1.062   2.944   0.772  0.00  0.00    -0.038 A 
ATOM     10  H   UNL     1      -0.375   2.745   3.160  0.00  0.00    +0.000 HD
ENDROOT
BRANCH   1  11
ATOM     11  C   UNL     1      -1.870  -1.058   0.967  0.00  0.00    +0.049 C 
BRANCH  11  12
ATOM     12  C   UNL     1      -1.763  -2.179   2.060  0.00  0.00    +0.070 C 
ATOM     13  C   UNL     1      -0.277  -2.446   2.401  0.00  0.00    -0.036 C 
ATOM     14  C   UNL     1      -2.385  -3.500   1.550  0.00  0.00    -0.036 C 
BRANCH  12  15
ATOM     15  O   UNL     1      -2.446  -1.764   3.220  0.00  0.00    -0.388 OA
ATOM     16  H   UNL     1      -2.060  -0.935   3.544  0.00  0.00    +0.000 HD
ENDBRANCH  12  15
ENDBRANCH  11  12
BRANCH  11  17
ATOM     17  C   UNL     1      -3.327  -0.684   0.609  0.00  0.00    +0.102 C 
BRANCH  17  18
ATOM     18  O   UNL     1      -3.355   0.230  -0.489  0.00  0.00    -0.464 OA
BRANCH  18  20
ATOM     19  C   UNL     1      -3.206   2.484  -1.550  0.00  0.00    +0.033 C 
ATOM     20  C   UNL     1      -3.389   1.622  -0.348  0.00  0.00    +0.304 C 
ATOM     21  O   UNL     1      -3.611   2.155   0.773  0.00  0.00    -0.251 OA
ENDBRANCH  18  20
ENDBRANCH  17  18
ENDBRANCH  11  17
ENDBRANCH   1  11
BRANCH   7  22
ATOM     22  C   UNL     1       1.801   1.342  -2.624  0.00  0.00    +0.001 C 
BRANCH  22  23
ATOM     23  C   UNL     1       3.292   0.998  -2.514  0.00  0.00    +0.092 C 
ATOM     24  O   UNL     1       3.684   0.066  -3.503  0.00  0.00    -0.365 OA
ATOM     25  C   UNL     1       3.727  -0.387  -2.168  0.00  0.00    +0.091 C 
ATOM     26  C   UNL     1       2.719  -1.508  -1.898  0.00  0.00    -0.034 C 
ATOM     27  C   UNL     1       5.159  -0.565  -1.665  0.00  0.00    -0.034 C 
ENDBRANCH  22  23
ENDBRANCH   7  22
TORSDOF 8
