REMARK  Name = 
REMARK  4 active torsions:
REMARK  status: ('A' for Active; 'I' for Inactive)
REMARK    1  A    between atoms: C_1  and  C_2
REMARK    2  A    between atoms: C_2  and  C_14
REMARK    3  A    between atoms: C_3  and  C_4
REMARK    4  A    between atoms: C_4  and  C_5
REMARK                            x       y       z     vdW  Elec       q    Type
REMARK                         _______ _______ _______ _____ _____    ______ ____
ROOT
ATOM      1  C   UNL     1       0.114  -1.123   0.201  0.00  0.00    -0.043 A 
ATOM      2  C   UNL     1       0.663  -0.952   1.499  0.00  0.00    -0.056 A 
ATOM      3  C   UNL     1       1.971  -0.463   1.667  0.00  0.00    -0.038 A 
ATOM      4  C   UNL     1       2.706  -0.163   0.522  0.00  0.00    +0.046 A 
ATOM      5  C   UNL     1       2.186  -0.334  -0.732  0.00  0.00    -0.000 A 
ATOM      6  C   UNL     1       0.896  -0.816  -0.936  0.00  0.00    -0.049 A 
ATOM      7  C   UNL     1       3.155   0.046  -1.635  0.00  0.00    -0.037 A 
ATOM      8  C   UNL     1       4.241   0.439  -0.859  0.00  0.00    +0.003 A 
ATOM      9  N   UNL     1       3.961   0.310   0.458  0.00  0.00    -0.361 N 
ATOM     10  H   UNL     1       4.556   0.519   1.215  0.00  0.00    +0.000 HD
ENDROOT
BRANCH   1  11
ATOM     11  C   UNL     1      -1.285  -1.655   0.031  0.00  0.00    -0.009 C 
BRANCH  11  14
ATOM     12  C   UNL     1      -3.548   1.338  -1.005  0.00  0.00    -0.044 C 
ATOM     13  C   UNL     1      -2.674   0.454  -0.152  0.00  0.00    -0.079 C 
ATOM     14  C   UNL     1      -2.167  -0.672  -0.700  0.00  0.00    -0.081 C 
ATOM     15  C   UNL     1      -2.395   0.843   1.280  0.00  0.00    -0.044 C 
ENDBRANCH  11  14
ENDBRANCH   1  11
TORSDOF 2
