REMARK  Name = 
REMARK  4 active torsions:
REMARK  status: ('A' for Active; 'I' for Inactive)
REMARK    1  A    between atoms: C_1  and  C_2
REMARK    2  A    between atoms: C_9  and  C_17
REMARK    3  A    between atoms: C_12  and  C_15
REMARK    4  A    between atoms: C_12  and  C_16
REMARK                            x       y       z     vdW  Elec       q    Type
REMARK                         _______ _______ _______ _____ _____    ______ ____
ROOT
ATOM      1  C   UNL     1      -4.736   1.762   0.300  0.00  0.00    -0.033 C 
ATOM      2  C   UNL     1      -3.336   1.207   0.174  0.00  0.00    +0.035 C 
ATOM      3  C   UNL     1      -2.259   1.992   0.401  0.00  0.00    +0.137 C 
ATOM      4  O   UNL     1      -2.413   3.334   0.773  0.00  0.00    -0.506 OA
ATOM      5  C   UNL     1      -0.877   1.452   0.255  0.00  0.00    +0.102 A 
ATOM      6  C   UNL     1       0.261   2.280   0.362  0.00  0.00    +0.196 A 
ATOM      7  O   UNL     1       0.154   3.517   0.578  0.00  0.00    -0.287 OA
ATOM      8  C   UNL     1       1.535   1.732   0.228  0.00  0.00    +0.029 A 
ATOM      9  C   UNL     1       1.668   0.359  -0.016  0.00  0.00    +0.139 A 
ATOM     10  O   UNL     1       0.576  -0.393  -0.104  0.00  0.00    -0.458 OA
ATOM     11  C   UNL     1      -0.665   0.079   0.009  0.00  0.00    +0.133 A 
ATOM     12  C   UNL     1      -1.812  -0.909  -0.092  0.00  0.00    +0.086 C 
ATOM     13  C   UNL     1      -3.155  -0.214  -0.214  0.00  0.00    +0.175 C 
ATOM     14  O   UNL     1      -4.156  -0.884  -0.590  0.00  0.00    -0.291 OA
ATOM     15  C   UNL     1      -1.823  -1.775   1.180  0.00  0.00    -0.046 C 
ATOM     16  C   UNL     1      -1.588  -1.810  -1.327  0.00  0.00    -0.046 C 
ENDROOT
BRANCH   9  17
ATOM     17  C   UNL     1       2.994  -0.291  -0.163  0.00  0.00    +0.017 A 
ATOM     18  C   UNL     1       4.123   0.419  -0.622  0.00  0.00    -0.051 A 
ATOM     19  C   UNL     1       5.356  -0.225  -0.760  0.00  0.00    -0.061 A 
ATOM     20  C   UNL     1       5.479  -1.581  -0.450  0.00  0.00    -0.062 A 
ATOM     21  C   UNL     1       4.366  -2.299  -0.007  0.00  0.00    -0.061 A 
ATOM     22  C   UNL     1       3.130  -1.661   0.132  0.00  0.00    -0.051 A 
ENDBRANCH   9  17
TORSDOF 1
