REMARK  Name = 
REMARK  8 active torsions:
REMARK  status: ('A' for Active; 'I' for Inactive)
REMARK    1  A    between atoms: C_1  and  O_2
REMARK    2  A    between atoms: O_2  and  C_3
REMARK    3  A    between atoms: C_8  and  C_10
REMARK    4  A    between atoms: C_11  and  C_12
REMARK    5  A    between atoms: C_19  and  C_20
REMARK    6  A    between atoms: C_21  and  C_22
REMARK    7  A    between atoms: C_32  and  O_33
REMARK    8  A    between atoms: O_33  and  C_34
REMARK                            x       y       z     vdW  Elec       q    Type
REMARK                         _______ _______ _______ _____ _____    ______ ____
ROOT
ATOM      1  C   UNL     1      -0.744  -0.198  -0.981  0.00  0.00    +0.069 C 
ATOM      2  C   UNL     1      -1.357  -1.117   0.098  0.00  0.00    +0.012 C 
ATOM      3  C   UNL     1       0.034  -1.304   0.734  0.00  0.00    +0.069 C 
ATOM      4  C   UNL     1       0.668  -0.439  -0.384  0.00  0.00    +0.153 C 
ATOM      5  O   UNL     1       1.488  -1.158  -1.310  0.00  0.00    -0.449 OA
ATOM      6  C   UNL     1       1.964  -2.446  -1.075  0.00  0.00    +0.336 C 
ATOM      7  O   UNL     1       2.810  -2.948  -1.859  0.00  0.00    -0.245 OA
ATOM      8  C   UNL     1       1.452  -3.232   0.046  0.00  0.00    +0.060 C 
ATOM      9  C   UNL     1       0.526  -2.728   0.875  0.00  0.00    +0.112 C 
ENDROOT
BRANCH   1  15
ATOM     10  C   UNL     1      -1.960   3.265  -1.994  0.00  0.00    +0.130 A 
ATOM     11  C   UNL     1      -2.145   3.833  -0.724  0.00  0.00    +0.065 A 
ATOM     12  C   UNL     1      -1.874   3.059   0.408  0.00  0.00    +0.340 A 
ATOM     13  O   UNL     1      -2.030   3.548   1.557  0.00  0.00    -0.245 OA
ATOM     14  O   UNL     1      -1.449   1.807   0.279  0.00  0.00    -0.427 OA
ATOM     15  C   UNL     1      -1.262   1.225  -0.906  0.00  0.00    +0.120 A 
ATOM     16  C   UNL     1      -1.512   1.946  -2.082  0.00  0.00    +0.019 A 
BRANCH  10  18
ATOM     17  C   UNL     1      -2.661   5.320  -3.232  0.00  0.00    +0.079 C 
ATOM     18  O   UNL     1      -2.206   3.972  -3.180  0.00  0.00    -0.495 OA
ENDBRANCH  10  18
ENDBRANCH   1  15
BRANCH   2  19
ATOM     19  C   UNL     1      -2.048  -2.378  -0.416  0.00  0.00    -0.043 A 
ATOM     20  C   UNL     1      -1.548  -3.136  -1.497  0.00  0.00    -0.058 A 
ATOM     21  C   UNL     1      -2.193  -4.309  -1.899  0.00  0.00    -0.061 A 
ATOM     22  C   UNL     1      -3.337  -4.746  -1.229  0.00  0.00    -0.062 A 
ATOM     23  C   UNL     1      -3.836  -4.013  -0.151  0.00  0.00    -0.061 A 
ATOM     24  C   UNL     1      -3.195  -2.840   0.256  0.00  0.00    -0.058 A 
ENDBRANCH   2  19
BRANCH   4  25
ATOM     25  C   UNL     1       1.417   0.772   0.131  0.00  0.00    -0.039 C 
ATOM     26  C   UNL     1       2.424   0.642   1.004  0.00  0.00    -0.055 C 
BRANCH  26  27
ATOM     27  C   UNL     1       3.219   1.784   1.514  0.00  0.00    -0.025 A 
ATOM     28  C   UNL     1       2.724   3.105   1.524  0.00  0.00    -0.055 A 
ATOM     29  C   UNL     1       3.506   4.148   2.029  0.00  0.00    -0.061 A 
ATOM     30  C   UNL     1       4.780   3.887   2.537  0.00  0.00    -0.062 A 
ATOM     31  C   UNL     1       5.273   2.581   2.548  0.00  0.00    -0.061 A 
ATOM     32  C   UNL     1       4.496   1.533   2.045  0.00  0.00    -0.055 A 
ENDBRANCH  26  27
ENDBRANCH   4  25
BRANCH   9  33
ATOM     33  O   UNL     1      -0.036  -3.489   1.913  0.00  0.00    -0.499 OA
ATOM     34  C   UNL     1       0.226  -4.869   2.151  0.00  0.00    +0.078 C 
ENDBRANCH   9  33
TORSDOF 6
