REMARK  Name = 
REMARK  6 active torsions:
REMARK  status: ('A' for Active; 'I' for Inactive)
REMARK    1  A    between atoms: C_1  and  O_2
REMARK    2  A    between atoms: O_2  and  C_3
REMARK    3  A    between atoms: C_4  and  C_5
REMARK    4  A    between atoms: C_8  and  C_22
REMARK    5  A    between atoms: C_8  and  C_23
REMARK    6  A    between atoms: C_14  and  C_16
REMARK                            x       y       z     vdW  Elec       q    Type
REMARK                         _______ _______ _______ _____ _____    ______ ____
ROOT
ATOM      1  C   UNL     1      -2.452   0.615   0.993  0.00  0.00    +0.140 C 
ATOM      2  C   UNL     1      -3.220  -0.432   0.640  0.00  0.00    +0.035 C 
ATOM      3  C   UNL     1      -4.706  -0.405   0.901  0.00  0.00    -0.033 C 
ATOM      4  C   UNL     1      -2.631  -1.573  -0.101  0.00  0.00    +0.175 C 
ATOM      5  O   UNL     1      -3.344  -2.587  -0.338  0.00  0.00    -0.291 OA
ATOM      6  C   UNL     1      -1.225  -1.507  -0.673  0.00  0.00    +0.086 C 
ATOM      7  C   UNL     1      -0.392  -0.427  -0.005  0.00  0.00    +0.133 A 
ATOM      8  C   UNL     1      -0.978   0.588   0.781  0.00  0.00    +0.103 A 
ATOM      9  C   UNL     1      -0.122   1.545   1.363  0.00  0.00    +0.196 A 
ATOM     10  O   UNL     1      -0.569   2.453   2.113  0.00  0.00    -0.287 OA
ATOM     11  C   UNL     1       1.249   1.488   1.119  0.00  0.00    +0.029 A 
ATOM     12  C   UNL     1       1.759   0.464   0.310  0.00  0.00    +0.139 A 
ATOM     13  O   UNL     1       0.924  -0.431  -0.210  0.00  0.00    -0.458 OA
ATOM     14  C   UNL     1      -0.529  -2.872  -0.476  0.00  0.00    -0.046 C 
ATOM     15  C   UNL     1      -1.321  -1.189  -2.175  0.00  0.00    -0.046 C 
ENDROOT
BRANCH  12  16
ATOM     16  C   UNL     1       3.207   0.349   0.003  0.00  0.00    +0.017 A 
ATOM     17  C   UNL     1       3.614  -0.300  -1.177  0.00  0.00    -0.051 A 
ATOM     18  C   UNL     1       4.971  -0.430  -1.486  0.00  0.00    -0.061 A 
ATOM     19  C   UNL     1       5.939   0.079  -0.617  0.00  0.00    -0.062 A 
ATOM     20  C   UNL     1       5.551   0.713   0.565  0.00  0.00    -0.061 A 
ATOM     21  C   UNL     1       4.194   0.846   0.879  0.00  0.00    -0.051 A 
ENDBRANCH  12  16
BRANCH   1  23
ATOM     22  C   UNL     1      -3.376   2.883   0.797  0.00  0.00    +0.079 C 
ATOM     23  O   UNL     1      -3.052   1.737   1.573  0.00  0.00    -0.494 OA
ENDBRANCH   1  23
TORSDOF 2
