REMARK  Name = 
REMARK  6 active torsions:
REMARK  status: ('A' for Active; 'I' for Inactive)
REMARK    1  A    between atoms: O_1  and  C_2
REMARK    2  A    between atoms: C_6  and  O_7
REMARK    3  A    between atoms: C_6  and  C_14
REMARK    4  A    between atoms: C_11  and  O_13
REMARK    5  A    between atoms: C_17  and  O_21
REMARK    6  A    between atoms: C_18  and  O_20
REMARK                            x       y       z     vdW  Elec       q    Type
REMARK                         _______ _______ _______ _____ _____    ______ ____
ROOT
ATOM      1  C   UNL     1      -4.020   1.637  -0.524  0.00  0.00    +0.124 A 
ATOM      2  C   UNL     1      -2.647   1.673  -0.772  0.00  0.00    +0.022 A 
ATOM      3  C   UNL     1      -1.825   0.626  -0.347  0.00  0.00    +0.135 A 
ATOM      4  O   UNL     1      -0.454   0.683  -0.626  0.00  0.00    -0.457 OA
ATOM      5  C   UNL     1       0.420  -0.428  -0.420  0.00  0.00    +0.237 C 
ATOM      6  C   UNL     1       0.015  -1.137   0.893  0.00  0.00    +0.022 C 
ATOM      7  C   UNL     1      -1.457  -1.570   0.850  0.00  0.00    -0.014 C 
ATOM      8  C   UNL     1      -2.370  -0.462   0.369  0.00  0.00    +0.036 A 
ATOM      9  C   UNL     1      -3.768  -0.515   0.582  0.00  0.00    +0.127 A 
ATOM     10  C   UNL     1      -4.577   0.542   0.147  0.00  0.00    +0.022 A 
ENDROOT
BRANCH   5  11
ATOM     11  C   UNL     1       1.851   0.083  -0.307  0.00  0.00    +0.027 A 
ATOM     12  C   UNL     1       2.110   1.297   0.360  0.00  0.00    -0.049 A 
ATOM     13  C   UNL     1       3.418   1.762   0.512  0.00  0.00    -0.016 A 
ATOM     14  C   UNL     1       4.494   1.017   0.017  0.00  0.00    +0.158 A 
ATOM     15  C   UNL     1       4.258  -0.203  -0.626  0.00  0.00    +0.159 A 
ATOM     16  C   UNL     1       2.944  -0.671  -0.780  0.00  0.00    -0.007 A 
BRANCH  15  17
ATOM     17  O   UNL     1       5.333  -0.948  -1.108  0.00  0.00    -0.503 OA
ATOM     18  H   UNL     1       6.208  -0.630  -1.003  0.00  0.00    +0.000 HD
ENDBRANCH  15  17
BRANCH  14  19
ATOM     19  O   UNL     1       5.801   1.479   0.165  0.00  0.00    -0.503 OA
ATOM     20  H   UNL     1       5.963   2.295   0.595  0.00  0.00    +0.000 HD
ENDBRANCH  14  19
ENDBRANCH   5  11
BRANCH   1  21
ATOM     21  O   UNL     1      -4.824   2.689  -0.956  0.00  0.00    -0.507 OA
ATOM     22  H   UNL     1      -4.442   3.418  -1.404  0.00  0.00    +0.000 HD
ENDBRANCH   1  21
BRANCH   5  23
ATOM     23  O   UNL     1       0.283  -1.287  -1.532  0.00  0.00    -0.352 OA
ATOM     24  H   UNL     1      -0.633  -1.601  -1.587  0.00  0.00    +0.000 HD
ENDBRANCH   5  23
BRANCH   9  25
ATOM     25  O   UNL     1      -4.385  -1.599   1.210  0.00  0.00    -0.506 OA
ATOM     26  H   UNL     1      -3.870  -2.321   1.512  0.00  0.00    +0.000 HD
ENDBRANCH   9  25
TORSDOF 6
