REMARK  Name = 
REMARK  11 active torsions:
REMARK  status: ('A' for Active; 'I' for Inactive)
REMARK    1  A    between atoms: O_1  and  C_2
REMARK    2  A    between atoms: C_5  and  C_31
REMARK    3  A    between atoms: C_14  and  C_28
REMARK    4  A    between atoms: C_18  and  C_19
REMARK    5  A    between atoms: C_19  and  C_20
REMARK    6  A    between atoms: C_19  and  C_27
REMARK    7  A    between atoms: C_21  and  C_22
REMARK    8  A    between atoms: C_22  and  C_23
REMARK    9  A    between atoms: C_22  and  C_26
REMARK   10  A    between atoms: C_23  and  C_24
REMARK   11  A    between atoms: C_23  and  C_25
REMARK                            x       y       z     vdW  Elec       q    Type
REMARK                         _______ _______ _______ _____ _____    ______ ____
ROOT
ATOM      1  C   UNL     1       6.662   0.503  -1.148  0.00  0.00    +0.058 C 
ATOM      2  C   UNL     1       6.393   0.237   0.341  0.00  0.00    -0.026 C 
ATOM      3  C   UNL     1       5.209   1.063   0.876  0.00  0.00    -0.042 C 
ATOM      4  C   UNL     1       3.933   1.063  -0.055  0.00  0.00    +0.010 C 
ATOM      5  C   UNL     1       4.106   0.048  -1.252  0.00  0.00    +0.131 C 
ATOM      6  C   UNL     1       5.417   0.261  -2.042  0.00  0.00    +0.010 C 
ATOM      7  O   UNL     1       4.087  -1.276  -0.697  0.00  0.00    -0.222 OA
ATOM      8  O   UNL     1       2.889  -1.649  -0.171  0.00  0.00    -0.223 OA
ATOM      9  C   UNL     1       1.944  -0.580  -0.097  0.00  0.00    +0.129 C 
ATOM     10  C   UNL     1       2.643   0.556   0.736  0.00  0.00    +0.003 C 
ATOM     11  C   UNL     1       1.664   1.653   1.258  0.00  0.00    -0.046 C 
ATOM     12  C   UNL     1       0.426   1.056   1.973  0.00  0.00    -0.047 C 
ATOM     13  C   UNL     1      -0.317   0.047   1.061  0.00  0.00    -0.023 C 
ATOM     14  C   UNL     1       0.683  -1.053   0.655  0.00  0.00    +0.001 C 
ATOM     15  C   UNL     1      -0.163  -2.193   0.102  0.00  0.00    -0.046 C 
ATOM     16  C   UNL     1      -1.470  -2.116   0.917  0.00  0.00    -0.049 C 
ATOM     17  C   UNL     1      -1.371  -0.834   1.787  0.00  0.00    -0.029 C 
ATOM     18  C   UNL     1      -0.967   0.798  -0.138  0.00  0.00    -0.059 C 
ATOM     19  C   UNL     1       1.741  -0.146  -1.533  0.00  0.00    -0.050 C 
ATOM     20  C   UNL     1       2.886   0.147  -2.155  0.00  0.00    -0.050 C 
ATOM     21  C   UNL     1       3.754   2.511  -0.607  0.00  0.00    -0.056 C 
ENDROOT
BRANCH   1  22
ATOM     22  O   UNL     1       7.120   1.824  -1.298  0.00  0.00    -0.392 OA
ATOM     23  H   UNL     1       7.898   1.962  -0.734  0.00  0.00    +0.000 HD
ENDBRANCH   1  22
BRANCH  17  24
ATOM     24  C   UNL     1      -2.710  -0.161   2.234  0.00  0.00    -0.022 C 
ATOM     25  C   UNL     1      -3.350  -0.922   3.410  0.00  0.00    -0.059 C 
BRANCH  24  26
ATOM     26  C   UNL     1      -3.737   0.111   1.143  0.00  0.00    -0.085 C 
ATOM     27  C   UNL     1      -4.571  -0.822   0.642  0.00  0.00    -0.085 C 
BRANCH  27  28
ATOM     28  C   UNL     1      -5.721  -0.461  -0.280  0.00  0.00    -0.023 C 
ATOM     29  C   UNL     1      -6.804  -1.548  -0.200  0.00  0.00    -0.059 C 
BRANCH  28  30
ATOM     30  C   UNL     1      -5.290  -0.205  -1.756  0.00  0.00    -0.041 C 
ATOM     31  C   UNL     1      -4.353  -1.288  -2.321  0.00  0.00    -0.062 C 
ATOM     32  C   UNL     1      -4.664   1.186  -1.942  0.00  0.00    -0.062 C 
ENDBRANCH  28  30
ENDBRANCH  27  28
ENDBRANCH  24  26
ENDBRANCH  17  24
TORSDOF 5
