REMARK  Name = 
REMARK  4 active torsions:
REMARK  status: ('A' for Active; 'I' for Inactive)
REMARK    1  A    between atoms: C_1  and  C_2
REMARK    2  A    between atoms: C_2  and  C_14
REMARK    3  A    between atoms: C_3  and  C_4
REMARK    4  A    between atoms: C_4  and  C_5
REMARK                            x       y       z     vdW  Elec       q    Type
REMARK                         _______ _______ _______ _____ _____    ______ ____
ROOT
ATOM      1  C   UNL     1       0.283   0.488   0.888  0.00  0.00    -0.042 A 
ATOM      2  C   UNL     1       1.031  -0.583   1.444  0.00  0.00    -0.058 A 
ATOM      3  C   UNL     1       2.279  -0.943   0.905  0.00  0.00    -0.052 A 
ATOM      4  C   UNL     1       2.754  -0.211  -0.180  0.00  0.00    -0.000 A 
ATOM      5  C   UNL     1       2.045   0.829  -0.716  0.00  0.00    +0.047 A 
ATOM      6  C   UNL     1       0.806   1.213  -0.207  0.00  0.00    -0.034 A 
ATOM      7  N   UNL     1       2.708   1.376  -1.748  0.00  0.00    -0.361 N 
ATOM      8  C   UNL     1       3.856   0.669  -1.866  0.00  0.00    +0.003 A 
ATOM      9  C   UNL     1       3.921  -0.332  -0.903  0.00  0.00    -0.037 A 
ATOM     10  H   UNL     1       2.418   2.135  -2.304  0.00  0.00    +0.000 HD
ENDROOT
BRANCH   1  11
ATOM     11  C   UNL     1      -1.049   0.866   1.481  0.00  0.00    -0.009 C 
BRANCH  11  14
ATOM     12  C   UNL     1      -2.427   0.041  -1.059  0.00  0.00    -0.044 C 
ATOM     13  C   UNL     1      -2.665  -0.654   0.260  0.00  0.00    -0.079 C 
ATOM     14  C   UNL     1      -2.037  -0.272   1.394  0.00  0.00    -0.081 C 
ATOM     15  C   UNL     1      -3.634  -1.806   0.329  0.00  0.00    -0.044 C 
ENDBRANCH  11  14
ENDBRANCH   1  11
TORSDOF 2
