REMARK  Name = 
REMARK  4 active torsions:
REMARK  status: ('A' for Active; 'I' for Inactive)
REMARK    1  A    between atoms: C_8  and  C_11
REMARK    2  A    between atoms: C_12  and  C_13
REMARK    3  A    between atoms: C_13  and  C_14
REMARK    4  A    between atoms: C_13  and  C_15
REMARK                            x       y       z     vdW  Elec       q    Type
REMARK                         _______ _______ _______ _____ _____    ______ ____
ROOT
ATOM      1  O   UNL     1       6.122  -1.183  -0.417  0.00  0.00    -0.275 OA
ATOM      2  C   UNL     1       4.947  -0.749  -0.290  0.00  0.00    +0.222 C 
ATOM      3  C   UNL     1       4.586   0.497   0.464  0.00  0.00    +0.051 C 
ATOM      4  C   UNL     1       3.104   0.491   0.269  0.00  0.00    -0.017 A 
ATOM      5  C   UNL     1       2.715  -0.597  -0.481  0.00  0.00    +0.038 A 
ATOM      6  N   UNL     1       3.816  -1.402  -0.856  0.00  0.00    -0.285 N 
ATOM      7  C   UNL     1       1.378  -0.822  -0.805  0.00  0.00    -0.033 A 
ATOM      8  C   UNL     1       0.403   0.086  -0.340  0.00  0.00    -0.024 A 
ATOM      9  C   UNL     1       0.814   1.214   0.421  0.00  0.00    -0.054 A 
ATOM     10  C   UNL     1       2.170   1.415   0.730  0.00  0.00    -0.056 A 
ATOM     11  H   UNL     1       3.803  -2.230  -1.390  0.00  0.00    +0.000 HD
ENDROOT
BRANCH   8  12
ATOM     12  C   UNL     1      -1.015  -0.159  -0.698  0.00  0.00    -0.058 C 
ATOM     13  C   UNL     1      -2.055   0.362  -0.033  0.00  0.00    -0.081 C 
BRANCH  13  14
ATOM     14  C   UNL     1      -3.475   0.064  -0.449  0.00  0.00    -0.028 C 
ATOM     15  C   UNL     1      -3.853  -1.376  -0.082  0.00  0.00    -0.059 C 
ATOM     16  C   UNL     1      -4.446   1.053   0.207  0.00  0.00    -0.059 C 
ENDBRANCH  13  14
ENDBRANCH   8  12
TORSDOF 2
