REMARK  Name = 
REMARK  3 active torsions:
REMARK  status: ('A' for Active; 'I' for Inactive)
REMARK    1  A    between atoms: C_1  and  C_2
REMARK    2  A    between atoms: C_2  and  C_4
REMARK    3  A    between atoms: C_5  and  C_6
REMARK                            x       y       z     vdW  Elec       q    Type
REMARK                         _______ _______ _______ _____ _____    ______ ____
ROOT
ATOM      1  C   UNL     1      -0.294   0.033   0.075  0.00  0.00    -0.023 A 
ATOM      2  C   UNL     1      -0.700   1.341   0.465  0.00  0.00    -0.054 A 
ATOM      3  C   UNL     1      -2.063   1.688   0.506  0.00  0.00    -0.052 A 
ATOM      4  C   UNL     1      -2.994   0.714   0.165  0.00  0.00    -0.000 A 
ATOM      5  C   UNL     1      -2.617  -0.550  -0.196  0.00  0.00    +0.047 A 
ATOM      6  C   UNL     1      -1.278  -0.930  -0.248  0.00  0.00    -0.031 A 
ATOM      7  N   UNL     1      -3.692  -1.308  -0.471  0.00  0.00    -0.361 N 
ATOM      8  C   UNL     1      -4.766  -0.509  -0.279  0.00  0.00    +0.003 A 
ATOM      9  C   UNL     1      -4.370   0.763   0.120  0.00  0.00    -0.037 A 
ATOM     10  H   UNL     1      -3.696  -2.251  -0.753  0.00  0.00    +0.000 HD
ENDROOT
BRANCH   1  12
ATOM     11  C   UNL     1       2.146   0.490  -0.116  0.00  0.00    -0.059 C 
ATOM     12  C   UNL     1       1.131  -0.376   0.032  0.00  0.00    -0.054 C 
BRANCH  11  14
ATOM     13  C   UNL     1       3.975  -1.367   0.036  0.00  0.00    -0.040 C 
ATOM     14  C   UNL     1       3.571   0.071  -0.167  0.00  0.00    -0.058 C 
ATOM     15  C   UNL     1       4.510   0.993  -0.408  0.00  0.00    -0.096 C 
ENDBRANCH  11  14
ENDBRANCH   1  12
TORSDOF 2
