REMARK  Name = 
REMARK  3 active torsions:
REMARK  status: ('A' for Active; 'I' for Inactive)
REMARK    1  A    between atoms: C_2  and  C_3
REMARK    2  A    between atoms: C_4  and  C_5
REMARK    3  A    between atoms: C_5  and  C_6
REMARK                            x       y       z     vdW  Elec       q    Type
REMARK                         _______ _______ _______ _____ _____    ______ ____
ROOT
ATOM      1  C   UNL     1       0.220   0.470  -0.925  0.00  0.00    -0.042 A 
ATOM      2  C   UNL     1       0.127   1.599  -0.070  0.00  0.00    -0.058 A 
ATOM      3  C   UNL     1      -1.008   1.796   0.737  0.00  0.00    -0.052 A 
ATOM      4  C   UNL     1      -2.025   0.848   0.671  0.00  0.00    -0.000 A 
ATOM      5  C   UNL     1      -1.940  -0.248  -0.144  0.00  0.00    +0.047 A 
ATOM      6  C   UNL     1      -0.831  -0.475  -0.956  0.00  0.00    -0.034 A 
ATOM      7  N   UNL     1      -3.037  -1.015  -0.027  0.00  0.00    -0.361 N 
ATOM      8  C   UNL     1      -3.828  -0.393   0.876  0.00  0.00    +0.003 A 
ATOM      9  C   UNL     1      -3.229   0.776   1.336  0.00  0.00    -0.037 A 
ATOM     10  H   UNL     1      -3.226  -1.856  -0.502  0.00  0.00    +0.000 HD
ENDROOT
BRANCH   1  11
ATOM     11  C   UNL     1       1.452   0.250  -1.761  0.00  0.00    -0.009 C 
BRANCH  11  13
ATOM     12  C   UNL     1       3.068  -0.412  -0.007  0.00  0.00    -0.026 C 
ATOM     13  C   UNL     1       2.373  -0.733  -1.100  0.00  0.00    -0.077 C 
BRANCH  12  15
ATOM     14  O   UNL     1       4.611  -1.052   1.663  0.00  0.00    -0.296 OA
ATOM     15  C   UNL     1       3.967  -1.379   0.632  0.00  0.00    +0.143 C 
ENDBRANCH  12  15
ENDBRANCH  11  13
ENDBRANCH   1  11
TORSDOF 3
