REMARK  Name = 
REMARK  8 active torsions:
REMARK  status: ('A' for Active; 'I' for Inactive)
REMARK    1  A    between atoms: C_1  and  O_2
REMARK    2  A    between atoms: O_2  and  C_3
REMARK    3  A    between atoms: C_10  and  C_22
REMARK    4  A    between atoms: C_13  and  O_14
REMARK    5  A    between atoms: C_15  and  O_20
REMARK    6  A    between atoms: C_16  and  O_18
REMARK    7  A    between atoms: O_18  and  C_19
REMARK    8  A    between atoms: O_20  and  C_21
REMARK                            x       y       z     vdW  Elec       q    Type
REMARK                         _______ _______ _______ _____ _____    ______ ____
ROOT
ATOM      1  C   UNL     1      -1.323   2.164  -0.436  0.00  0.00    +0.094 C 
ATOM      2  C   UNL     1       0.170   2.423  -0.674  0.00  0.00    +0.038 C 
ATOM      3  C   UNL     1       0.653   3.835  -1.040  0.00  0.00    +0.099 C 
ATOM      4  O   UNL     1       2.007   3.842  -0.596  0.00  0.00    -0.464 OA
ATOM      5  C   UNL     1       2.216   2.825   0.322  0.00  0.00    +0.312 C 
ATOM      6  O   UNL     1       3.301   2.662   0.938  0.00  0.00    -0.250 OA
ATOM      7  C   UNL     1       0.962   2.080   0.580  0.00  0.00    +0.076 C 
ATOM      8  C   UNL     1       0.978   0.559   0.808  0.00  0.00    +0.023 C 
ATOM      9  C   UNL     1      -0.451   0.014   0.718  0.00  0.00    -0.026 A 
ATOM     10  C   UNL     1      -1.512   0.736   0.090  0.00  0.00    +0.031 A 
ATOM     11  C   UNL     1      -2.787   0.141   0.004  0.00  0.00    +0.168 A 
ATOM     12  C   UNL     1      -3.023  -1.150   0.517  0.00  0.00    +0.204 A 
ATOM     13  C   UNL     1      -1.966  -1.862   1.133  0.00  0.00    +0.165 A 
ATOM     14  C   UNL     1      -0.697  -1.267   1.224  0.00  0.00    -0.012 A 
ENDROOT
BRANCH   8  15
ATOM     15  C   UNL     1       1.937  -0.189  -0.112  0.00  0.00    -0.035 A 
ATOM     16  C   UNL     1       1.529  -0.685  -1.384  0.00  0.00    -0.054 A 
ATOM     17  C   UNL     1       2.437  -1.362  -2.217  0.00  0.00    -0.016 A 
ATOM     18  C   UNL     1       3.738  -1.532  -1.758  0.00  0.00    +0.166 A 
ATOM     19  C   UNL     1       4.138  -1.070  -0.549  0.00  0.00    +0.167 A 
ATOM     20  C   UNL     1       3.273  -0.396   0.307  0.00  0.00    -0.012 A 
ATOM     21  O   UNL     1       5.470  -1.381  -0.355  0.00  0.00    -0.453 OA
ATOM     22  C   UNL     1       5.935  -2.081  -1.516  0.00  0.00    +0.233 C 
ATOM     23  O   UNL     1       4.798  -2.156  -2.387  0.00  0.00    -0.453 OA
ENDBRANCH   8  15
BRANCH   1  25
ATOM     24  C   UNL     1      -2.744   3.978  -0.054  0.00  0.00    +0.037 C 
ATOM     25  O   UNL     1      -1.831   3.074   0.530  0.00  0.00    -0.375 OA
ENDBRANCH   1  25
BRANCH  11  26
ATOM     26  O   UNL     1      -3.825   0.851  -0.606  0.00  0.00    -0.503 OA
ATOM     27  H   UNL     1      -3.669   1.709  -0.947  0.00  0.00    +0.000 HD
ENDBRANCH  11  26
BRANCH  13  28
ATOM     28  O   UNL     1      -2.192  -3.151   1.643  0.00  0.00    -0.491 OA
ATOM     29  C   UNL     1      -1.209  -3.967   2.273  0.00  0.00    +0.079 C 
ENDBRANCH  13  28
BRANCH  12  30
ATOM     30  O   UNL     1      -4.328  -1.663   0.381  0.00  0.00    -0.488 OA
ATOM     31  C   UNL     1      -4.796  -2.933   0.822  0.00  0.00    +0.079 C 
ENDBRANCH  12  30
TORSDOF 5
