REMARK  Name = 
REMARK  7 active torsions:
REMARK  status: ('A' for Active; 'I' for Inactive)
REMARK    1  A    between atoms: C_2  and  C_3
REMARK    2  A    between atoms: C_3  and  C_4
REMARK    3  A    between atoms: C_7  and  C_13
REMARK    4  A    between atoms: C_9  and  C_10
REMARK    5  A    between atoms: C_10  and  C_12
REMARK    6  A    between atoms: C_13  and  C_14
REMARK    7  A    between atoms: C_13  and  C_15
REMARK                            x       y       z     vdW  Elec       q    Type
REMARK                         _______ _______ _______ _____ _____    ______ ____
ROOT
ATOM      1  C   UNL     1      -1.127   0.962  -0.336  0.00  0.00    +0.014 C 
ATOM      2  C   UNL     1      -1.326   0.633  -1.833  0.00  0.00    -0.052 C 
ATOM      3  C   UNL     1       0.094   1.858  -0.231  0.00  0.00    -0.073 C 
ATOM      4  C   UNL     1       1.323   1.344  -0.110  0.00  0.00    -0.062 C 
ATOM      5  C   UNL     1       1.535  -0.119   0.029  0.00  0.00    -0.048 C 
ATOM      6  C   UNL     1       0.483  -0.917   0.279  0.00  0.00    -0.072 C 
ATOM      7  C   UNL     1      -0.893  -0.332   0.523  0.00  0.00    +0.010 C 
ENDROOT
BRANCH   7   8
ATOM      8  C   UNL     1      -2.003  -1.372   0.377  0.00  0.00    -0.072 C 
ATOM      9  C   UNL     1      -2.010  -2.265  -0.629  0.00  0.00    -0.099 C 
ATOM     10  C   UNL     1      -3.136  -1.400   1.369  0.00  0.00    -0.043 C 
ENDBRANCH   7   8
BRANCH   5  11
ATOM     11  C   UNL     1       2.929  -0.706  -0.096  0.00  0.00    -0.022 C 
ATOM     12  C   UNL     1       3.824  -0.234   1.055  0.00  0.00    -0.059 C 
ATOM     13  C   UNL     1       3.550  -0.362  -1.455  0.00  0.00    -0.059 C 
ENDBRANCH   5  11
BRANCH   1  15
ATOM     14  C   UNL     1      -2.412   2.280   1.379  0.00  0.00    -0.102 C 
ATOM     15  C   UNL     1      -2.353   1.715   0.166  0.00  0.00    -0.081 C 
ENDBRANCH   1  15
TORSDOF 3
