REMARK  Name = 
REMARK  8 active torsions:
REMARK  status: ('A' for Active; 'I' for Inactive)
REMARK    1  A    between atoms: C_1  and  O_2
REMARK    2  A    between atoms: O_2  and  C_3
REMARK    3  A    between atoms: C_6  and  C_7
REMARK    4  A    between atoms: C_22  and  O_30
REMARK    5  A    between atoms: C_24  and  O_28
REMARK    6  A    between atoms: C_25  and  O_26
REMARK    7  A    between atoms: O_26  and  C_27
REMARK    8  A    between atoms: O_28  and  C_29
REMARK                            x       y       z     vdW  Elec       q    Type
REMARK                         _______ _______ _______ _____ _____    ______ ____
ROOT
ATOM      1  C   UNL     1      -1.798   1.451  -0.088  0.00  0.00    +0.165 A 
ATOM      2  C   UNL     1      -0.492   0.954  -0.221  0.00  0.00    -0.012 A 
ATOM      3  C   UNL     1      -0.254  -0.419  -0.389  0.00  0.00    -0.026 A 
ATOM      4  C   UNL     1       1.141  -1.021  -0.506  0.00  0.00    +0.023 C 
ATOM      5  C   UNL     1       1.294  -2.078   0.621  0.00  0.00    +0.076 C 
ATOM      6  C   UNL     1       1.077  -1.532   1.996  0.00  0.00    +0.312 C 
ATOM      7  O   UNL     1       1.609  -0.484   2.452  0.00  0.00    -0.250 OA
ATOM      8  O   UNL     1       0.199  -2.284   2.740  0.00  0.00    -0.464 OA
ATOM      9  C   UNL     1      -0.255  -3.412   2.017  0.00  0.00    +0.099 C 
ATOM     10  C   UNL     1       0.185  -3.181   0.547  0.00  0.00    +0.037 C 
ATOM     11  C   UNL     1      -1.033  -2.814  -0.366  0.00  0.00    +0.091 C 
ATOM     12  C   UNL     1      -1.333  -1.319  -0.324  0.00  0.00    +0.031 A 
ATOM     13  C   UNL     1      -2.658  -0.838  -0.252  0.00  0.00    +0.171 A 
ATOM     14  C   UNL     1      -2.894   0.553  -0.098  0.00  0.00    +0.204 A 
ENDROOT
BRANCH   4  15
ATOM     15  C   UNL     1       2.289  -0.027  -0.691  0.00  0.00    -0.035 A 
ATOM     16  C   UNL     1       2.253   0.838  -1.821  0.00  0.00    -0.054 A 
ATOM     17  C   UNL     1       3.288   1.755  -2.070  0.00  0.00    -0.016 A 
ATOM     18  C   UNL     1       4.363   1.771  -1.193  0.00  0.00    +0.166 A 
ATOM     19  C   UNL     1       4.439   0.924  -0.138  0.00  0.00    +0.167 A 
ATOM     20  C   UNL     1       3.438  -0.001   0.142  0.00  0.00    -0.012 A 
ATOM     21  O   UNL     1       5.622   1.142   0.541  0.00  0.00    -0.453 OA
ATOM     22  C   UNL     1       6.330   2.196  -0.126  0.00  0.00    +0.233 C 
ATOM     23  O   UNL     1       5.489   2.570  -1.226  0.00  0.00    -0.453 OA
ENDBRANCH   4  15
BRANCH   1  25
ATOM     24  C   UNL     1      -1.031   3.837  -0.009  0.00  0.00    +0.079 C 
ATOM     25  O   UNL     1      -2.031   2.830   0.047  0.00  0.00    -0.491 OA
ENDBRANCH   1  25
BRANCH  14  26
ATOM     26  O   UNL     1      -4.220   0.991   0.068  0.00  0.00    -0.488 OA
ATOM     27  C   UNL     1      -4.633   2.196   0.697  0.00  0.00    +0.079 C 
ENDBRANCH  14  26
BRANCH  13  28
ATOM     28  O   UNL     1      -3.701  -1.781  -0.305  0.00  0.00    -0.491 OA
ATOM     29  C   UNL     1      -5.025  -1.526  -0.778  0.00  0.00    +0.079 C 
ENDBRANCH  13  28
BRANCH  11  30
ATOM     30  O   UNL     1      -0.757  -3.204  -1.686  0.00  0.00    -0.387 OA
ATOM     31  H   UNL     1       0.025  -2.728  -2.007  0.00  0.00    +0.000 HD
ENDBRANCH  11  30
TORSDOF 5
