REMARK  Name = 
REMARK  12 active torsions:
REMARK  status: ('A' for Active; 'I' for Inactive)
REMARK    1  A    between atoms: C_1  and  O_2
REMARK    2  A    between atoms: O_2  and  C_3
REMARK    3  A    between atoms: C_5  and  O_6
REMARK    4  A    between atoms: O_6  and  C_7
REMARK    5  A    between atoms: C_10  and  C_11
REMARK    6  A    between atoms: C_12  and  C_13
REMARK    7  A    between atoms: C_15  and  O_24
REMARK    8  A    between atoms: C_21  and  O_22
REMARK    9  A    between atoms: O_22  and  C_23
REMARK   10  A    between atoms: O_24  and  C_25
REMARK   11  A    between atoms: C_27  and  C_31
REMARK   12  A    between atoms: C_29  and  C_30
REMARK                            x       y       z     vdW  Elec       q    Type
REMARK                         _______ _______ _______ _____ _____    ______ ____
ROOT
ATOM      1  C   UNL     1      -1.330   1.586   0.867  0.00  0.00    +0.132 A 
ATOM      2  C   UNL     1      -2.726   1.668   0.976  0.00  0.00    +0.023 A 
ATOM      3  C   UNL     1      -3.565   0.810   0.244  0.00  0.00    +0.133 A 
ATOM      4  C   UNL     1      -2.992  -0.145  -0.628  0.00  0.00    +0.041 A 
ATOM      5  C   UNL     1      -1.583  -0.269  -0.700  0.00  0.00    -0.022 A 
ATOM      6  C   UNL     1      -0.758   0.620   0.026  0.00  0.00    +0.029 A 
ATOM      7  C   UNL     1      -0.988  -1.315  -1.623  0.00  0.00    -0.004 C 
ATOM      8  C   UNL     1      -1.906  -2.545  -1.680  0.00  0.00    +0.052 C 
ATOM      9  N   UNL     1      -3.275  -2.133  -1.983  0.00  0.00    -0.284 NA
ATOM     10  C   UNL     1      -3.816  -1.059  -1.485  0.00  0.00    +0.044 C 
ATOM     11  C   UNL     1      -5.229  -0.742  -1.876  0.00  0.00    -0.022 C 
ATOM     12  C   UNL     1      -1.426  -3.546  -2.730  0.00  0.00    -0.042 C 
ENDROOT
BRANCH   6  13
ATOM     13  C   UNL     1       0.724   0.551  -0.083  0.00  0.00    -0.003 A 
ATOM     14  C   UNL     1       1.380   1.331  -1.056  0.00  0.00    -0.039 A 
ATOM     15  C   UNL     1       0.605   2.236  -1.981  0.00  0.00    -0.039 C 
ATOM     16  C   UNL     1       2.772   1.276  -1.165  0.00  0.00    -0.016 A 
ATOM     17  C   UNL     1       3.542   0.455  -0.324  0.00  0.00    +0.132 A 
ATOM     18  C   UNL     1       2.900  -0.338   0.662  0.00  0.00    +0.066 A 
ATOM     19  C   UNL     1       1.479  -0.283   0.781  0.00  0.00    -0.003 A 
ATOM     20  C   UNL     1       0.839  -1.072   1.760  0.00  0.00    -0.053 A 
ATOM     21  C   UNL     1       1.574  -1.894   2.604  0.00  0.00    -0.058 A 
ATOM     22  C   UNL     1       2.957  -1.953   2.497  0.00  0.00    -0.019 A 
ATOM     23  C   UNL     1       3.639  -1.185   1.535  0.00  0.00    +0.131 A 
BRANCH  23  24
ATOM     24  O   UNL     1       5.040  -1.251   1.433  0.00  0.00    -0.494 OA
ATOM     25  C   UNL     1       5.884  -2.059   2.247  0.00  0.00    +0.079 C 
ENDBRANCH  23  24
BRANCH  17  26
ATOM     26  O   UNL     1       4.942   0.413  -0.453  0.00  0.00    -0.494 OA
ATOM     27  C   UNL     1       5.703   1.157  -1.401  0.00  0.00    +0.079 C 
ENDBRANCH  17  26
ENDBRANCH   6  13
BRANCH   1  29
ATOM     28  C   UNL     1      -0.915   3.472   2.467  0.00  0.00    +0.079 C 
ATOM     29  O   UNL     1      -0.477   2.445   1.582  0.00  0.00    -0.494 OA
ENDBRANCH   1  29
BRANCH   3  30
ATOM     30  O   UNL     1      -4.962   0.873   0.383  0.00  0.00    -0.494 OA
ATOM     31  C   UNL     1      -5.661   1.785   1.224  0.00  0.00    +0.079 C 
ENDBRANCH   3  30
TORSDOF 5
