REMARK  Name = 
REMARK  17 active torsions:
REMARK  status: ('A' for Active; 'I' for Inactive)
REMARK    1  A    between atoms: C_1  and  C_2
REMARK    2  A    between atoms: C_2  and  C_3
REMARK    3  A    between atoms: C_3  and  C_4
REMARK    4  A    between atoms: C_4  and  C_5
REMARK    5  A    between atoms: C_5  and  C_6
REMARK    6  A    between atoms: C_6  and  C_7
REMARK    7  A    between atoms: C_7  and  C_8
REMARK    8  A    between atoms: C_8  and  C_9
REMARK    9  A    between atoms: C_9  and  C_10
REMARK   10  A    between atoms: C_10  and  C_11
REMARK   11  A    between atoms: C_11  and  C_12
REMARK   12  A    between atoms: C_12  and  C_13
REMARK   13  A    between atoms: C_13  and  C_14
REMARK   14  A    between atoms: C_14  and  C_15
REMARK   15  A    between atoms: C_15  and  C_16
REMARK   16  A    between atoms: C_20  and  O_25
REMARK   17  A    between atoms: C_21  and  C_22
REMARK                            x       y       z     vdW  Elec       q    Type
REMARK                         _______ _______ _______ _____ _____    ______ ____
ROOT
ATOM      1  C   UNL     1       3.547  -0.593  -1.335  0.00  0.00    -0.053 C 
ENDROOT
BRANCH   1   2
ATOM      2  C   UNL     1       4.375  -1.875  -1.151  0.00  0.00    -0.049 C 
BRANCH   2   3
ATOM      3  C   UNL     1       5.808  -1.583  -0.683  0.00  0.00    -0.027 C 
BRANCH   3   4
ATOM      4  C   UNL     1       5.845  -1.017   0.724  0.00  0.00    -0.030 A 
ATOM      5  C   UNL     1       5.630  -1.902   1.794  0.00  0.00    -0.058 A 
ATOM      6  C   UNL     1       5.590  -1.442   3.108  0.00  0.00    -0.058 A 
ATOM      7  C   UNL     1       5.758  -0.085   3.375  0.00  0.00    -0.019 A 
ATOM      8  C   UNL     1       5.980   0.824   2.336  0.00  0.00    +0.131 A 
ATOM      9  C   UNL     1       6.018   0.368   0.995  0.00  0.00    +0.103 A 
BRANCH   9  10
ATOM     10  C   UNL     1       6.210   1.343  -0.095  0.00  0.00    +0.341 C 
ATOM     11  O   UNL     1       7.229   1.278  -0.832  0.00  0.00    -0.245 OA
ATOM     12  O   UNL     1       5.274   2.349  -0.295  0.00  0.00    -0.477 OA
ENDBRANCH   9  10
BRANCH   8  13
ATOM     13  O   UNL     1       6.172   2.168   2.669  0.00  0.00    -0.506 OA
ATOM     14  H   UNL     1       6.141   2.437   3.566  0.00  0.00    +0.000 HD
ENDBRANCH   8  13
ENDBRANCH   3   4
ENDBRANCH   2   3
ENDBRANCH   1   2
BRANCH   1  15
ATOM     15  C   UNL     1       2.204  -0.848  -2.037  0.00  0.00    -0.053 C 
BRANCH  15  16
ATOM     16  C   UNL     1       1.252  -1.718  -1.200  0.00  0.00    -0.053 C 
BRANCH  16  17
ATOM     17  C   UNL     1      -0.134  -1.871  -1.855  0.00  0.00    -0.053 C 
BRANCH  17  18
ATOM     18  C   UNL     1      -1.060  -0.652  -1.679  0.00  0.00    -0.053 C 
BRANCH  18  19
ATOM     19  C   UNL     1      -1.579  -0.507  -0.237  0.00  0.00    -0.053 C 
BRANCH  19  20
ATOM     20  C   UNL     1      -2.669   0.570  -0.107  0.00  0.00    -0.053 C 
BRANCH  20  21
ATOM     21  C   UNL     1      -4.046   0.062  -0.569  0.00  0.00    -0.053 C 
BRANCH  21  22
ATOM     22  C   UNL     1      -5.154   1.117  -0.416  0.00  0.00    -0.053 C 
BRANCH  22  23
ATOM     23  C   UNL     1      -5.587   1.313   1.048  0.00  0.00    -0.053 C 
BRANCH  23  24
ATOM     24  C   UNL     1      -6.726   2.337   1.205  0.00  0.00    -0.053 C 
BRANCH  24  26
ATOM     25  C   UNL     1      -8.637   0.632   1.193  0.00  0.00    -0.065 C 
ATOM     26  C   UNL     1      -8.072   1.915   0.586  0.00  0.00    -0.056 C 
ENDBRANCH  24  26
ENDBRANCH  23  24
ENDBRANCH  22  23
ENDBRANCH  21  22
ENDBRANCH  20  21
ENDBRANCH  19  20
ENDBRANCH  18  19
ENDBRANCH  17  18
ENDBRANCH  16  17
ENDBRANCH  15  16
ENDBRANCH   1  15
TORSDOF 16
