REMARK  Name = 
REMARK  7 active torsions:
REMARK  status: ('A' for Active; 'I' for Inactive)
REMARK    1  A    between atoms: C_1  and  O_2
REMARK    2  A    between atoms: O_2  and  C_3
REMARK    3  A    between atoms: C_5  and  C_10
REMARK    4  A    between atoms: C_10  and  C_11
REMARK    5  A    between atoms: C_10  and  O_19
REMARK    6  A    between atoms: C_11  and  C_12
REMARK    7  A    between atoms: C_11  and  O_18
REMARK                            x       y       z     vdW  Elec       q    Type
REMARK                         _______ _______ _______ _____ _____    ______ ____
ROOT
ATOM      1  C   UNL     1      -0.105  -0.532  -0.762  0.00  0.00    +0.143 C 
ENDROOT
BRANCH   1   4
ATOM      2  C   UNL     1       3.493  -0.472   0.505  0.00  0.00    +0.130 A 
ATOM      3  C   UNL     1       2.224  -0.024   0.107  0.00  0.00    +0.021 A 
ATOM      4  C   UNL     1       1.278  -0.962  -0.339  0.00  0.00    +0.144 A 
ATOM      5  O   UNL     1       1.591  -2.255  -0.373  0.00  0.00    -0.424 OA
ATOM      6  C   UNL     1       2.782  -2.717  -0.005  0.00  0.00    +0.340 A 
ATOM      7  O   UNL     1       3.017  -3.952  -0.062  0.00  0.00    -0.245 OA
ATOM      8  C   UNL     1       3.771  -1.839   0.446  0.00  0.00    +0.065 A 
BRANCH   2  10
ATOM      9  C   UNL     1       4.340   1.809   1.074  0.00  0.00    +0.079 C 
ATOM     10  O   UNL     1       4.493   0.398   0.963  0.00  0.00    -0.495 OA
ENDBRANCH   2  10
ENDBRANCH   1   4
BRANCH   1  11
ATOM     11  O   UNL     1      -0.022   0.565  -1.637  0.00  0.00    -0.381 OA
ATOM     12  H   UNL     1       0.402   1.310  -1.182  0.00  0.00    +0.000 HD
ENDBRANCH   1  11
BRANCH   1  13
ATOM     13  C   UNL     1      -0.960  -0.151   0.470  0.00  0.00    +0.113 C 
BRANCH  13  14
ATOM     14  C   UNL     1      -2.357   0.284   0.069  0.00  0.00    -0.016 A 
ATOM     15  C   UNL     1      -3.259  -0.626  -0.517  0.00  0.00    -0.056 A 
ATOM     16  C   UNL     1      -4.540  -0.210  -0.891  0.00  0.00    -0.061 A 
ATOM     17  C   UNL     1      -4.935   1.115  -0.689  0.00  0.00    -0.062 A 
ATOM     18  C   UNL     1      -4.048   2.027  -0.113  0.00  0.00    -0.061 A 
ATOM     19  C   UNL     1      -2.765   1.617   0.263  0.00  0.00    -0.056 A 
ENDBRANCH  13  14
BRANCH  13  20
ATOM     20  O   UNL     1      -1.023  -1.200   1.406  0.00  0.00    -0.384 OA
ATOM     21  H   UNL     1      -1.462  -1.966   1.004  0.00  0.00    +0.000 HD
ENDBRANCH  13  20
ENDBRANCH   1  13
TORSDOF 6
