REMARK  Name = 
REMARK  4 active torsions:
REMARK  status: ('A' for Active; 'I' for Inactive)
REMARK    1  A    between atoms: C_1  and  O_2
REMARK    2  A    between atoms: O_2  and  C_3
REMARK    3  A    between atoms: C_5  and  C_10
REMARK    4  A    between atoms: C_12  and  C_13
REMARK                            x       y       z     vdW  Elec       q    Type
REMARK                         _______ _______ _______ _____ _____    ______ ____
ROOT
ATOM      1  C   UNL     1      -3.388   0.511  -0.086  0.00  0.00    +0.130 A 
ATOM      2  C   UNL     1      -2.059   0.940  -0.104  0.00  0.00    +0.021 A 
ATOM      3  C   UNL     1      -1.041   0.005  -0.329  0.00  0.00    +0.144 A 
ATOM      4  O   UNL     1      -1.343  -1.275  -0.535  0.00  0.00    -0.424 OA
ATOM      5  C   UNL     1      -2.594  -1.726  -0.527  0.00  0.00    +0.340 A 
ATOM      6  O   UNL     1      -2.816  -2.949  -0.726  0.00  0.00    -0.245 OA
ATOM      7  C   UNL     1      -3.660  -0.850  -0.301  0.00  0.00    +0.065 A 
ENDROOT
BRANCH   3   8
ATOM      8  C   UNL     1       0.389   0.440  -0.365  0.00  0.00    +0.147 C 
ATOM      9  O   UNL     1       0.792   0.982   0.871  0.00  0.00    -0.355 OA
ATOM     10  C   UNL     1       1.303  -0.292   0.547  0.00  0.00    +0.118 C 
BRANCH  10  11
ATOM     11  C   UNL     1       2.759  -0.230   0.194  0.00  0.00    -0.016 A 
ATOM     12  C   UNL     1       3.677   0.369   1.071  0.00  0.00    -0.056 A 
ATOM     13  C   UNL     1       5.038   0.395   0.753  0.00  0.00    -0.061 A 
ATOM     14  C   UNL     1       5.491  -0.186  -0.435  0.00  0.00    -0.062 A 
ATOM     15  C   UNL     1       4.584  -0.799  -1.304  0.00  0.00    -0.061 A 
ATOM     16  C   UNL     1       3.221  -0.827  -0.989  0.00  0.00    -0.056 A 
ENDBRANCH  10  11
ENDBRANCH   3   8
BRANCH   1  18
ATOM     17  C   UNL     1      -5.787   1.153   0.188  0.00  0.00    +0.079 C 
ATOM     18  O   UNL     1      -4.397   1.457   0.145  0.00  0.00    -0.495 OA
ENDBRANCH   1  18
TORSDOF 3
