REMARK  Name = 
REMARK  7 active torsions:
REMARK  status: ('A' for Active; 'I' for Inactive)
REMARK    1  A    between atoms: C_1  and  O_2
REMARK    2  A    between atoms: O_2  and  C_3
REMARK    3  A    between atoms: C_5  and  C_10
REMARK    4  A    between atoms: C_10  and  C_11
REMARK    5  A    between atoms: C_10  and  O_19
REMARK    6  A    between atoms: C_11  and  C_12
REMARK    7  A    between atoms: C_11  and  O_18
REMARK                            x       y       z     vdW  Elec       q    Type
REMARK                         _______ _______ _______ _____ _____    ______ ____
ROOT
ATOM      1  C   UNL     1      -0.044   0.178  -0.746  0.00  0.00    +0.143 C 
ENDROOT
BRANCH   1   4
ATOM      2  C   UNL     1       3.581  -0.533   0.202  0.00  0.00    +0.130 A 
ATOM      3  C   UNL     1       2.329   0.100   0.136  0.00  0.00    +0.021 A 
ATOM      4  C   UNL     1       1.323  -0.459  -0.667  0.00  0.00    +0.144 A 
ATOM      5  O   UNL     1       1.562  -1.581  -1.345  0.00  0.00    -0.424 OA
ATOM      6  C   UNL     1       2.734  -2.207  -1.309  0.00  0.00    +0.340 A 
ATOM      7  O   UNL     1       2.898  -3.262  -1.976  0.00  0.00    -0.245 OA
ATOM      8  C   UNL     1       3.781  -1.701  -0.535  0.00  0.00    +0.065 A 
BRANCH   2  10
ATOM      9  C   UNL     1       4.566   1.138   1.778  0.00  0.00    +0.079 C 
ATOM     10  O   UNL     1       4.638  -0.038   0.979  0.00  0.00    -0.495 OA
ENDBRANCH   2  10
ENDBRANCH   1   4
BRANCH   1  11
ATOM     11  O   UNL     1      -0.476   0.232  -2.084  0.00  0.00    -0.381 OA
ATOM     12  H   UNL     1      -0.542  -0.669  -2.439  0.00  0.00    +0.000 HD
ENDBRANCH   1  11
BRANCH   1  13
ATOM     13  C   UNL     1      -1.060  -0.588   0.142  0.00  0.00    +0.113 C 
BRANCH  13  14
ATOM     14  C   UNL     1      -2.453   0.004   0.038  0.00  0.00    -0.016 A 
ATOM     15  C   UNL     1      -3.496  -0.745  -0.540  0.00  0.00    -0.056 A 
ATOM     16  C   UNL     1      -4.780  -0.203  -0.648  0.00  0.00    -0.061 A 
ATOM     17  C   UNL     1      -5.037   1.090  -0.185  0.00  0.00    -0.062 A 
ATOM     18  C   UNL     1      -4.010   1.844   0.386  0.00  0.00    -0.061 A 
ATOM     19  C   UNL     1      -2.723   1.307   0.497  0.00  0.00    -0.056 A 
ENDBRANCH  13  14
BRANCH  13  20
ATOM     20  O   UNL     1      -0.645  -0.630   1.487  0.00  0.00    -0.384 OA
ATOM     21  H   UNL     1      -0.606   0.271   1.842  0.00  0.00    +0.000 HD
ENDBRANCH  13  20
ENDBRANCH   1  13
TORSDOF 6
