REMARK  Name = 
REMARK  9 active torsions:
REMARK  status: ('A' for Active; 'I' for Inactive)
REMARK    1  A    between atoms: C_7  and  C_8
REMARK    2  A    between atoms: C_8  and  C_9
REMARK    3  A    between atoms: C_10  and  C_11
REMARK    4  A    between atoms: C_10  and  C_17
REMARK    5  A    between atoms: C_11  and  C_12
REMARK    6  A    between atoms: C_12  and  C_13
REMARK    7  A    between atoms: C_14  and  C_15
REMARK    8  A    between atoms: C_14  and  C_16
REMARK    9  A    between atoms: C_19  and  O_21
REMARK                            x       y       z     vdW  Elec       q    Type
REMARK                         _______ _______ _______ _____ _____    ______ ____
ROOT
ATOM      1  O   UNL     1      -2.457   4.015  -0.814  0.00  0.00    -0.250 OA
ATOM      2  C   UNL     1      -2.848   2.843  -0.573  0.00  0.00    +0.317 C 
ATOM      3  C   UNL     1      -4.110   2.509   0.164  0.00  0.00    +0.074 C 
ATOM      4  C   UNL     1      -4.019   1.020   0.129  0.00  0.00    +0.009 A 
ATOM      5  C   UNL     1      -2.874   0.624  -0.529  0.00  0.00    +0.139 A 
ATOM      6  O   UNL     1      -2.143   1.713  -0.969  0.00  0.00    -0.425 OA
ATOM      7  C   UNL     1      -2.550  -0.728  -0.695  0.00  0.00    +0.002 A 
ATOM      8  C   UNL     1      -3.448  -1.685  -0.178  0.00  0.00    -0.013 A 
ATOM      9  C   UNL     1      -4.621  -1.280   0.498  0.00  0.00    +0.118 A 
ATOM     10  C   UNL     1      -4.910   0.086   0.654  0.00  0.00    -0.013 A 
ENDROOT
BRANCH   9  11
ATOM     11  O   UNL     1      -5.501  -2.228   1.015  0.00  0.00    -0.507 OA
ATOM     12  H   UNL     1      -5.317  -3.142   0.916  0.00  0.00    +0.000 HD
ENDBRANCH   9  11
BRANCH   7  13
ATOM     13  C   UNL     1      -1.299  -1.145  -1.421  0.00  0.00    -0.006 C 
BRANCH  13  14
ATOM     14  C   UNL     1      -0.059  -0.634  -0.729  0.00  0.00    -0.081 C 
ATOM     15  C   UNL     1       0.440  -1.139   0.422  0.00  0.00    -0.076 C 
ATOM     16  C   UNL     1      -0.222  -2.291   1.139  0.00  0.00    -0.044 C 
BRANCH  15  17
ATOM     17  C   UNL     1       1.692  -0.526   1.009  0.00  0.00    -0.029 C 
BRANCH  17  18
ATOM     18  C   UNL     1       2.935  -0.966   0.227  0.00  0.00    -0.031 C 
BRANCH  18  19
ATOM     19  C   UNL     1       4.177  -0.323   0.791  0.00  0.00    -0.085 C 
ATOM     20  C   UNL     1       4.648   0.887   0.414  0.00  0.00    -0.080 C 
ATOM     21  C   UNL     1       5.883   1.420   1.093  0.00  0.00    -0.044 C 
ATOM     22  C   UNL     1       3.986   1.701  -0.673  0.00  0.00    -0.044 C 
ENDBRANCH  18  19
ENDBRANCH  17  18
ENDBRANCH  15  17
ENDBRANCH  13  14
ENDBRANCH   7  13
TORSDOF 6
