REMARK  Name = 
REMARK  17 active torsions:
REMARK  status: ('A' for Active; 'I' for Inactive)
REMARK    1  A    between atoms: C_1  and  C_2
REMARK    2  A    between atoms: C_2  and  C_3
REMARK    3  A    between atoms: C_3  and  C_4
REMARK    4  A    between atoms: C_4  and  C_5
REMARK    5  A    between atoms: C_5  and  C_6
REMARK    6  A    between atoms: C_6  and  C_7
REMARK    7  A    between atoms: C_7  and  C_8
REMARK    8  A    between atoms: C_8  and  C_9
REMARK    9  A    between atoms: C_9  and  C_10
REMARK   10  A    between atoms: C_10  and  C_11
REMARK   11  A    between atoms: C_10  and  O_22
REMARK   12  A    between atoms: C_12  and  C_13
REMARK   13  A    between atoms: C_14  and  C_15
REMARK   14  A    between atoms: C_15  and  O_16
REMARK   15  A    between atoms: C_15  and  C_20
REMARK   16  A    between atoms: O_16  and  C_17
REMARK   17  A    between atoms: C_17  and  C_19
REMARK                            x       y       z     vdW  Elec       q    Type
REMARK                         _______ _______ _______ _____ _____    ______ ____
ROOT
ATOM      1  C   UNL     1      -0.333  -2.325  -1.851  0.00  0.00    +0.116 C 
ENDROOT
BRANCH   1   2
ATOM      2  C   UNL     1      -1.618  -1.784  -1.387  0.00  0.00    -0.057 C 
ATOM      3  C   UNL     1      -2.671  -1.337  -1.005  0.00  0.00    -0.012 C 
BRANCH   3   4
ATOM      4  C   UNL     1      -3.901  -0.812  -0.557  0.00  0.00    -0.011 C 
ATOM      5  C   UNL     1      -4.952  -0.363  -0.174  0.00  0.00    -0.040 C 
BRANCH   5   6
ATOM      6  C   UNL     1      -6.229   0.185   0.292  0.00  0.00    +0.182 C 
BRANCH   6   7
ATOM      7  C   UNL     1      -7.328  -0.288  -0.622  0.00  0.00    -0.039 C 
ATOM      8  C   UNL     1      -8.179  -1.253  -0.262  0.00  0.00    -0.098 C 
ENDBRANCH   6   7
BRANCH   6   9
ATOM      9  O   UNL     1      -6.153   1.608   0.269  0.00  0.00    -0.444 OA
BRANCH   9  10
ATOM     10  C   UNL     1      -7.116   2.437   0.856  0.00  0.00    +0.305 C 
ATOM     11  O   UNL     1      -8.117   1.947   1.445  0.00  0.00    -0.251 OA
ATOM     12  C   UNL     1      -6.976   3.917   0.748  0.00  0.00    +0.033 C 
ENDBRANCH   9  10
ENDBRANCH   6   9
ENDBRANCH   5   6
ENDBRANCH   3   4
ENDBRANCH   1   2
BRANCH   1  13
ATOM     13  O   UNL     1       0.046  -1.661  -3.027  0.00  0.00    -0.379 OA
ATOM     14  H   UNL     1       0.149  -0.714  -2.845  0.00  0.00    +0.000 HD
ENDBRANCH   1  13
BRANCH   1  15
ATOM     15  C   UNL     1       0.751  -2.186  -0.766  0.00  0.00    -0.016 C 
BRANCH  15  16
ATOM     16  C   UNL     1       1.127  -0.721  -0.473  0.00  0.00    -0.050 C 
BRANCH  16  17
ATOM     17  C   UNL     1       2.116  -0.586   0.695  0.00  0.00    -0.053 C 
BRANCH  17  18
ATOM     18  C   UNL     1       3.519  -1.114   0.345  0.00  0.00    -0.053 C 
BRANCH  18  19
ATOM     19  C   UNL     1       4.550  -0.789   1.441  0.00  0.00    -0.053 C 
BRANCH  19  20
ATOM     20  C   UNL     1       5.041   0.677   1.401  0.00  0.00    -0.053 C 
BRANCH  20  21
ATOM     21  C   UNL     1       6.463   0.835   0.828  0.00  0.00    -0.053 C 
BRANCH  21  23
ATOM     22  C   UNL     1       5.876   1.475  -1.575  0.00  0.00    -0.065 C 
ATOM     23  C   UNL     1       6.591   0.478  -0.662  0.00  0.00    -0.056 C 
ENDBRANCH  21  23
ENDBRANCH  20  21
ENDBRANCH  19  20
ENDBRANCH  18  19
ENDBRANCH  17  18
ENDBRANCH  16  17
ENDBRANCH  15  16
ENDBRANCH   1  15
TORSDOF 15
