REMARK  Name = 
REMARK  18 active torsions:
REMARK  status: ('A' for Active; 'I' for Inactive)
REMARK    1  A    between atoms: C_1  and  C_2
REMARK    2  A    between atoms: C_2  and  C_3
REMARK    3  A    between atoms: C_3  and  C_4
REMARK    4  A    between atoms: C_4  and  C_5
REMARK    5  A    between atoms: C_5  and  C_6
REMARK    6  A    between atoms: C_6  and  C_7
REMARK    7  A    between atoms: C_7  and  C_8
REMARK    8  A    between atoms: C_8  and  C_9
REMARK    9  A    between atoms: C_9  and  C_10
REMARK   10  A    between atoms: C_10  and  C_11
REMARK   11  A    between atoms: C_10  and  O_22
REMARK   12  A    between atoms: C_12  and  C_13
REMARK   13  A    between atoms: C_14  and  C_15
REMARK   14  A    between atoms: C_15  and  O_16
REMARK   15  A    between atoms: C_15  and  C_20
REMARK   16  A    between atoms: O_16  and  C_17
REMARK   17  A    between atoms: C_17  and  C_19
REMARK   18  A    between atoms: C_20  and  C_21
REMARK                            x       y       z     vdW  Elec       q    Type
REMARK                         _______ _______ _______ _____ _____    ______ ____
ROOT
ATOM      1  C   UNL     1       0.153  -1.554   2.258  0.00  0.00    +0.116 C 
ENDROOT
BRANCH   1   2
ATOM      2  C   UNL     1       1.536  -1.465   1.762  0.00  0.00    -0.057 C 
ATOM      3  C   UNL     1       2.668  -1.392   1.354  0.00  0.00    -0.012 C 
BRANCH   3   4
ATOM      4  C   UNL     1       3.993  -1.306   0.875  0.00  0.00    -0.011 C 
ATOM      5  C   UNL     1       5.124  -1.234   0.465  0.00  0.00    -0.044 C 
BRANCH   5   6
ATOM      6  C   UNL     1       6.503  -1.147  -0.036  0.00  0.00    +0.164 C 
BRANCH   6   7
ATOM      7  C   UNL     1       6.618  -1.807  -1.422  0.00  0.00    -0.007 C 
ATOM      8  C   UNL     1       6.421  -3.322  -1.363  0.00  0.00    -0.061 C 
ENDBRANCH   6   7
BRANCH   6   9
ATOM      9  O   UNL     1       6.862   0.231  -0.116  0.00  0.00    -0.449 OA
BRANCH   9  10
ATOM     10  C   UNL     1       8.185   0.680  -0.212  0.00  0.00    +0.305 C 
ATOM     11  O   UNL     1       9.149  -0.131  -0.160  0.00  0.00    -0.251 OA
ATOM     12  C   UNL     1       8.457   2.142  -0.318  0.00  0.00    +0.033 C 
ENDBRANCH   9  10
ENDBRANCH   6   9
ENDBRANCH   5   6
ENDBRANCH   3   4
ENDBRANCH   1   2
BRANCH   1  13
ATOM     13  O   UNL     1      -0.321  -2.871   2.131  0.00  0.00    -0.379 OA
ATOM     14  H   UNL     1      -0.314  -3.128   1.195  0.00  0.00    +0.000 HD
ENDBRANCH   1  13
BRANCH   1  15
ATOM     15  C   UNL     1      -0.751  -0.556   1.512  0.00  0.00    -0.016 C 
BRANCH  15  16
ATOM     16  C   UNL     1      -2.186  -0.575   2.065  0.00  0.00    -0.050 C 
BRANCH  16  17
ATOM     17  C   UNL     1      -3.070   0.529   1.461  0.00  0.00    -0.053 C 
BRANCH  17  18
ATOM     18  C   UNL     1      -3.433   0.256  -0.009  0.00  0.00    -0.053 C 
BRANCH  18  19
ATOM     19  C   UNL     1      -4.374   1.325  -0.590  0.00  0.00    -0.053 C 
BRANCH  19  20
ATOM     20  C   UNL     1      -5.838   1.114  -0.167  0.00  0.00    -0.053 C 
BRANCH  20  21
ATOM     21  C   UNL     1      -6.767   2.249  -0.637  0.00  0.00    -0.053 C 
BRANCH  21  23
ATOM     22  C   UNL     1      -7.465   1.163  -2.846  0.00  0.00    -0.065 C 
ATOM     23  C   UNL     1      -6.885   2.401  -2.164  0.00  0.00    -0.056 C 
ENDBRANCH  21  23
ENDBRANCH  20  21
ENDBRANCH  19  20
ENDBRANCH  18  19
ENDBRANCH  17  18
ENDBRANCH  16  17
ENDBRANCH  15  16
ENDBRANCH   1  15
TORSDOF 15
