REMARK  Name = 
REMARK  8 active torsions:
REMARK  status: ('A' for Active; 'I' for Inactive)
REMARK    1  A    between atoms: C_10  and  C_12
REMARK    2  A    between atoms: C_13  and  C_36
REMARK    3  A    between atoms: C_13  and  C_37
REMARK    4  A    between atoms: C_14  and  C_35
REMARK    5  A    between atoms: C_15  and  O_16
REMARK    6  A    between atoms: C_21  and  C_29
REMARK    7  A    between atoms: C_24  and  C_27
REMARK    8  A    between atoms: C_24  and  C_28
REMARK                            x       y       z     vdW  Elec       q    Type
REMARK                         _______ _______ _______ _____ _____    ______ ____
ROOT
ATOM      1  C   UNL     1      -3.460   2.362  -3.162  0.00  0.00    -0.099 C 
ATOM      2  C   UNL     1      -3.662   1.376  -2.273  0.00  0.00    -0.073 C 
ATOM      3  C   UNL     1      -4.720   1.514  -1.204  0.00  0.00    -0.032 C 
ATOM      4  C   UNL     1      -5.631   0.272  -1.165  0.00  0.00    -0.049 C 
ATOM      5  C   UNL     1      -4.900  -1.066  -1.440  0.00  0.00    -0.049 C 
ATOM      6  C   UNL     1      -3.366  -0.941  -1.335  0.00  0.00    -0.034 C 
ATOM      7  C   UNL     1      -2.849   0.092  -2.344  0.00  0.00    -0.017 C 
ATOM      8  C   UNL     1      -1.343   0.357  -2.146  0.00  0.00    -0.040 C 
ATOM      9  C   UNL     1      -0.474  -0.791  -1.520  0.00  0.00    -0.000 C 
ATOM     10  C   UNL     1      -1.107  -2.250  -1.454  0.00  0.00    -0.020 C 
ATOM     11  C   UNL     1      -2.678  -2.274  -1.636  0.00  0.00    -0.043 C 
ATOM     12  C   UNL     1      -0.564  -3.049  -2.684  0.00  0.00    -0.059 C 
ATOM     13  C   UNL     1      -0.598  -2.860  -0.040  0.00  0.00    -0.014 C 
ATOM     14  C   UNL     1       0.570  -1.868   0.408  0.00  0.00    +0.066 C 
ATOM     15  C   UNL     1       0.071  -0.482  -0.092  0.00  0.00    +0.113 C 
ATOM     16  C   UNL     1       1.207   0.537   0.112  0.00  0.00    +0.071 A 
ATOM     17  C   UNL     1       1.660   1.476  -0.843  0.00  0.00    +0.192 A 
ATOM     18  O   UNL     1       1.264   1.457  -2.035  0.00  0.00    -0.287 OA
ATOM     19  C   UNL     1       2.590   2.445  -0.473  0.00  0.00    +0.028 A 
ATOM     20  C   UNL     1       3.072   2.472   0.841  0.00  0.00    +0.139 A 
ATOM     21  O   UNL     1       2.671   1.541   1.700  0.00  0.00    -0.458 OA
ATOM     22  C   UNL     1       1.802   0.578   1.401  0.00  0.00    +0.128 A 
ATOM     23  C   UNL     1       1.496  -0.471   2.481  0.00  0.00    +0.082 C 
ATOM     24  C   UNL     1       0.882  -1.755   1.902  0.00  0.00    +0.156 C 
ATOM     25  O   UNL     1       0.821  -2.750   2.612  0.00  0.00    -0.296 OA
ATOM     26  C   UNL     1       0.540   0.137   3.523  0.00  0.00    -0.046 C 
ATOM     27  C   UNL     1       2.822  -0.845   3.184  0.00  0.00    -0.046 C 
ATOM     28  C   UNL     1       1.947  -2.255  -0.238  0.00  0.00    -0.049 C 
ATOM     29  C   UNL     1      -0.112  -4.338  -0.148  0.00  0.00    -0.058 C 
ATOM     30  C   UNL     1      -1.737  -2.919   1.044  0.00  0.00    -0.058 C 
ENDROOT
BRANCH  20  31
ATOM     31  C   UNL     1       4.048   3.493   1.301  0.00  0.00    +0.017 A 
ATOM     32  C   UNL     1       4.130   4.766   0.700  0.00  0.00    -0.051 A 
ATOM     33  C   UNL     1       5.053   5.709   1.164  0.00  0.00    -0.061 A 
ATOM     34  C   UNL     1       5.896   5.400   2.234  0.00  0.00    -0.062 A 
ATOM     35  C   UNL     1       5.815   4.148   2.846  0.00  0.00    -0.061 A 
ATOM     36  C   UNL     1       4.894   3.201   2.387  0.00  0.00    -0.051 A 
ENDBRANCH  20  31
BRANCH  15  37
ATOM     37  O   UNL     1      -1.011  -0.070   0.716  0.00  0.00    -0.382 OA
ATOM     38  H   UNL     1      -0.690   0.127   1.610  0.00  0.00    +0.000 HD
ENDBRANCH  15  37
TORSDOF 2
