REMARK  Name = 
REMARK  13 active torsions:
REMARK  status: ('A' for Active; 'I' for Inactive)
REMARK    1  A    between atoms: C_1  and  O_2
REMARK    2  A    between atoms: O_2  and  C_3
REMARK    3  A    between atoms: C_5  and  O_6
REMARK    4  A    between atoms: O_6  and  C_7
REMARK    5  A    between atoms: C_10  and  C_11
REMARK    6  A    between atoms: C_14  and  O_24
REMARK    7  A    between atoms: C_18  and  C_19
REMARK    8  A    between atoms: C_21  and  O_22
REMARK    9  A    between atoms: O_22  and  C_23
REMARK   10  A    between atoms: O_24  and  C_25
REMARK   11  A    between atoms: C_27  and  C_32
REMARK   12  A    between atoms: N_28  and  C_31
REMARK   13  A    between atoms: C_29  and  C_30
REMARK                            x       y       z     vdW  Elec       q    Type
REMARK                         _______ _______ _______ _____ _____    ______ ____
ROOT
ATOM      1  C   UNL     1      -0.776  -2.286   0.434  0.00  0.00    +0.132 A 
ATOM      2  C   UNL     1      -2.130  -2.516   0.715  0.00  0.00    +0.023 A 
ATOM      3  C   UNL     1      -3.134  -1.642   0.255  0.00  0.00    +0.129 A 
ATOM      4  C   UNL     1      -2.768  -0.517  -0.538  0.00  0.00    +0.015 A 
ATOM      5  C   UNL     1      -1.401  -0.258  -0.763  0.00  0.00    -0.027 A 
ATOM      6  C   UNL     1      -0.409  -1.152  -0.302  0.00  0.00    +0.028 A 
ATOM      7  C   UNL     1      -1.052   1.007  -1.510  0.00  0.00    -0.011 C 
ATOM      8  C   UNL     1      -1.892   2.197  -0.983  0.00  0.00    +0.012 C 
ATOM      9  N   UNL     1      -3.335   1.873  -0.751  0.00  0.00    -0.296 N 
ATOM     10  C   UNL     1      -3.732   0.499  -1.179  0.00  0.00    +0.037 C 
ATOM     11  C   UNL     1      -5.231   0.224  -0.943  0.00  0.00    -0.045 C 
ATOM     12  C   UNL     1      -4.194   2.931  -1.323  0.00  0.00    -0.012 C 
ATOM     13  C   UNL     1      -1.299   2.732   0.326  0.00  0.00    -0.049 C 
ATOM     14  H   UNL     1      -3.478   1.857   0.259  0.00  0.00    +0.000 HD
ENDROOT
BRANCH   6  15
ATOM     15  C   UNL     1       1.028  -0.906  -0.565  0.00  0.00    -0.006 A 
ATOM     16  C   UNL     1       1.582  -1.441  -1.728  0.00  0.00    -0.050 A 
ATOM     17  C   UNL     1       2.919  -1.225  -2.041  0.00  0.00    -0.019 A 
ATOM     18  C   UNL     1       3.744  -0.458  -1.200  0.00  0.00    +0.131 A 
ATOM     19  C   UNL     1       3.203   0.101  -0.010  0.00  0.00    +0.066 A 
ATOM     20  C   UNL     1       1.833  -0.137   0.310  0.00  0.00    -0.003 A 
ATOM     21  C   UNL     1       1.292   0.404   1.492  0.00  0.00    -0.050 A 
ATOM     22  C   UNL     1       2.073   1.176   2.352  0.00  0.00    -0.046 A 
ATOM     23  C   UNL     1       1.457   1.790   3.576  0.00  0.00    -0.040 C 
ATOM     24  C   UNL     1       3.407   1.434   2.030  0.00  0.00    -0.016 A 
ATOM     25  C   UNL     1       3.989   0.900   0.865  0.00  0.00    +0.132 A 
BRANCH  25  26
ATOM     26  O   UNL     1       5.338   1.154   0.560  0.00  0.00    -0.494 OA
ATOM     27  C   UNL     1       6.226   1.936   1.353  0.00  0.00    +0.079 C 
ENDBRANCH  25  26
BRANCH  18  28
ATOM     28  O   UNL     1       5.094  -0.241  -1.527  0.00  0.00    -0.494 OA
ATOM     29  C   UNL     1       5.746  -0.747  -2.688  0.00  0.00    +0.079 C 
ENDBRANCH  18  28
ENDBRANCH   6  15
BRANCH   1  31
ATOM     30  C   UNL     1       0.011  -4.334   1.649  0.00  0.00    +0.079 C 
ATOM     31  O   UNL     1       0.234  -3.156   0.881  0.00  0.00    -0.494 OA
ENDBRANCH   1  31
BRANCH   3  32
ATOM     32  O   UNL     1      -4.477  -1.873   0.592  0.00  0.00    -0.495 OA
ATOM     33  C   UNL     1      -4.957  -2.956   1.383  0.00  0.00    +0.079 C 
ENDBRANCH   3  32
TORSDOF 5
