REMARK  Name = 
REMARK  12 active torsions:
REMARK  status: ('A' for Active; 'I' for Inactive)
REMARK    1  A    between atoms: C_1  and  O_2
REMARK    2  A    between atoms: O_2  and  C_3
REMARK    3  A    between atoms: C_5  and  O_6
REMARK    4  A    between atoms: O_6  and  C_7
REMARK    5  A    between atoms: C_10  and  C_11
REMARK    6  A    between atoms: C_14  and  O_24
REMARK    7  A    between atoms: C_18  and  C_19
REMARK    8  A    between atoms: C_21  and  O_22
REMARK    9  A    between atoms: O_22  and  C_23
REMARK   10  A    between atoms: O_24  and  C_25
REMARK   11  A    between atoms: C_27  and  C_31
REMARK   12  A    between atoms: C_29  and  C_30
REMARK                            x       y       z     vdW  Elec       q    Type
REMARK                         _______ _______ _______ _____ _____    ______ ____
ROOT
ATOM      1  C   UNL     1      -1.058   1.618   1.039  0.00  0.00    +0.132 A 
ATOM      2  C   UNL     1      -2.317   2.159   0.740  0.00  0.00    +0.023 A 
ATOM      3  C   UNL     1      -3.303   1.386   0.103  0.00  0.00    +0.129 A 
ATOM      4  C   UNL     1      -3.047   0.028  -0.197  0.00  0.00    +0.015 A 
ATOM      5  C   UNL     1      -1.742  -0.485  -0.000  0.00  0.00    -0.027 A 
ATOM      6  C   UNL     1      -0.768   0.300   0.660  0.00  0.00    +0.028 A 
ATOM      7  C   UNL     1      -1.389  -1.863  -0.504  0.00  0.00    -0.011 C 
ATOM      8  C   UNL     1      -2.321  -2.304  -1.636  0.00  0.00    +0.009 C 
ATOM      9  N   UNL     1      -3.719  -2.202  -1.202  0.00  0.00    -0.307 N 
ATOM     10  C   UNL     1      -4.151  -0.835  -0.826  0.00  0.00    +0.034 C 
ATOM     11  C   UNL     1      -5.370  -0.944   0.111  0.00  0.00    -0.045 C 
ATOM     12  C   UNL     1      -2.073  -1.540  -2.946  0.00  0.00    -0.049 C 
ATOM     13  H   UNL     1      -3.846  -2.810  -0.393  0.00  0.00    +0.000 HD
ATOM     14  H   UNL     1      -4.291  -2.476  -2.001  0.00  0.00    +0.000 HD
ENDROOT
BRANCH   6  15
ATOM     15  C   UNL     1       0.585  -0.240   0.939  0.00  0.00    -0.006 A 
ATOM     16  C   UNL     1       0.778  -0.935   2.133  0.00  0.00    -0.050 A 
ATOM     17  C   UNL     1       2.024  -1.460   2.454  0.00  0.00    -0.019 A 
ATOM     18  C   UNL     1       3.120  -1.304   1.586  0.00  0.00    +0.131 A 
ATOM     19  C   UNL     1       2.949  -0.602   0.362  0.00  0.00    +0.066 A 
ATOM     20  C   UNL     1       1.665  -0.069   0.040  0.00  0.00    -0.003 A 
ATOM     21  C   UNL     1       1.484   0.616  -1.178  0.00  0.00    -0.050 A 
ATOM     22  C   UNL     1       2.538   0.771  -2.079  0.00  0.00    -0.046 A 
ATOM     23  C   UNL     1       2.329   1.532  -3.356  0.00  0.00    -0.040 C 
ATOM     24  C   UNL     1       3.801   0.274  -1.756  0.00  0.00    -0.016 A 
ATOM     25  C   UNL     1       4.024  -0.417  -0.550  0.00  0.00    +0.132 A 
BRANCH  25  26
ATOM     26  O   UNL     1       5.300  -0.923  -0.241  0.00  0.00    -0.494 OA
ATOM     27  C   UNL     1       6.452  -0.804  -1.070  0.00  0.00    +0.079 C 
ENDBRANCH  25  26
BRANCH  18  28
ATOM     28  O   UNL     1       4.377  -1.839   1.920  0.00  0.00    -0.494 OA
ATOM     29  C   UNL     1       4.669  -2.559   3.113  0.00  0.00    +0.079 C 
ENDBRANCH  18  28
ENDBRANCH   6  15
BRANCH   1  31
ATOM     30  C   UNL     1      -0.214   3.718   2.119  0.00  0.00    +0.079 C 
ATOM     31  O   UNL     1      -0.064   2.368   1.693  0.00  0.00    -0.494 OA
ENDBRANCH   1  31
BRANCH   3  32
ATOM     32  O   UNL     1      -4.538   1.947  -0.266  0.00  0.00    -0.495 OA
ATOM     33  C   UNL     1      -4.925   3.297  -0.030  0.00  0.00    +0.079 C 
ENDBRANCH   3  32
TORSDOF 5
