REMARK  Name = 
REMARK  11 active torsions:
REMARK  status: ('A' for Active; 'I' for Inactive)
REMARK    1  A    between atoms: C_1  and  O_2
REMARK    2  A    between atoms: O_2  and  C_3
REMARK    3  A    between atoms: C_5  and  O_6
REMARK    4  A    between atoms: O_6  and  C_7
REMARK    5  A    between atoms: C_10  and  C_11
REMARK    6  A    between atoms: C_12  and  C_13
REMARK    7  A    between atoms: C_17  and  O_18
REMARK    8  A    between atoms: C_19  and  O_20
REMARK    9  A    between atoms: O_20  and  C_21
REMARK   10  A    between atoms: C_26  and  C_30
REMARK   11  A    between atoms: C_28  and  C_29
REMARK                            x       y       z     vdW  Elec       q    Type
REMARK                         _______ _______ _______ _____ _____    ______ ____
ROOT
ATOM      1  C   UNL     1       1.148   1.568  -0.907  0.00  0.00    +0.132 A 
ATOM      2  C   UNL     1       2.458   1.915  -0.539  0.00  0.00    +0.023 A 
ATOM      3  C   UNL     1       3.228   1.075   0.284  0.00  0.00    +0.133 A 
ATOM      4  C   UNL     1       2.669  -0.134   0.762  0.00  0.00    +0.041 A 
ATOM      5  C   UNL     1       1.371  -0.515   0.345  0.00  0.00    -0.022 A 
ATOM      6  C   UNL     1       0.605   0.352  -0.466  0.00  0.00    +0.032 A 
ATOM      7  C   UNL     1       0.797  -1.825   0.849  0.00  0.00    -0.004 C 
ATOM      8  C   UNL     1       1.920  -2.858   1.022  0.00  0.00    +0.052 C 
ATOM      9  N   UNL     1       3.006  -2.288   1.818  0.00  0.00    -0.284 NA
ATOM     10  C   UNL     1       3.400  -1.053   1.693  0.00  0.00    +0.044 C 
ATOM     11  C   UNL     1       4.524  -0.586   2.571  0.00  0.00    -0.022 C 
ATOM     12  C   UNL     1       1.405  -4.130   1.694  0.00  0.00    -0.042 C 
ENDROOT
BRANCH   6  13
ATOM     13  C   UNL     1      -0.784   0.005  -0.857  0.00  0.00    +0.031 A 
ATOM     14  C   UNL     1      -1.025  -0.638  -2.089  0.00  0.00    -0.039 A 
ATOM     15  C   UNL     1       0.108  -0.982  -3.023  0.00  0.00    -0.039 C 
ATOM     16  C   UNL     1      -2.336  -0.962  -2.454  0.00  0.00    -0.050 A 
ATOM     17  C   UNL     1      -3.411  -0.666  -1.609  0.00  0.00    -0.011 A 
ATOM     18  C   UNL     1      -3.188  -0.025  -0.361  0.00  0.00    +0.066 A 
ATOM     19  C   UNL     1      -1.861   0.312   0.009  0.00  0.00    +0.136 A 
ATOM     20  C   UNL     1      -4.302   0.260   0.475  0.00  0.00    +0.131 A 
ATOM     21  C   UNL     1      -5.597  -0.098   0.048  0.00  0.00    -0.019 A 
ATOM     22  C   UNL     1      -5.795  -0.725  -1.179  0.00  0.00    -0.058 A 
ATOM     23  C   UNL     1      -4.712  -1.008  -2.004  0.00  0.00    -0.054 A 
BRANCH  19  24
ATOM     24  O   UNL     1      -1.618   0.950   1.231  0.00  0.00    -0.505 OA
ATOM     25  H   UNL     1      -2.332   1.153   1.803  0.00  0.00    +0.000 HD
ENDBRANCH  19  24
BRANCH  20  26
ATOM     26  O   UNL     1      -4.106   0.892   1.716  0.00  0.00    -0.494 OA
ATOM     27  C   UNL     1      -5.140   1.226   2.636  0.00  0.00    +0.079 C 
ENDBRANCH  20  26
ENDBRANCH   6  13
BRANCH   1  29
ATOM     28  C   UNL     1       0.779   3.661  -2.239  0.00  0.00    +0.079 C 
ATOM     29  O   UNL     1       0.358   2.407  -1.713  0.00  0.00    -0.494 OA
ENDBRANCH   1  29
BRANCH   3  30
ATOM     30  O   UNL     1       4.551   1.409   0.622  0.00  0.00    -0.494 OA
ATOM     31  C   UNL     1       5.228   2.591   0.207  0.00  0.00    +0.079 C 
ENDBRANCH   3  30
TORSDOF 5
