REMARK  Name = 
REMARK  11 active torsions:
REMARK  status: ('A' for Active; 'I' for Inactive)
REMARK    1  A    between atoms: C_1  and  O_2
REMARK    2  A    between atoms: O_2  and  C_3
REMARK    3  A    between atoms: C_5  and  O_6
REMARK    4  A    between atoms: C_7  and  C_16
REMARK    5  A    between atoms: C_10  and  C_11
REMARK    6  A    between atoms: C_13  and  C_15
REMARK    7  A    between atoms: C_17  and  C_18
REMARK    8  A    between atoms: C_20  and  O_29
REMARK    9  A    between atoms: C_26  and  O_27
REMARK   10  A    between atoms: O_27  and  C_28
REMARK   11  A    between atoms: O_29  and  C_30
REMARK                            x       y       z     vdW  Elec       q    Type
REMARK                         _______ _______ _______ _____ _____    ______ ____
ROOT
ATOM      1  C   UNL     1      -3.347  -0.934  -1.016  0.00  0.00    +0.128 A 
ATOM      2  C   UNL     1      -2.399  -1.471  -1.903  0.00  0.00    +0.022 A 
ATOM      3  C   UNL     1      -1.058  -1.091  -1.832  0.00  0.00    +0.128 A 
ATOM      4  C   UNL     1      -0.636  -0.188  -0.847  0.00  0.00    +0.028 A 
ATOM      5  C   UNL     1      -1.573   0.346   0.069  0.00  0.00    -0.027 A 
ATOM      6  C   UNL     1      -2.946   0.029  -0.061  0.00  0.00    +0.015 A 
ATOM      7  C   UNL     1      -3.994   0.663   0.861  0.00  0.00    +0.034 C 
ATOM      8  C   UNL     1      -4.963   1.529   0.043  0.00  0.00    -0.045 C 
ATOM      9  N   UNL     1      -3.434   1.525   1.924  0.00  0.00    -0.307 N 
ATOM     10  C   UNL     1      -2.083   1.172   2.375  0.00  0.00    +0.009 C 
ATOM     11  C   UNL     1      -1.121   1.247   1.191  0.00  0.00    -0.011 C 
ATOM     12  C   UNL     1      -2.042  -0.189   3.095  0.00  0.00    -0.049 C 
ATOM     13  H   UNL     1      -4.057   1.475   2.730  0.00  0.00    +0.000 HD
ATOM     14  H   UNL     1      -3.359   2.458   1.519  0.00  0.00    +0.000 HD
ENDROOT
BRANCH   4  15
ATOM     15  C   UNL     1       0.805   0.173  -0.774  0.00  0.00    -0.003 A 
ATOM     16  C   UNL     1       1.276   1.281  -1.506  0.00  0.00    -0.039 A 
ATOM     17  C   UNL     1       0.343   2.101  -2.363  0.00  0.00    -0.039 C 
ATOM     18  C   UNL     1       2.628   1.627  -1.445  0.00  0.00    -0.016 A 
ATOM     19  C   UNL     1       3.539   0.895  -0.665  0.00  0.00    +0.132 A 
ATOM     20  C   UNL     1       3.083  -0.223   0.080  0.00  0.00    +0.066 A 
ATOM     21  C   UNL     1       1.704  -0.583   0.021  0.00  0.00    -0.003 A 
ATOM     22  C   UNL     1       1.249  -1.690   0.767  0.00  0.00    -0.053 A 
ATOM     23  C   UNL     1       2.124  -2.429   1.553  0.00  0.00    -0.058 A 
ATOM     24  C   UNL     1       3.469  -2.088   1.614  0.00  0.00    -0.019 A 
ATOM     25  C   UNL     1       3.969  -0.991   0.888  0.00  0.00    +0.131 A 
BRANCH  25  26
ATOM     26  O   UNL     1       5.332  -0.652   0.956  0.00  0.00    -0.494 OA
ATOM     27  C   UNL     1       6.310  -1.343   1.727  0.00  0.00    +0.079 C 
ENDBRANCH  25  26
BRANCH  19  28
ATOM     28  O   UNL     1       4.896   1.262  -0.619  0.00  0.00    -0.494 OA
ATOM     29  C   UNL     1       5.475   2.360  -1.318  0.00  0.00    +0.079 C 
ENDBRANCH  19  28
ENDBRANCH   4  15
BRANCH   1  31
ATOM     30  C   UNL     1      -5.225  -2.308  -1.951  0.00  0.00    +0.079 C 
ATOM     31  O   UNL     1      -4.689  -1.350  -1.045  0.00  0.00    -0.495 OA
ENDBRANCH   1  31
BRANCH   3  32
ATOM     32  O   UNL     1      -0.134  -1.622  -2.733  0.00  0.00    -0.506 OA
ATOM     33  H   UNL     1      -0.416  -2.225  -3.392  0.00  0.00    +0.000 HD
ENDBRANCH   3  32
TORSDOF 5
