REMARK  Name = 
REMARK  12 active torsions:
REMARK  status: ('A' for Active; 'I' for Inactive)
REMARK    1  A    between atoms: C_1  and  O_2
REMARK    2  A    between atoms: O_2  and  C_3
REMARK    3  A    between atoms: C_5  and  O_6
REMARK    4  A    between atoms: O_6  and  C_7
REMARK    5  A    between atoms: C_10  and  C_11
REMARK    6  A    between atoms: C_14  and  O_24
REMARK    7  A    between atoms: C_18  and  C_19
REMARK    8  A    between atoms: C_21  and  O_22
REMARK    9  A    between atoms: O_22  and  C_23
REMARK   10  A    between atoms: O_24  and  C_25
REMARK   11  A    between atoms: C_27  and  C_31
REMARK   12  A    between atoms: C_29  and  C_30
REMARK                            x       y       z     vdW  Elec       q    Type
REMARK                         _______ _______ _______ _____ _____    ______ ____
ROOT
ATOM      1  C   UNL     1      -1.107   1.312  -1.590  0.00  0.00    +0.132 A 
ATOM      2  C   UNL     1      -2.420   1.805  -1.556  0.00  0.00    +0.023 A 
ATOM      3  C   UNL     1      -3.389   1.237  -0.709  0.00  0.00    +0.133 A 
ATOM      4  C   UNL     1      -3.031   0.157   0.131  0.00  0.00    +0.041 A 
ATOM      5  C   UNL     1      -1.724  -0.381   0.056  0.00  0.00    -0.022 A 
ATOM      6  C   UNL     1      -0.758   0.219  -0.782  0.00  0.00    +0.028 A 
ATOM      7  C   UNL     1      -1.368  -1.563   0.940  0.00  0.00    -0.004 C 
ATOM      8  C   UNL     1      -2.591  -2.465   1.171  0.00  0.00    +0.052 C 
ATOM      9  N   UNL     1      -3.742  -1.657   1.575  0.00  0.00    -0.284 NA
ATOM     10  C   UNL     1      -3.990  -0.471   1.097  0.00  0.00    +0.044 C 
ATOM     11  C   UNL     1      -5.204   0.247   1.611  0.00  0.00    -0.022 C 
ATOM     12  C   UNL     1      -2.939  -3.281  -0.079  0.00  0.00    -0.042 C 
ENDROOT
BRANCH   6  13
ATOM     13  C   UNL     1       0.638  -0.283  -0.822  0.00  0.00    -0.006 A 
ATOM     14  C   UNL     1       1.008  -1.099  -1.892  0.00  0.00    -0.050 A 
ATOM     15  C   UNL     1       2.292  -1.622  -1.974  0.00  0.00    -0.019 A 
ATOM     16  C   UNL     1       3.252  -1.342  -0.985  0.00  0.00    +0.131 A 
ATOM     17  C   UNL     1       2.903  -0.508   0.112  0.00  0.00    +0.066 A 
ATOM     18  C   UNL     1       1.582   0.027   0.187  0.00  0.00    -0.003 A 
ATOM     19  C   UNL     1       1.234   0.866   1.264  0.00  0.00    -0.050 A 
ATOM     20  C   UNL     1       2.152   1.157   2.274  0.00  0.00    -0.046 A 
ATOM     21  C   UNL     1       1.769   2.078   3.396  0.00  0.00    -0.040 C 
ATOM     22  C   UNL     1       3.448   0.645   2.198  0.00  0.00    -0.016 A 
ATOM     23  C   UNL     1       3.839  -0.188   1.134  0.00  0.00    +0.132 A 
BRANCH  23  24
ATOM     24  O   UNL     1       5.146  -0.703   1.073  0.00  0.00    -0.494 OA
ATOM     25  C   UNL     1       6.171  -0.457   2.032  0.00  0.00    +0.079 C 
ENDBRANCH  23  24
BRANCH  16  26
ATOM     26  O   UNL     1       4.548  -1.880  -1.075  0.00  0.00    -0.494 OA
ATOM     27  C   UNL     1       5.012  -2.726  -2.122  0.00  0.00    +0.079 C 
ENDBRANCH  16  26
ENDBRANCH   6  13
BRANCH   1  29
ATOM     28  C   UNL     1      -0.331   2.995  -3.280  0.00  0.00    +0.079 C 
ATOM     29  O   UNL     1      -0.122   1.884  -2.414  0.00  0.00    -0.494 OA
ENDBRANCH   1  29
BRANCH   3  30
ATOM     30  O   UNL     1      -4.711   1.713  -0.705  0.00  0.00    -0.494 OA
ATOM     31  C   UNL     1      -5.198   2.788  -1.501  0.00  0.00    +0.079 C 
ENDBRANCH   3  30
TORSDOF 5
