REMARK  Name = 
REMARK  12 active torsions:
REMARK  status: ('A' for Active; 'I' for Inactive)
REMARK    1  A    between atoms: C_1  and  O_2
REMARK    2  A    between atoms: O_2  and  C_3
REMARK    3  A    between atoms: C_7  and  C_8
REMARK    4  A    between atoms: N_9  and  C_31
REMARK    5  A    between atoms: C_10  and  C_30
REMARK    6  A    between atoms: C_12  and  O_28
REMARK    7  A    between atoms: C_13  and  C_14
REMARK    8  A    between atoms: C_15  and  C_16
REMARK    9  A    between atoms: C_20  and  O_21
REMARK   10  A    between atoms: C_22  and  O_23
REMARK   11  A    between atoms: O_23  and  C_24
REMARK   12  A    between atoms: O_28  and  C_29
REMARK                            x       y       z     vdW  Elec       q    Type
REMARK                         _______ _______ _______ _____ _____    ______ ____
ROOT
ATOM      1  C   UNL     1      -0.254  -1.351  -1.451  0.00  0.00    +0.132 A 
ATOM      2  C   UNL     1      -1.616  -1.362  -1.780  0.00  0.00    -0.016 A 
ATOM      3  C   UNL     1      -2.558  -0.712  -0.973  0.00  0.00    -0.034 A 
ATOM      4  C   UNL     1      -4.009  -0.801  -1.382  0.00  0.00    -0.012 C 
ATOM      5  C   UNL     1      -4.942  -0.279  -0.280  0.00  0.00    +0.012 C 
ATOM      6  C   UNL     1      -6.401  -0.192  -0.754  0.00  0.00    -0.049 C 
ATOM      7  N   UNL     1      -4.452   1.006   0.271  0.00  0.00    -0.296 N 
ATOM      8  C   UNL     1      -3.184   0.773   1.017  0.00  0.00    +0.037 C 
ATOM      9  C   UNL     1      -2.136   0.031   0.162  0.00  0.00    +0.015 A 
ATOM     10  C   UNL     1      -0.775  -0.057   0.550  0.00  0.00    +0.136 A 
ATOM     11  C   UNL     1       0.161  -0.718  -0.271  0.00  0.00    +0.069 A 
ATOM     12  C   UNL     1      -2.683   2.090   1.650  0.00  0.00    -0.045 C 
ATOM     13  C   UNL     1      -4.325   2.075  -0.752  0.00  0.00    -0.012 C 
ATOM     14  H   UNL     1      -5.154   1.359   0.921  0.00  0.00    +0.000 HD
ENDROOT
BRANCH  11  15
ATOM     15  C   UNL     1       1.595  -0.746   0.112  0.00  0.00    +0.034 A 
ATOM     16  C   UNL     1       2.167  -1.934   0.623  0.00  0.00    -0.038 A 
ATOM     17  C   UNL     1       1.362  -3.202   0.769  0.00  0.00    -0.039 C 
ATOM     18  C   UNL     1       3.521  -1.953   0.970  0.00  0.00    -0.050 A 
ATOM     19  C   UNL     1       4.311  -0.805   0.854  0.00  0.00    -0.011 A 
ATOM     20  C   UNL     1       3.753   0.403   0.359  0.00  0.00    +0.066 A 
ATOM     21  C   UNL     1       2.387   0.420  -0.025  0.00  0.00    +0.136 A 
ATOM     22  C   UNL     1       4.583   1.553   0.257  0.00  0.00    +0.131 A 
ATOM     23  C   UNL     1       5.935   1.467   0.644  0.00  0.00    -0.019 A 
ATOM     24  C   UNL     1       6.464   0.272   1.125  0.00  0.00    -0.058 A 
ATOM     25  C   UNL     1       5.660  -0.858   1.230  0.00  0.00    -0.054 A 
BRANCH  21  26
ATOM     26  O   UNL     1       1.830   1.591  -0.553  0.00  0.00    -0.505 OA
ATOM     27  H   UNL     1       2.356   2.361  -0.642  0.00  0.00    +0.000 HD
ENDBRANCH  21  26
BRANCH  22  28
ATOM     28  O   UNL     1       4.051   2.762  -0.226  0.00  0.00    -0.494 OA
ATOM     29  C   UNL     1       4.782   3.976  -0.371  0.00  0.00    +0.079 C 
ENDBRANCH  22  28
ENDBRANCH  11  15
BRANCH   1  31
ATOM     30  C   UNL     1       0.428  -2.659  -3.477  0.00  0.00    +0.079 C 
ATOM     31  O   UNL     1       0.712  -1.965  -2.267  0.00  0.00    -0.494 OA
ENDBRANCH   1  31
BRANCH  10  32
ATOM     32  O   UNL     1      -0.337   0.507   1.750  0.00  0.00    -0.494 OA
ATOM     33  C   UNL     1      -0.233  -0.262   2.942  0.00  0.00    +0.079 C 
ENDBRANCH  10  32
TORSDOF 5
