REMARK  Name = 
REMARK  11 active torsions:
REMARK  status: ('A' for Active; 'I' for Inactive)
REMARK    1  A    between atoms: C_1  and  O_2
REMARK    2  A    between atoms: O_2  and  C_3
REMARK    3  A    between atoms: C_7  and  C_8
REMARK    4  A    between atoms: C_10  and  C_30
REMARK    5  A    between atoms: C_12  and  O_28
REMARK    6  A    between atoms: C_13  and  C_14
REMARK    7  A    between atoms: C_15  and  C_16
REMARK    8  A    between atoms: C_20  and  O_21
REMARK    9  A    between atoms: C_22  and  O_23
REMARK   10  A    between atoms: O_23  and  C_24
REMARK   11  A    between atoms: O_28  and  C_29
REMARK                            x       y       z     vdW  Elec       q    Type
REMARK                         _______ _______ _______ _____ _____    ______ ____
ROOT
ATOM      1  C   UNL     1      -0.749   1.266   0.990  0.00  0.00    +0.132 A 
ATOM      2  C   UNL     1      -2.082   1.319   1.418  0.00  0.00    -0.015 A 
ATOM      3  C   UNL     1      -3.044   0.475   0.859  0.00  0.00    -0.030 A 
ATOM      4  C   UNL     1      -4.473   0.553   1.335  0.00  0.00    -0.005 C 
ATOM      5  C   UNL     1      -5.421   0.178   0.185  0.00  0.00    +0.052 C 
ATOM      6  C   UNL     1      -6.864   0.064   0.672  0.00  0.00    -0.042 C 
ATOM      7  N   UNL     1      -5.002  -1.088  -0.416  0.00  0.00    -0.284 NA
ATOM      8  C   UNL     1      -3.753  -1.410  -0.597  0.00  0.00    +0.044 C 
ATOM      9  C   UNL     1      -2.675  -0.494  -0.097  0.00  0.00    +0.041 A 
ATOM     10  C   UNL     1      -1.329  -0.564  -0.537  0.00  0.00    +0.140 A 
ATOM     11  C   UNL     1      -0.373   0.339   0.000  0.00  0.00    +0.070 A 
ATOM     12  C   UNL     1      -3.459  -2.743  -1.219  0.00  0.00    -0.022 C 
ENDROOT
BRANCH  11  13
ATOM     13  C   UNL     1       1.016   0.401  -0.517  0.00  0.00    +0.034 A 
ATOM     14  C   UNL     1       1.289   0.989  -1.770  0.00  0.00    -0.038 A 
ATOM     15  C   UNL     1       0.189   1.573  -2.620  0.00  0.00    -0.039 C 
ATOM     16  C   UNL     1       2.595   0.971  -2.266  0.00  0.00    -0.050 A 
ATOM     17  C   UNL     1       3.650   0.468  -1.496  0.00  0.00    -0.011 A 
ATOM     18  C   UNL     1       3.409  -0.050  -0.194  0.00  0.00    +0.066 A 
ATOM     19  C   UNL     1       2.061  -0.147   0.256  0.00  0.00    +0.136 A 
ATOM     20  C   UNL     1       4.526  -0.412   0.612  0.00  0.00    +0.131 A 
ATOM     21  C   UNL     1       5.820  -0.382   0.053  0.00  0.00    -0.019 A 
ATOM     22  C   UNL     1       6.024   0.057  -1.251  0.00  0.00    -0.058 A 
ATOM     23  C   UNL     1       4.951   0.500  -2.016  0.00  0.00    -0.054 A 
BRANCH  19  24
ATOM     24  O   UNL     1       1.704  -0.823   1.427  0.00  0.00    -0.505 OA
ATOM     25  H   UNL     1       2.367  -1.202   1.970  0.00  0.00    +0.000 HD
ENDBRANCH  19  24
BRANCH  20  26
ATOM     26  O   UNL     1       4.345  -0.744   1.964  0.00  0.00    -0.494 OA
ATOM     27  C   UNL     1       5.386  -1.107   2.866  0.00  0.00    +0.079 C 
ENDBRANCH  20  26
ENDBRANCH  11  13
BRANCH   1  29
ATOM     28  C   UNL     1      -0.010   3.118   2.511  0.00  0.00    +0.079 C 
ATOM     29  O   UNL     1       0.229   2.133   1.511  0.00  0.00    -0.494 OA
ENDBRANCH   1  29
BRANCH  10  30
ATOM     30  O   UNL     1      -0.990  -1.503  -1.526  0.00  0.00    -0.494 OA
ATOM     31  C   UNL     1       0.176  -2.321  -1.509  0.00  0.00    +0.079 C 
ENDBRANCH  10  30
TORSDOF 5
