REMARK  Name = 
REMARK  12 active torsions:
REMARK  status: ('A' for Active; 'I' for Inactive)
REMARK    1  A    between atoms: C_1  and  O_2
REMARK    2  A    between atoms: O_2  and  C_3
REMARK    3  A    between atoms: C_7  and  C_8
REMARK    4  A    between atoms: C_10  and  C_31
REMARK    5  A    between atoms: C_12  and  O_29
REMARK    6  A    between atoms: C_13  and  C_14
REMARK    7  A    between atoms: C_15  and  C_16
REMARK    8  A    between atoms: C_18  and  O_27
REMARK    9  A    between atoms: C_24  and  O_25
REMARK   10  A    between atoms: O_25  and  C_26
REMARK   11  A    between atoms: O_27  and  C_28
REMARK   12  A    between atoms: O_29  and  C_30
REMARK                            x       y       z     vdW  Elec       q    Type
REMARK                         _______ _______ _______ _____ _____    ______ ____
ROOT
ATOM      1  C   UNL     1      -1.099  -1.279  -1.216  0.00  0.00    +0.132 A 
ATOM      2  C   UNL     1      -2.441  -1.654  -1.067  0.00  0.00    -0.015 A 
ATOM      3  C   UNL     1      -3.276  -0.977  -0.176  0.00  0.00    -0.030 A 
ATOM      4  C   UNL     1      -4.705  -1.427  -0.002  0.00  0.00    -0.005 C 
ATOM      5  C   UNL     1      -5.586  -0.221   0.362  0.00  0.00    +0.052 C 
ATOM      6  C   UNL     1      -7.002  -0.660   0.730  0.00  0.00    -0.042 C 
ATOM      7  N   UNL     1      -4.992   0.514   1.479  0.00  0.00    -0.284 NA
ATOM      8  C   UNL     1      -3.709   0.703   1.602  0.00  0.00    +0.044 C 
ATOM      9  C   UNL     1      -2.772   0.078   0.613  0.00  0.00    +0.041 A 
ATOM     10  C   UNL     1      -1.439   0.519   0.420  0.00  0.00    +0.140 A 
ATOM     11  C   UNL     1      -0.597  -0.185  -0.485  0.00  0.00    +0.067 A 
ATOM     12  C   UNL     1      -3.226   1.468   2.799  0.00  0.00    -0.022 C 
ENDROOT
BRANCH  11  13
ATOM     13  C   UNL     1       0.847   0.142  -0.625  0.00  0.00    +0.000 A 
ATOM     14  C   UNL     1       1.295   0.830  -1.773  0.00  0.00    -0.038 A 
ATOM     15  C   UNL     1       0.348   1.224  -2.882  0.00  0.00    -0.039 C 
ATOM     16  C   UNL     1       2.654   1.118  -1.921  0.00  0.00    -0.016 A 
ATOM     17  C   UNL     1       3.592   0.762  -0.939  0.00  0.00    +0.132 A 
ATOM     18  C   UNL     1       3.163   0.071   0.223  0.00  0.00    +0.066 A 
ATOM     19  C   UNL     1       1.780  -0.251   0.371  0.00  0.00    -0.003 A 
ATOM     20  C   UNL     1       1.360  -0.966   1.513  0.00  0.00    -0.053 A 
ATOM     21  C   UNL     1       2.268  -1.338   2.496  0.00  0.00    -0.058 A 
ATOM     22  C   UNL     1       3.612  -1.015   2.368  0.00  0.00    -0.019 A 
ATOM     23  C   UNL     1       4.081  -0.315   1.241  0.00  0.00    +0.131 A 
BRANCH  23  24
ATOM     24  O   UNL     1       5.445   0.005   1.117  0.00  0.00    -0.494 OA
ATOM     25  C   UNL     1       6.454  -0.327   2.066  0.00  0.00    +0.079 C 
ENDBRANCH  23  24
BRANCH  17  26
ATOM     26  O   UNL     1       4.953   1.079  -1.103  0.00  0.00    -0.494 OA
ATOM     27  C   UNL     1       5.507   1.770  -2.219  0.00  0.00    +0.079 C 
ENDBRANCH  17  26
ENDBRANCH  11  13
BRANCH   1  29
ATOM     28  C   UNL     1      -0.603  -3.088  -2.879  0.00  0.00    +0.079 C 
ATOM     29  O   UNL     1      -0.230  -1.975  -2.074  0.00  0.00    -0.494 OA
ENDBRANCH   1  29
BRANCH  10  30
ATOM     30  O   UNL     1      -0.997   1.640   1.146  0.00  0.00    -0.494 OA
ATOM     31  C   UNL     1      -0.141   2.667   0.655  0.00  0.00    +0.079 C 
ENDBRANCH  10  30
TORSDOF 5
