REMARK  Name = 
REMARK  12 active torsions:
REMARK  status: ('A' for Active; 'I' for Inactive)
REMARK    1  A    between atoms: C_1  and  O_2
REMARK    2  A    between atoms: O_2  and  C_3
REMARK    3  A    between atoms: C_5  and  O_6
REMARK    4  A    between atoms: C_7  and  C_17
REMARK    5  A    between atoms: C_10  and  C_11
REMARK    6  A    between atoms: N_12  and  C_13
REMARK    7  A    between atoms: C_14  and  C_16
REMARK    8  A    between atoms: C_20  and  O_30
REMARK    9  A    between atoms: C_24  and  C_25
REMARK   10  A    between atoms: C_27  and  O_28
REMARK   11  A    between atoms: O_28  and  C_29
REMARK   12  A    between atoms: O_30  and  C_31
REMARK                            x       y       z     vdW  Elec       q    Type
REMARK                         _______ _______ _______ _____ _____    ______ ____
ROOT
ATOM      1  C   UNL     1      -2.802   0.586  -2.227  0.00  0.00    +0.129 A 
ATOM      2  C   UNL     1      -1.662   0.947  -2.964  0.00  0.00    +0.022 A 
ATOM      3  C   UNL     1      -0.438   1.160  -2.335  0.00  0.00    +0.128 A 
ATOM      4  C   UNL     1      -0.327   0.995  -0.940  0.00  0.00    +0.028 A 
ATOM      5  C   UNL     1      -1.463   0.614  -0.186  0.00  0.00    -0.027 A 
ATOM      6  C   UNL     1      -2.714   0.451  -0.824  0.00  0.00    +0.015 A 
ATOM      7  C   UNL     1      -3.977   0.129  -0.017  0.00  0.00    +0.037 C 
ATOM      8  C   UNL     1      -4.873   1.377   0.014  0.00  0.00    -0.045 C 
ATOM      9  N   UNL     1      -3.726  -0.293   1.391  0.00  0.00    -0.296 N 
ATOM     10  C   UNL     1      -4.751  -1.229   1.890  0.00  0.00    -0.012 C 
ATOM     11  C   UNL     1      -2.352  -0.739   1.707  0.00  0.00    +0.012 C 
ATOM     12  C   UNL     1      -1.368   0.357   1.296  0.00  0.00    -0.011 C 
ATOM     13  C   UNL     1      -1.990  -2.104   1.077  0.00  0.00    -0.049 C 
ATOM     14  H   UNL     1      -3.814   0.578   1.914  0.00  0.00    +0.000 HD
ENDROOT
BRANCH   4  15
ATOM     15  C   UNL     1       0.988   1.191  -0.284  0.00  0.00    -0.006 A 
ATOM     16  C   UNL     1       1.330   2.480   0.126  0.00  0.00    -0.050 A 
ATOM     17  C   UNL     1       2.549   2.727   0.745  0.00  0.00    -0.019 A 
ATOM     18  C   UNL     1       3.467   1.686   0.975  0.00  0.00    +0.131 A 
ATOM     19  C   UNL     1       3.142   0.363   0.569  0.00  0.00    +0.066 A 
ATOM     20  C   UNL     1       1.888   0.120  -0.067  0.00  0.00    -0.003 A 
ATOM     21  C   UNL     1       1.554  -1.190  -0.464  0.00  0.00    -0.050 A 
ATOM     22  C   UNL     1       2.423  -2.255  -0.230  0.00  0.00    -0.046 A 
ATOM     23  C   UNL     1       2.053  -3.637  -0.685  0.00  0.00    -0.040 C 
ATOM     24  C   UNL     1       3.662  -2.018   0.369  0.00  0.00    -0.016 A 
ATOM     25  C   UNL     1       4.035  -0.723   0.778  0.00  0.00    +0.132 A 
BRANCH  25  26
ATOM     26  O   UNL     1       5.282  -0.498   1.388  0.00  0.00    -0.494 OA
ATOM     27  C   UNL     1       6.259  -1.501   1.651  0.00  0.00    +0.079 C 
ENDBRANCH  25  26
BRANCH  18  28
ATOM     28  O   UNL     1       4.697   1.946   1.604  0.00  0.00    -0.494 OA
ATOM     29  C   UNL     1       5.133   3.224   2.055  0.00  0.00    +0.079 C 
ENDBRANCH  18  28
ENDBRANCH   4  15
BRANCH   1  31
ATOM     30  C   UNL     1      -4.264   0.447  -4.260  0.00  0.00    +0.079 C 
ATOM     31  O   UNL     1      -4.036   0.349  -2.858  0.00  0.00    -0.495 OA
ENDBRANCH   1  31
BRANCH   3  32
ATOM     32  O   UNL     1       0.656   1.523  -3.124  0.00  0.00    -0.506 OA
ATOM     33  H   UNL     1       0.552   1.625  -4.050  0.00  0.00    +0.000 HD
ENDBRANCH   3  32
TORSDOF 5
