REMARK  Name = 
REMARK  11 active torsions:
REMARK  status: ('A' for Active; 'I' for Inactive)
REMARK    1  A    between atoms: C_1  and  O_2
REMARK    2  A    between atoms: O_2  and  C_3
REMARK    3  A    between atoms: C_7  and  C_12
REMARK    4  A    between atoms: N_8  and  C_11
REMARK    5  A    between atoms: C_9  and  C_10
REMARK    6  A    between atoms: C_14  and  O_30
REMARK    7  A    between atoms: C_15  and  C_16
REMARK    8  A    between atoms: C_17  and  C_18
REMARK    9  A    between atoms: C_22  and  O_23
REMARK   10  A    between atoms: C_24  and  O_25
REMARK   11  A    between atoms: O_25  and  C_26
REMARK                            x       y       z     vdW  Elec       q    Type
REMARK                         _______ _______ _______ _____ _____    ______ ____
ROOT
ATOM      1  C   UNL     1      -0.684  -0.233  -0.054  0.00  0.00    +0.136 A 
ATOM      2  C   UNL     1      -2.034   0.026  -0.367  0.00  0.00    +0.015 A 
ATOM      3  C   UNL     1      -2.442   0.090  -1.709  0.00  0.00    -0.034 A 
ATOM      4  C   UNL     1      -3.850   0.508  -2.047  0.00  0.00    -0.012 C 
ATOM      5  C   UNL     1      -4.917   0.019  -1.025  0.00  0.00    +0.012 C 
ATOM      6  N   UNL     1      -4.336  -0.396   0.283  0.00  0.00    -0.296 N 
ATOM      7  C   UNL     1      -3.070   0.243   0.708  0.00  0.00    +0.037 C 
ATOM      8  C   UNL     1      -3.215   1.739   1.027  0.00  0.00    -0.045 C 
ATOM      9  C   UNL     1      -5.299  -0.629   1.372  0.00  0.00    -0.012 C 
ATOM     10  C   UNL     1      -6.047   1.061  -0.894  0.00  0.00    -0.049 C 
ATOM     11  C   UNL     1      -1.502  -0.085  -2.732  0.00  0.00    -0.016 A 
ATOM     12  C   UNL     1      -0.163  -0.342  -2.435  0.00  0.00    +0.128 A 
ATOM     13  C   UNL     1       0.255  -0.428  -1.090  0.00  0.00    +0.069 A 
ATOM     14  H   UNL     1      -4.015  -1.331   0.032  0.00  0.00    +0.000 HD
ENDROOT
BRANCH  13  15
ATOM     15  C   UNL     1       1.678  -0.682  -0.760  0.00  0.00    +0.034 A 
ATOM     16  C   UNL     1       2.201  -1.991  -0.859  0.00  0.00    -0.038 A 
ATOM     17  C   UNL     1       1.342  -3.148  -1.306  0.00  0.00    -0.039 C 
ATOM     18  C   UNL     1       3.546  -2.221  -0.556  0.00  0.00    -0.050 A 
ATOM     19  C   UNL     1       4.377  -1.180  -0.130  0.00  0.00    -0.011 A 
ATOM     20  C   UNL     1       3.868   0.141  -0.011  0.00  0.00    +0.066 A 
ATOM     21  C   UNL     1       2.510   0.385  -0.341  0.00  0.00    +0.136 A 
ATOM     22  C   UNL     1       4.739   1.176   0.429  0.00  0.00    +0.131 A 
ATOM     23  C   UNL     1       6.080   0.869   0.732  0.00  0.00    -0.019 A 
ATOM     24  C   UNL     1       6.560  -0.431   0.606  0.00  0.00    -0.058 A 
ATOM     25  C   UNL     1       5.717  -1.451   0.179  0.00  0.00    -0.054 A 
BRANCH  21  26
ATOM     26  O   UNL     1       1.999   1.685  -0.261  0.00  0.00    -0.505 OA
ATOM     27  H   UNL     1       2.551   2.389   0.016  0.00  0.00    +0.000 HD
ENDBRANCH  21  26
BRANCH  22  28
ATOM     28  O   UNL     1       4.257   2.491   0.559  0.00  0.00    -0.494 OA
ATOM     29  C   UNL     1       5.031   3.606   0.990  0.00  0.00    +0.079 C 
ENDBRANCH  22  28
ENDBRANCH  13  15
BRANCH   1  31
ATOM     30  C   UNL     1      -0.048  -1.478   1.981  0.00  0.00    +0.079 C 
ATOM     31  O   UNL     1      -0.279  -0.259   1.285  0.00  0.00    -0.494 OA
ENDBRANCH   1  31
BRANCH  12  32
ATOM     32  O   UNL     1       0.734  -0.484  -3.496  0.00  0.00    -0.506 OA
ATOM     33  H   UNL     1       0.429  -0.422  -4.380  0.00  0.00    +0.000 HD
ENDBRANCH  12  32
TORSDOF 5
