REMARK  Name = 
REMARK  5 active torsions:
REMARK  status: ('A' for Active; 'I' for Inactive)
REMARK    1  A    between atoms: C_1  and  O_2
REMARK    2  A    between atoms: O_2  and  C_3
REMARK    3  A    between atoms: C_4  and  O_5
REMARK    4  A    between atoms: O_5  and  C_6
REMARK    5  A    between atoms: C_15  and  C_18
REMARK                            x       y       z     vdW  Elec       q    Type
REMARK                         _______ _______ _______ _____ _____    ______ ____
ROOT
ATOM      1  C   UNL     1      -0.924   0.912  -0.080  0.00  0.00    +0.173 A 
ATOM      2  C   UNL     1      -1.872  -0.041   0.370  0.00  0.00    +0.162 A 
ATOM      3  C   UNL     1      -1.461  -1.363   0.596  0.00  0.00    -0.016 A 
ATOM      4  C   UNL     1      -0.148  -1.755   0.366  0.00  0.00    -0.047 A 
ATOM      5  C   UNL     1       0.806  -0.843  -0.114  0.00  0.00    +0.031 A 
ATOM      6  C   UNL     1       0.420   0.508  -0.310  0.00  0.00    +0.081 A 
ATOM      7  C   UNL     1       1.458   1.483  -0.734  0.00  0.00    +0.237 C 
ATOM      8  O   UNL     1       1.178   2.691  -0.958  0.00  0.00    -0.283 OA
ATOM      9  C   UNL     1       2.845   1.035  -0.888  0.00  0.00    +0.232 C 
ATOM     10  O   UNL     1       3.736   1.868  -1.205  0.00  0.00    -0.283 OA
ATOM     11  C   UNL     1       3.183  -0.390  -0.691  0.00  0.00    +0.042 C 
ATOM     12  C   UNL     1       2.220  -1.284  -0.385  0.00  0.00    +0.131 C 
ATOM     13  O   UNL     1       2.576  -2.638  -0.349  0.00  0.00    -0.506 OA
ATOM     14  C   UNL     1       4.596  -0.857  -0.947  0.00  0.00    -0.032 C 
ENDROOT
BRANCH   1  16
ATOM     15  C   UNL     1      -2.526   2.880  -0.137  0.00  0.00    +0.079 C 
ATOM     16  O   UNL     1      -1.255   2.263  -0.311  0.00  0.00    -0.491 OA
ENDBRANCH   1  16
BRANCH   2  17
ATOM     17  O   UNL     1      -3.205   0.340   0.593  0.00  0.00    -0.491 OA
ATOM     18  C   UNL     1      -4.242  -0.527   1.043  0.00  0.00    +0.079 C 
ENDBRANCH   2  17
TORSDOF 2
