REMARK  Name = 
REMARK  11 active torsions:
REMARK  status: ('A' for Active; 'I' for Inactive)
REMARK    1  A    between atoms: C_1  and  O_2
REMARK    2  A    between atoms: O_2  and  C_3
REMARK    3  A    between atoms: C_5  and  O_6
REMARK    4  A    between atoms: C_7  and  C_16
REMARK    5  A    between atoms: C_10  and  C_11
REMARK    6  A    between atoms: C_13  and  C_15
REMARK    7  A    between atoms: C_19  and  O_29
REMARK    8  A    between atoms: C_23  and  C_24
REMARK    9  A    between atoms: C_26  and  O_27
REMARK   10  A    between atoms: O_27  and  C_28
REMARK   11  A    between atoms: O_29  and  C_30
REMARK                            x       y       z     vdW  Elec       q    Type
REMARK                         _______ _______ _______ _____ _____    ______ ____
ROOT
ATOM      1  C   UNL     1      -3.710   0.858   0.653  0.00  0.00    +0.128 A 
ATOM      2  C   UNL     1      -2.922   1.848   1.261  0.00  0.00    +0.022 A 
ATOM      3  C   UNL     1      -1.563   1.958   0.978  0.00  0.00    +0.128 A 
ATOM      4  C   UNL     1      -0.961   1.071   0.065  0.00  0.00    +0.028 A 
ATOM      5  C   UNL     1      -1.733   0.052  -0.544  0.00  0.00    -0.027 A 
ATOM      6  C   UNL     1      -3.116  -0.048  -0.252  0.00  0.00    +0.015 A 
ATOM      7  C   UNL     1      -3.966  -1.156  -0.866  0.00  0.00    +0.034 C 
ATOM      8  C   UNL     1      -4.284  -2.248   0.167  0.00  0.00    -0.045 C 
ATOM      9  N   UNL     1      -3.354  -1.745  -2.070  0.00  0.00    -0.307 N 
ATOM     10  C   UNL     1      -1.943  -2.101  -1.861  0.00  0.00    +0.009 C 
ATOM     11  C   UNL     1      -1.106  -0.845  -1.591  0.00  0.00    -0.011 C 
ATOM     12  C   UNL     1      -1.415  -2.853  -3.085  0.00  0.00    -0.049 C 
ATOM     13  H   UNL     1      -3.413  -1.070  -2.832  0.00  0.00    +0.000 HD
ATOM     14  H   UNL     1      -3.862  -2.601  -2.291  0.00  0.00    +0.000 HD
ENDROOT
BRANCH   4  15
ATOM     15  C   UNL     1       0.480   1.217  -0.255  0.00  0.00    -0.006 A 
ATOM     16  C   UNL     1       0.834   2.063  -1.307  0.00  0.00    -0.050 A 
ATOM     17  C   UNL     1       2.167   2.238  -1.657  0.00  0.00    -0.019 A 
ATOM     18  C   UNL     1       3.191   1.568  -0.965  0.00  0.00    +0.131 A 
ATOM     19  C   UNL     1       2.857   0.699   0.109  0.00  0.00    +0.066 A 
ATOM     20  C   UNL     1       1.486   0.528   0.465  0.00  0.00    -0.003 A 
ATOM     21  C   UNL     1       1.147  -0.332   1.528  0.00  0.00    -0.050 A 
ATOM     22  C   UNL     1       2.133  -1.008   2.247  0.00  0.00    -0.046 A 
ATOM     23  C   UNL     1       1.746  -1.951   3.350  0.00  0.00    -0.040 C 
ATOM     24  C   UNL     1       3.474  -0.859   1.890  0.00  0.00    -0.016 A 
ATOM     25  C   UNL     1       3.854  -0.010   0.834  0.00  0.00    +0.132 A 
BRANCH  25  26
ATOM     26  O   UNL     1       5.210   0.140   0.490  0.00  0.00    -0.494 OA
ATOM     27  C   UNL     1       6.297  -0.513   1.138  0.00  0.00    +0.079 C 
ENDBRANCH  25  26
BRANCH  18  28
ATOM     28  O   UNL     1       4.537   1.752  -1.328  0.00  0.00    -0.494 OA
ATOM     29  C   UNL     1       4.993   2.593  -2.383  0.00  0.00    +0.079 C 
ENDBRANCH  18  28
ENDBRANCH   4  15
BRANCH   1  31
ATOM     30  C   UNL     1      -5.807   1.586   1.818  0.00  0.00    +0.079 C 
ATOM     31  O   UNL     1      -5.085   0.748   0.922  0.00  0.00    -0.495 OA
ENDBRANCH   1  31
BRANCH   3  32
ATOM     32  O   UNL     1      -0.835   2.965   1.617  0.00  0.00    -0.506 OA
ATOM     33  H   UNL     1      -1.263   3.542   2.220  0.00  0.00    +0.000 HD
ENDBRANCH   3  32
TORSDOF 5
