REMARK  Name = 
REMARK  11 active torsions:
REMARK  status: ('A' for Active; 'I' for Inactive)
REMARK    1  A    between atoms: C_1  and  O_2
REMARK    2  A    between atoms: O_2  and  C_3
REMARK    3  A    between atoms: C_5  and  C_6
REMARK    4  A    between atoms: C_8  and  C_30
REMARK    5  A    between atoms: C_12  and  O_29
REMARK    6  A    between atoms: C_13  and  C_14
REMARK    7  A    between atoms: C_15  and  C_16
REMARK    8  A    between atoms: C_18  and  O_27
REMARK    9  A    between atoms: C_24  and  O_25
REMARK   10  A    between atoms: O_25  and  C_26
REMARK   11  A    between atoms: O_27  and  C_28
REMARK                            x       y       z     vdW  Elec       q    Type
REMARK                         _______ _______ _______ _____ _____    ______ ____
ROOT
ATOM      1  C   UNL     1      -1.356   0.098   0.432  0.00  0.00    +0.136 A 
ATOM      2  C   UNL     1      -2.731  -0.124   0.173  0.00  0.00    +0.015 A 
ATOM      3  C   UNL     1      -3.685  -0.486   1.321  0.00  0.00    +0.034 C 
ATOM      4  C   UNL     1      -3.800   0.686   2.306  0.00  0.00    -0.045 C 
ATOM      5  N   UNL     1      -5.059  -0.820   0.885  0.00  0.00    -0.307 N 
ATOM      6  C   UNL     1      -5.123  -1.449  -0.438  0.00  0.00    +0.009 C 
ATOM      7  C   UNL     1      -4.617  -0.449  -1.478  0.00  0.00    -0.012 C 
ATOM      8  C   UNL     1      -3.206  -0.056  -1.152  0.00  0.00    -0.034 A 
ATOM      9  C   UNL     1      -2.360   0.359  -2.181  0.00  0.00    -0.016 A 
ATOM     10  C   UNL     1      -1.018   0.632  -1.936  0.00  0.00    +0.128 A 
ATOM     11  C   UNL     1      -0.496   0.495  -0.631  0.00  0.00    +0.066 A 
ATOM     12  C   UNL     1      -6.565  -1.858  -0.757  0.00  0.00    -0.049 C 
ATOM     13  H   UNL     1      -5.607   0.040   0.858  0.00  0.00    +0.000 HD
ATOM     14  H   UNL     1      -5.427  -1.496   1.554  0.00  0.00    +0.000 HD
ENDROOT
BRANCH  11  15
ATOM     15  C   UNL     1       0.963   0.686  -0.425  0.00  0.00    +0.000 A 
ATOM     16  C   UNL     1       1.477   1.993  -0.281  0.00  0.00    -0.038 A 
ATOM     17  C   UNL     1       0.580   3.205  -0.359  0.00  0.00    -0.039 C 
ATOM     18  C   UNL     1       2.851   2.181  -0.118  0.00  0.00    -0.016 A 
ATOM     19  C   UNL     1       3.742   1.096  -0.073  0.00  0.00    +0.132 A 
ATOM     20  C   UNL     1       3.246  -0.225  -0.217  0.00  0.00    +0.066 A 
ATOM     21  C   UNL     1       1.846  -0.426  -0.406  0.00  0.00    -0.003 A 
ATOM     22  C   UNL     1       1.355  -1.738  -0.568  0.00  0.00    -0.053 A 
ATOM     23  C   UNL     1       2.214  -2.830  -0.536  0.00  0.00    -0.058 A 
ATOM     24  C   UNL     1       3.577  -2.644  -0.345  0.00  0.00    -0.019 A 
ATOM     25  C   UNL     1       4.113  -1.354  -0.184  0.00  0.00    +0.131 A 
BRANCH  25  26
ATOM     26  O   UNL     1       5.495  -1.175   0.007  0.00  0.00    -0.494 OA
ATOM     27  C   UNL     1       6.457  -2.223   0.059  0.00  0.00    +0.079 C 
ENDBRANCH  25  26
BRANCH  19  28
ATOM     28  O   UNL     1       5.120   1.312   0.108  0.00  0.00    -0.494 OA
ATOM     29  C   UNL     1       5.740   2.584   0.268  0.00  0.00    +0.079 C 
ENDBRANCH  19  28
ENDBRANCH  11  15
BRANCH   1  31
ATOM     30  C   UNL     1       0.114   0.587   2.430  0.00  0.00    +0.079 C 
ATOM     31  O   UNL     1      -0.897  -0.143   1.742  0.00  0.00    -0.494 OA
ENDBRANCH   1  31
BRANCH  10  32
ATOM     32  O   UNL     1      -0.218   1.008  -3.019  0.00  0.00    -0.506 OA
ATOM     33  H   UNL     1      -0.595   1.090  -3.873  0.00  0.00    +0.000 HD
ENDBRANCH  10  32
TORSDOF 5
