REMARK  Name = 
REMARK  13 active torsions:
REMARK  status: ('A' for Active; 'I' for Inactive)
REMARK    1  A    between atoms: C_1  and  O_2
REMARK    2  A    between atoms: O_2  and  C_3
REMARK    3  A    between atoms: C_5  and  O_6
REMARK    4  A    between atoms: O_6  and  C_7
REMARK    5  A    between atoms: C_10  and  C_11
REMARK    6  A    between atoms: C_12  and  C_13
REMARK    7  A    between atoms: C_15  and  O_24
REMARK    8  A    between atoms: C_21  and  O_22
REMARK    9  A    between atoms: O_22  and  C_23
REMARK   10  A    between atoms: O_24  and  C_25
REMARK   11  A    between atoms: C_27  and  C_32
REMARK   12  A    between atoms: N_28  and  C_31
REMARK   13  A    between atoms: C_29  and  C_30
REMARK                            x       y       z     vdW  Elec       q    Type
REMARK                         _______ _______ _______ _____ _____    ______ ____
ROOT
ATOM      1  C   UNL     1      -0.594  -2.040  -0.895  0.00  0.00    +0.132 A 
ATOM      2  C   UNL     1      -1.896  -2.300  -1.348  0.00  0.00    +0.023 A 
ATOM      3  C   UNL     1      -2.959  -1.442  -1.020  0.00  0.00    +0.129 A 
ATOM      4  C   UNL     1      -2.716  -0.296  -0.232  0.00  0.00    +0.015 A 
ATOM      5  C   UNL     1      -1.402   0.003   0.172  0.00  0.00    -0.027 A 
ATOM      6  C   UNL     1      -0.347  -0.890  -0.130  0.00  0.00    +0.028 A 
ATOM      7  C   UNL     1      -1.157   1.278   0.926  0.00  0.00    -0.011 C 
ATOM      8  C   UNL     1      -2.134   2.358   0.446  0.00  0.00    +0.012 C 
ATOM      9  N   UNL     1      -3.522   1.928   0.746  0.00  0.00    -0.296 N 
ATOM     10  C   UNL     1      -3.891   0.579   0.216  0.00  0.00    +0.037 C 
ATOM     11  C   UNL     1      -4.666  -0.161   1.313  0.00  0.00    -0.045 C 
ATOM     12  C   UNL     1      -4.515   2.935   0.315  0.00  0.00    -0.012 C 
ATOM     13  C   UNL     1      -1.784   3.683   1.151  0.00  0.00    -0.049 C 
ATOM     14  H   UNL     1      -3.543   1.845   1.762  0.00  0.00    +0.000 HD
ENDROOT
BRANCH   6  15
ATOM     15  C   UNL     1       1.037  -0.633   0.350  0.00  0.00    -0.003 A 
ATOM     16  C   UNL     1       1.423  -1.101   1.622  0.00  0.00    -0.039 A 
ATOM     17  C   UNL     1       0.456  -1.857   2.500  0.00  0.00    -0.039 C 
ATOM     18  C   UNL     1       2.717  -0.852   2.088  0.00  0.00    -0.016 A 
ATOM     19  C   UNL     1       3.654  -0.149   1.313  0.00  0.00    +0.132 A 
ATOM     20  C   UNL     1       3.286   0.324   0.026  0.00  0.00    +0.066 A 
ATOM     21  C   UNL     1       1.966   0.077  -0.454  0.00  0.00    -0.003 A 
ATOM     22  C   UNL     1       1.596   0.553  -1.729  0.00  0.00    -0.053 A 
ATOM     23  C   UNL     1       2.501   1.250  -2.520  0.00  0.00    -0.058 A 
ATOM     24  C   UNL     1       3.790   1.492  -2.063  0.00  0.00    -0.019 A 
ATOM     25  C   UNL     1       4.202   1.041  -0.795  0.00  0.00    +0.131 A 
BRANCH  25  26
ATOM     26  O   UNL     1       5.508   1.294  -0.338  0.00  0.00    -0.494 OA
ATOM     27  C   UNL     1       6.508   2.001  -1.064  0.00  0.00    +0.079 C 
ENDBRANCH  25  26
BRANCH  19  28
ATOM     28  O   UNL     1       4.951   0.089   1.801  0.00  0.00    -0.494 OA
ATOM     29  C   UNL     1       5.442  -0.334   3.070  0.00  0.00    +0.079 C 
ENDBRANCH  19  28
ENDBRANCH   6  15
BRANCH   1  31
ATOM     30  C   UNL     1       0.376  -4.099  -1.947  0.00  0.00    +0.079 C 
ATOM     31  O   UNL     1       0.480  -2.898  -1.189  0.00  0.00    -0.494 OA
ENDBRANCH   1  31
BRANCH   3  32
ATOM     32  O   UNL     1      -4.269  -1.698  -1.462  0.00  0.00    -0.495 OA
ATOM     33  C   UNL     1      -4.660  -2.822  -2.243  0.00  0.00    +0.079 C 
ENDBRANCH   3  32
TORSDOF 5
