REMARK  Name = 
REMARK  3 active torsions:
REMARK  status: ('A' for Active; 'I' for Inactive)
REMARK    1  A    between atoms: C_1  and  C_2
REMARK    2  A    between atoms: C_9  and  C_10
REMARK    3  A    between atoms: C_9  and  C_11
REMARK                            x       y       z     vdW  Elec       q    Type
REMARK                         _______ _______ _______ _____ _____    ______ ____
ROOT
ATOM      1  C   UNL     1       2.221  -2.006   0.658  0.00  0.00    -0.062 C 
ATOM      2  C   UNL     1       1.843  -1.091  -0.521  0.00  0.00    -0.040 C 
ATOM      3  C   UNL     1       2.972  -0.086  -0.819  0.00  0.00    -0.050 C 
ATOM      4  C   UNL     1       2.477   1.297  -0.383  0.00  0.00    -0.046 C 
ATOM      5  C   UNL     1       1.157   1.063   0.346  0.00  0.00    -0.017 C 
ATOM      6  C   UNL     1       0.600  -0.210  -0.283  0.00  0.00    -0.028 C 
ATOM      7  C   UNL     1      -0.501  -0.824   0.612  0.00  0.00    -0.029 C 
ATOM      8  C   UNL     1      -1.776   0.016   0.850  0.00  0.00    -0.032 C 
ATOM      9  C   UNL     1      -1.843  -1.290   0.029  0.00  0.00    -0.028 C 
ATOM     10  C   UNL     1      -2.014  -1.278  -1.502  0.00  0.00    -0.059 C 
ATOM     11  C   UNL     1      -2.439  -2.505   0.751  0.00  0.00    -0.059 C 
ATOM     12  C   UNL     1      -2.162   1.333   0.116  0.00  0.00    -0.046 C 
ATOM     13  C   UNL     1      -1.061   2.184  -0.545  0.00  0.00    -0.031 C 
ATOM     14  C   UNL     1       0.216   2.252   0.267  0.00  0.00    -0.073 C 
ATOM     15  C   UNL     1       0.496   3.356   0.979  0.00  0.00    -0.099 C 
ENDROOT
TORSDOF 0
