REMARK  Name = 
REMARK  16 active torsions:
REMARK  status: ('A' for Active; 'I' for Inactive)
REMARK    1  A    between atoms: O_1  and  C_2
REMARK    2  A    between atoms: C_2  and  C_3
REMARK    3  A    between atoms: C_3  and  C_4
REMARK    4  A    between atoms: C_5  and  C_6
REMARK    5  A    between atoms: C_6  and  C_7
REMARK    6  A    between atoms: C_8  and  C_9
REMARK    7  A    between atoms: C_9  and  C_10
REMARK    8  A    between atoms: C_11  and  C_12
REMARK    9  A    between atoms: C_12  and  C_13
REMARK   10  A    between atoms: C_13  and  C_14
REMARK   11  A    between atoms: C_14  and  C_15
REMARK   12  A    between atoms: C_15  and  C_16
REMARK   13  A    between atoms: C_16  and  C_17
REMARK   14  A    between atoms: C_17  and  C_18
REMARK   15  A    between atoms: C_19  and  O_20
REMARK   16  A    between atoms: O_20  and  C_21
REMARK                            x       y       z     vdW  Elec       q    Type
REMARK                         _______ _______ _______ _____ _____    ______ ____
ROOT
ATOM      1  C   UNL     1      -0.303   0.650   0.390  0.00  0.00    -0.050 C 
ENDROOT
BRANCH   1   2
ATOM      2  C   UNL     1       0.855   1.617   0.099  0.00  0.00    -0.035 C 
BRANCH   2   4
ATOM      3  C   UNL     1       2.318   1.436   2.161  0.00  0.00    -0.084 C 
ATOM      4  C   UNL     1       1.505   2.145   1.356  0.00  0.00    -0.088 C 
BRANCH   3   5
ATOM      5  C   UNL     1       2.657  -0.022   1.970  0.00  0.00    -0.017 C 
BRANCH   5   7
ATOM      6  C   UNL     1       5.170   0.040   1.755  0.00  0.00    -0.084 C 
ATOM      7  C   UNL     1       4.061  -0.303   2.437  0.00  0.00    -0.084 C 
BRANCH   6   8
ATOM      8  C   UNL     1       5.168   0.717   0.405  0.00  0.00    -0.017 C 
BRANCH   8  10
ATOM      9  C   UNL     1       5.806  -1.111  -1.222  0.00  0.00    -0.085 C 
ATOM     10  C   UNL     1       4.890  -0.276  -0.696  0.00  0.00    -0.084 C 
BRANCH   9  11
ATOM     11  C   UNL     1       7.268  -1.125  -0.850  0.00  0.00    -0.011 C 
BRANCH  11  12
ATOM     12  C   UNL     1       8.062  -0.117  -1.682  0.00  0.00    +0.048 C 
BRANCH  12  13
ATOM     13  O   UNL     1       8.033  -0.483  -3.034  0.00  0.00    -0.395 OA
ATOM     14  H   UNL     1       8.538   0.160  -3.554  0.00  0.00    +0.000 HD
ENDBRANCH  12  13
ENDBRANCH  11  12
ENDBRANCH   9  11
ENDBRANCH   8  10
ENDBRANCH   6   8
ENDBRANCH   5   7
ENDBRANCH   3   5
ENDBRANCH   2   4
ENDBRANCH   1   2
BRANCH   1  15
ATOM     15  C   UNL     1      -1.495   1.359   1.058  0.00  0.00    -0.053 C 
BRANCH  15  16
ATOM     16  C   UNL     1      -2.608   0.382   1.468  0.00  0.00    -0.053 C 
BRANCH  16  17
ATOM     17  C   UNL     1      -3.404  -0.146   0.266  0.00  0.00    -0.049 C 
BRANCH  17  18
ATOM     18  C   UNL     1      -4.532  -1.073   0.729  0.00  0.00    -0.017 C 
BRANCH  18  19
ATOM     19  C   UNL     1      -5.310  -1.587  -0.449  0.00  0.00    +0.082 C 
ATOM     20  C   UNL     1      -6.421  -1.059  -0.955  0.00  0.00    +0.172 C 
ATOM     21  C   UNL     1      -6.814  -1.866  -2.126  0.00  0.00    +0.167 C 
ATOM     22  C   UNL     1      -7.804  -1.640  -2.984  0.00  0.00    -0.052 C 
ATOM     23  O   UNL     1      -5.916  -2.917  -2.269  0.00  0.00    -0.419 OA
ATOM     24  C   UNL     1      -4.980  -2.755  -1.260  0.00  0.00    +0.344 C 
ATOM     25  O   UNL     1      -3.994  -3.518  -1.085  0.00  0.00    -0.245 OA
BRANCH  20  26
ATOM     26  O   UNL     1      -7.056   0.067  -0.418  0.00  0.00    -0.491 OA
ATOM     27  C   UNL     1      -8.454   0.128  -0.161  0.00  0.00    +0.079 C 
ENDBRANCH  20  26
ENDBRANCH  18  19
ENDBRANCH  17  18
ENDBRANCH  16  17
ENDBRANCH  15  16
ENDBRANCH   1  15
TORSDOF 15
