REMARK  Name = 
REMARK  6 active torsions:
REMARK  status: ('A' for Active; 'I' for Inactive)
REMARK    1  A    between atoms: O_1  and  C_2
REMARK    2  A    between atoms: C_2  and  C_3
REMARK    3  A    between atoms: C_3  and  C_5
REMARK    4  A    between atoms: C_5  and  C_6
REMARK    5  A    between atoms: C_5  and  O_8
REMARK    6  A    between atoms: C_6  and  O_7
REMARK                            x       y       z     vdW  Elec       q    Type
REMARK                         _______ _______ _______ _____ _____    ______ ____
ROOT
ATOM      1  C   UNL     1      -0.474  -0.811  -0.075  0.00  0.00    +0.101 C 
ENDROOT
BRANCH   1   2
ATOM      2  C   UNL     1       0.746  -0.004   0.325  0.00  0.00    -0.021 C 
ATOM      3  C   UNL     1       1.303  -0.180   1.535  0.00  0.00    -0.095 C 
BRANCH   2   4
ATOM      4  C   UNL     1       1.289   1.069  -0.592  0.00  0.00    +0.067 C 
BRANCH   4   5
ATOM      5  O   UNL     1       2.553   0.700  -1.074  0.00  0.00    -0.391 OA
ATOM      6  H   UNL     1       2.890   1.395  -1.661  0.00  0.00    +0.000 HD
ENDBRANCH   4   5
ENDBRANCH   2   4
ENDBRANCH   1   2
BRANCH   1   7
ATOM      7  O   UNL     1      -0.341  -1.220  -1.413  0.00  0.00    -0.385 OA
ATOM      8  H   UNL     1      -0.272  -0.439  -1.984  0.00  0.00    +0.000 HD
ENDBRANCH   1   7
BRANCH   1   9
ATOM      9  C   UNL     1      -1.744   0.030   0.099  0.00  0.00    +0.074 C 
BRANCH   9  10
ATOM     10  O   UNL     1      -2.874  -0.753  -0.169  0.00  0.00    -0.392 OA
ATOM     11  H   UNL     1      -2.831  -1.080  -1.081  0.00  0.00    +0.000 HD
ENDBRANCH   9  10
ENDBRANCH   1   9
TORSDOF 6
