REMARK  Name = 
REMARK  4 active torsions:
REMARK  status: ('A' for Active; 'I' for Inactive)
REMARK    1  A    between atoms: C_2  and  C_3
REMARK    2  A    between atoms: C_2  and  O_9
REMARK    3  A    between atoms: O_9  and  C_10
REMARK    4  A    between atoms: C_10  and  C_11
REMARK                            x       y       z     vdW  Elec       q    Type
REMARK                         _______ _______ _______ _____ _____    ______ ____
ROOT
ATOM      1  O   UNL     1      -0.488  -1.804   0.008  0.00  0.00    -0.245 OA
ATOM      2  C   UNL     1      -0.884  -0.667  -0.370  0.00  0.00    +0.339 C 
ENDROOT
BRANCH   2   3
ATOM      3  C   UNL     1      -2.133  -0.096   0.178  0.00  0.00    +0.059 A 
ATOM      4  C   UNL     1      -2.899  -0.811   1.118  0.00  0.00    -0.048 A 
ATOM      5  C   UNL     1      -4.078  -0.264   1.633  0.00  0.00    -0.061 A 
ATOM      6  C   UNL     1      -4.505   0.999   1.218  0.00  0.00    -0.062 A 
ATOM      7  C   UNL     1      -3.753   1.718   0.285  0.00  0.00    -0.061 A 
ATOM      8  C   UNL     1      -2.573   1.176  -0.233  0.00  0.00    -0.048 A 
ENDBRANCH   2   3
BRANCH   2   9
ATOM      9  O   UNL     1      -0.142   0.057  -1.312  0.00  0.00    -0.456 OA
BRANCH   9  10
ATOM     10  C   UNL     1       1.102  -0.393  -1.846  0.00  0.00    +0.118 C 
BRANCH  10  11
ATOM     11  C   UNL     1       2.184  -0.296  -0.805  0.00  0.00    -0.010 A 
ATOM     12  C   UNL     1       2.605   0.962  -0.346  0.00  0.00    -0.055 A 
ATOM     13  C   UNL     1       3.597   1.059   0.634  0.00  0.00    -0.061 A 
ATOM     14  C   UNL     1       4.172  -0.099   1.165  0.00  0.00    -0.062 A 
ATOM     15  C   UNL     1       3.755  -1.355   0.717  0.00  0.00    -0.061 A 
ATOM     16  C   UNL     1       2.763  -1.456  -0.264  0.00  0.00    -0.055 A 
ENDBRANCH  10  11
ENDBRANCH   9  10
ENDBRANCH   2   9
TORSDOF 4
