REMARK  Name = 
REMARK  10 active torsions:
REMARK  status: ('A' for Active; 'I' for Inactive)
REMARK    1  A    between atoms: C_1  and  C_2
REMARK    2  A    between atoms: C_2  and  C_3
REMARK    3  A    between atoms: C_3  and  C_4
REMARK    4  A    between atoms: C_4  and  C_5
REMARK    5  A    between atoms: C_5  and  C_6
REMARK    6  A    between atoms: C_6  and  C_7
REMARK    7  A    between atoms: C_7  and  C_8
REMARK    8  A    between atoms: C_8  and  O_10
REMARK    9  A    between atoms: O_10  and  C_11
REMARK   10  A    between atoms: C_11  and  C_12
REMARK                            x       y       z     vdW  Elec       q    Type
REMARK                         _______ _______ _______ _____ _____    ______ ____
ROOT
ATOM      1  C   UNL     1      -1.337  -0.027  -1.088  0.00  0.00    +0.307 C 
ATOM      2  O   UNL     1      -2.015  -0.508  -2.037  0.00  0.00    -0.251 OA
ENDROOT
BRANCH   1   3
ATOM      3  C   UNL     1       0.088  -0.442  -0.909  0.00  0.00    +0.045 C 
BRANCH   3   4
ATOM      4  C   UNL     1       1.022   0.535  -1.634  0.00  0.00    -0.043 C 
BRANCH   4   5
ATOM      5  C   UNL     1       2.493   0.092  -1.587  0.00  0.00    -0.053 C 
BRANCH   5   6
ATOM      6  C   UNL     1       3.109   0.228  -0.186  0.00  0.00    -0.053 C 
BRANCH   6   7
ATOM      7  C   UNL     1       4.612  -0.083  -0.216  0.00  0.00    -0.053 C 
BRANCH   7   9
ATOM      8  C   UNL     1       5.328   1.303   1.804  0.00  0.00    -0.065 C 
ATOM      9  C   UNL     1       5.242  -0.092   1.186  0.00  0.00    -0.056 C 
ENDBRANCH   7   9
ENDBRANCH   6   7
ENDBRANCH   5   6
ENDBRANCH   4   5
ENDBRANCH   3   4
ENDBRANCH   1   3
BRANCH   1  10
ATOM     10  O   UNL     1      -1.888   0.928  -0.227  0.00  0.00    -0.460 OA
BRANCH  10  11
ATOM     11  C   UNL     1      -3.241   1.370  -0.311  0.00  0.00    +0.118 C 
BRANCH  11  12
ATOM     12  C   UNL     1      -4.177   0.290   0.160  0.00  0.00    -0.010 A 
ATOM     13  C   UNL     1      -4.183  -0.091   1.512  0.00  0.00    -0.055 A 
ATOM     14  C   UNL     1      -5.037  -1.107   1.953  0.00  0.00    -0.061 A 
ATOM     15  C   UNL     1      -5.885  -1.752   1.049  0.00  0.00    -0.062 A 
ATOM     16  C   UNL     1      -5.880  -1.382  -0.299  0.00  0.00    -0.061 A 
ATOM     17  C   UNL     1      -5.029  -0.366  -0.745  0.00  0.00    -0.055 A 
ENDBRANCH  11  12
ENDBRANCH  10  11
ENDBRANCH   1  10
TORSDOF 9
