REMARK  Name = 
REMARK  5 active torsions:
REMARK  status: ('A' for Active; 'I' for Inactive)
REMARK    1  A    between atoms: C_1  and  C_2
REMARK    2  A    between atoms: C_8  and  C_13
REMARK    3  A    between atoms: C_11  and  C_12
REMARK    4  A    between atoms: C_13  and  C_14
REMARK    5  A    between atoms: C_13  and  C_15
REMARK                            x       y       z     vdW  Elec       q    Type
REMARK                         _______ _______ _______ _____ _____    ______ ____
ROOT
ATOM      1  C   UNL     1      -1.465  -3.410   0.864  0.00  0.00    -0.040 C 
ATOM      2  C   UNL     1      -1.410  -1.931   0.611  0.00  0.00    -0.050 A 
ATOM      3  C   UNL     1      -2.580  -1.175   0.625  0.00  0.00    -0.058 A 
ATOM      4  C   UNL     1      -2.540   0.188   0.351  0.00  0.00    -0.054 A 
ATOM      5  C   UNL     1      -1.321   0.831   0.044  0.00  0.00    -0.015 A 
ATOM      6  C   UNL     1      -0.112   0.067   0.012  0.00  0.00    -0.014 A 
ATOM      7  C   UNL     1      -0.193  -1.317   0.289  0.00  0.00    -0.051 A 
ATOM      8  C   UNL     1       1.125   0.717  -0.298  0.00  0.00    -0.037 A 
ATOM      9  C   UNL     1       1.104   2.095  -0.579  0.00  0.00    -0.057 A 
ATOM     10  C   UNL     1      -0.073   2.829  -0.549  0.00  0.00    -0.058 A 
ATOM     11  C   UNL     1      -1.290   2.220  -0.238  0.00  0.00    -0.043 A 
ATOM     12  C   UNL     1      -2.536   3.074  -0.219  0.00  0.00    -0.039 C 
ENDROOT
BRANCH   8  13
ATOM     13  C   UNL     1       2.499   0.034  -0.354  0.00  0.00    -0.021 C 
ATOM     14  C   UNL     1       2.638  -0.941  -1.532  0.00  0.00    -0.059 C 
ATOM     15  C   UNL     1       2.945  -0.568   0.990  0.00  0.00    -0.059 C 
ENDBRANCH   8  13
TORSDOF 1
