REMARK  Name = 
REMARK  3 active torsions:
REMARK  status: ('A' for Active; 'I' for Inactive)
REMARK    1  A    between atoms: C_7  and  C_16
REMARK    2  A    between atoms: C_13  and  C_14
REMARK    3  A    between atoms: C_13  and  C_15
REMARK                            x       y       z     vdW  Elec       q    Type
REMARK                         _______ _______ _______ _____ _____    ______ ____
ROOT
ATOM      1  C   UNL     1      -0.662   2.405  -1.433  0.00  0.00    -0.099 C 
ATOM      2  C   UNL     1      -0.066   1.854  -0.361  0.00  0.00    -0.073 C 
ATOM      3  C   UNL     1       1.259   2.425   0.124  0.00  0.00    -0.029 C 
ATOM      4  C   UNL     1       2.482   1.773  -0.563  0.00  0.00    -0.020 C 
ATOM      5  C   UNL     1       2.291   0.260  -0.724  0.00  0.00    +0.088 C 
ATOM      6  O   UNL     1       3.351  -0.584  -0.343  0.00  0.00    -0.365 OA
ATOM      7  C   UNL     1       2.249  -0.536   0.545  0.00  0.00    +0.093 C 
ATOM      8  C   UNL     1       1.359  -1.802   0.562  0.00  0.00    -0.021 C 
ATOM      9  C   UNL     1       0.211  -1.866  -0.475  0.00  0.00    -0.047 C 
ATOM     10  C   UNL     1      -0.757  -0.638  -0.619  0.00  0.00    -0.029 C 
ATOM     11  C   UNL     1      -0.608   0.588   0.310  0.00  0.00    -0.016 C 
ATOM     12  C   UNL     1      -2.108   0.555   0.612  0.00  0.00    -0.041 C 
ATOM     13  C   UNL     1      -2.231  -0.781  -0.146  0.00  0.00    -0.031 C 
ATOM     14  C   UNL     1      -3.253  -0.735  -1.294  0.00  0.00    -0.060 C 
ATOM     15  C   UNL     1      -2.527  -1.942   0.825  0.00  0.00    -0.060 C 
ATOM     16  C   UNL     1       2.742  -0.026   1.909  0.00  0.00    -0.033 C 
ENDROOT
TORSDOF 0
