REMARK  Name = 
REMARK  3 active torsions:
REMARK  status: ('A' for Active; 'I' for Inactive)
REMARK    1  A    between atoms: C_1  and  C_2
REMARK    2  A    between atoms: C_12  and  C_14
REMARK    3  A    between atoms: C_12  and  C_15
REMARK                            x       y       z     vdW  Elec       q    Type
REMARK                         _______ _______ _______ _____ _____    ______ ____
ROOT
ATOM      1  C   UNL     1       2.083  -1.392   2.459  0.00  0.00    -0.044 C 
ATOM      2  C   UNL     1       2.122  -0.634   1.155  0.00  0.00    -0.077 C 
ATOM      3  C   UNL     1       2.447   0.677   1.202  0.00  0.00    -0.085 C 
ATOM      4  C   UNL     1       2.497   1.613   0.022  0.00  0.00    -0.031 C 
ATOM      5  C   UNL     1       1.275   2.539   0.013  0.00  0.00    -0.028 C 
ATOM      6  C   UNL     1       0.076   1.849  -0.597  0.00  0.00    -0.073 C 
ATOM      7  C   UNL     1      -0.140   1.999  -1.919  0.00  0.00    -0.099 C 
ATOM      8  C   UNL     1      -0.787   0.962   0.307  0.00  0.00    -0.016 C 
ATOM      9  C   UNL     1      -0.633  -0.573   0.185  0.00  0.00    -0.029 C 
ATOM     10  C   UNL     1       0.452  -1.121  -0.784  0.00  0.00    -0.045 C 
ATOM     11  C   UNL     1       1.835  -1.385  -0.138  0.00  0.00    -0.032 C 
ATOM     12  C   UNL     1      -2.119  -0.674  -0.253  0.00  0.00    -0.031 C 
ATOM     13  C   UNL     1      -2.272   0.848  -0.071  0.00  0.00    -0.041 C 
ATOM     14  C   UNL     1      -2.386  -1.132  -1.701  0.00  0.00    -0.060 C 
ATOM     15  C   UNL     1      -2.980  -1.472   0.744  0.00  0.00    -0.060 C 
ENDROOT
TORSDOF 0
