REMARK  Name = 
REMARK  6 active torsions:
REMARK  status: ('A' for Active; 'I' for Inactive)
REMARK    1  A    between atoms: O_1  and  C_2
REMARK    2  A    between atoms: C_6  and  C_7
REMARK    3  A    between atoms: C_10  and  O_14
REMARK    4  A    between atoms: C_11  and  O_13
REMARK    5  A    between atoms: C_15  and  O_21
REMARK    6  A    between atoms: C_18  and  O_20
REMARK                            x       y       z     vdW  Elec       q    Type
REMARK                         _______ _______ _______ _____ _____    ______ ____
ROOT
ATOM      1  C   UNL     1      -3.805   1.068   1.767  0.00  0.00    +0.124 A 
ATOM      2  C   UNL     1      -2.420   0.893   1.842  0.00  0.00    +0.022 A 
ATOM      3  C   UNL     1      -1.739   0.215   0.828  0.00  0.00    +0.132 A 
ATOM      4  O   UNL     1      -0.355   0.041   0.938  0.00  0.00    -0.481 OA
ATOM      5  C   UNL     1       0.381  -0.796   0.047  0.00  0.00    +0.151 C 
ATOM      6  C   UNL     1      -0.171  -0.650  -1.381  0.00  0.00    +0.100 C 
ATOM      7  C   UNL     1      -1.675  -0.981  -1.397  0.00  0.00    +0.009 C 
ATOM      8  C   UNL     1      -2.438  -0.271  -0.298  0.00  0.00    +0.038 A 
ATOM      9  C   UNL     1      -3.845  -0.129  -0.348  0.00  0.00    +0.127 A 
ATOM     10  C   UNL     1      -4.511   0.553   0.677  0.00  0.00    +0.022 A 
ENDROOT
BRANCH   5  11
ATOM     11  C   UNL     1       1.847  -0.434   0.105  0.00  0.00    -0.001 A 
ATOM     12  C   UNL     1       2.823  -1.442   0.166  0.00  0.00    -0.051 A 
ATOM     13  C   UNL     1       4.180  -1.111   0.193  0.00  0.00    -0.016 A 
ATOM     14  C   UNL     1       4.580   0.232   0.152  0.00  0.00    +0.158 A 
ATOM     15  C   UNL     1       3.615   1.244   0.080  0.00  0.00    +0.159 A 
ATOM     16  C   UNL     1       2.253   0.911   0.053  0.00  0.00    -0.010 A 
BRANCH  15  17
ATOM     17  O   UNL     1       4.016   2.578   0.033  0.00  0.00    -0.503 OA
ATOM     18  H   UNL     1       4.928   2.794   0.052  0.00  0.00    +0.000 HD
ENDBRANCH  15  17
BRANCH  14  19
ATOM     19  O   UNL     1       5.933   0.566   0.179  0.00  0.00    -0.503 OA
ATOM     20  H   UNL     1       6.581  -0.108   0.227  0.00  0.00    +0.000 HD
ENDBRANCH  14  19
ENDBRANCH   5  11
BRANCH   1  21
ATOM     21  O   UNL     1      -4.492   1.744   2.773  0.00  0.00    -0.507 OA
ATOM     22  H   UNL     1      -4.024   2.092   3.506  0.00  0.00    +0.000 HD
ENDBRANCH   1  21
BRANCH   9  23
ATOM     23  O   UNL     1      -4.611  -0.660  -1.389  0.00  0.00    -0.506 OA
ATOM     24  H   UNL     1      -4.194  -1.122  -2.089  0.00  0.00    +0.000 HD
ENDBRANCH   9  23
BRANCH   6  25
ATOM     25  O   UNL     1       0.516  -1.518  -2.246  0.00  0.00    -0.387 OA
ATOM     26  H   UNL     1       0.391  -2.433  -1.951  0.00  0.00    +0.000 HD
ENDBRANCH   6  25
TORSDOF 6
