REMARK  Name = 
REMARK  5 active torsions:
REMARK  status: ('A' for Active; 'I' for Inactive)
REMARK    1  A    between atoms: C_1  and  C_2
REMARK    2  A    between atoms: C_4  and  C_20
REMARK    3  A    between atoms: C_5  and  C_8
REMARK    4  A    between atoms: C_5  and  C_9
REMARK    5  A    between atoms: C_10  and  C_11
REMARK                            x       y       z     vdW  Elec       q    Type
REMARK                         _______ _______ _______ _____ _____    ______ ____
ROOT
ATOM      1  C   UNL     1       3.685  -2.469  -1.941  0.00  0.00    -0.044 C 
ATOM      2  C   UNL     1       2.650  -2.315  -0.860  0.00  0.00    -0.076 C 
ATOM      3  C   UNL     1       2.756  -1.284   0.005  0.00  0.00    -0.077 C 
ATOM      4  C   UNL     1       1.796  -1.085   1.163  0.00  0.00    +0.011 C 
ATOM      5  C   UNL     1       0.384  -1.711   0.886  0.00  0.00    -0.003 C 
ATOM      6  C   UNL     1       0.618  -3.171   0.422  0.00  0.00    -0.040 C 
ATOM      7  C   UNL     1       1.448  -3.237  -0.869  0.00  0.00    -0.031 C 
ATOM      8  C   UNL     1      -0.441  -1.732   2.195  0.00  0.00    -0.055 C 
ENDROOT
BRANCH   4   9
ATOM      9  C   UNL     1       1.750   0.371   1.619  0.00  0.00    -0.039 A 
ATOM     10  C   UNL     1       1.807   1.454   0.693  0.00  0.00    -0.056 A 
ATOM     11  C   UNL     1       1.737   2.788   1.134  0.00  0.00    -0.038 A 
ATOM     12  C   UNL     1       1.616   3.016   2.501  0.00  0.00    +0.046 A 
ATOM     13  C   UNL     1       1.574   1.987   3.400  0.00  0.00    -0.000 A 
ATOM     14  C   UNL     1       1.640   0.656   3.001  0.00  0.00    -0.049 A 
ATOM     15  C   UNL     1       1.460   2.541   4.656  0.00  0.00    -0.037 A 
ATOM     16  C   UNL     1       1.438   3.916   4.445  0.00  0.00    +0.003 A 
ATOM     17  N   UNL     1       1.535   4.202   3.126  0.00  0.00    -0.361 N 
ATOM     18  H   UNL     1       1.544   5.095   2.711  0.00  0.00    +0.000 HD
ENDBRANCH   4   9
BRANCH   5  19
ATOM     19  C   UNL     1      -0.378  -0.935  -0.187  0.00  0.00    -0.077 C 
ATOM     20  C   UNL     1      -1.625  -1.258  -0.569  0.00  0.00    -0.058 C 
BRANCH  20  21
ATOM     21  C   UNL     1      -2.412  -0.525  -1.596  0.00  0.00    -0.025 A 
ATOM     22  C   UNL     1      -3.681  -1.048  -1.959  0.00  0.00    -0.053 A 
ATOM     23  C   UNL     1      -4.494  -0.395  -2.903  0.00  0.00    -0.037 A 
ATOM     24  C   UNL     1      -4.016   0.782  -3.474  0.00  0.00    +0.046 A 
ATOM     25  C   UNL     1      -2.796   1.299  -3.136  0.00  0.00    +0.000 A 
ATOM     26  C   UNL     1      -1.967   0.681  -2.200  0.00  0.00    -0.045 A 
ATOM     27  C   UNL     1      -2.621   2.452  -3.870  0.00  0.00    -0.037 A 
ATOM     28  C   UNL     1      -3.780   2.577  -4.630  0.00  0.00    +0.003 A 
ATOM     29  N   UNL     1      -4.629   1.554  -4.385  0.00  0.00    -0.361 N 
ATOM     30  H   UNL     1      -5.513   1.406  -4.791  0.00  0.00    +0.000 HD
ENDBRANCH  20  21
ENDBRANCH   5  19
TORSDOF 3
