REMARK  Name = 
REMARK  5 active torsions:
REMARK  status: ('A' for Active; 'I' for Inactive)
REMARK    1  A    between atoms: C_1  and  C_2
REMARK    2  A    between atoms: C_4  and  C_20
REMARK    3  A    between atoms: C_5  and  C_8
REMARK    4  A    between atoms: C_5  and  C_9
REMARK    5  A    between atoms: C_10  and  C_11
REMARK                            x       y       z     vdW  Elec       q    Type
REMARK                         _______ _______ _______ _____ _____    ______ ____
ROOT
ATOM      1  C   UNL     1       3.348  -4.757   0.442  0.00  0.00    -0.044 C 
ATOM      2  C   UNL     1       2.288  -3.708   0.248  0.00  0.00    -0.076 C 
ATOM      3  C   UNL     1       2.525  -2.452   0.677  0.00  0.00    -0.077 C 
ATOM      4  C   UNL     1       1.502  -1.337   0.580  0.00  0.00    +0.011 C 
ATOM      5  C   UNL     1       0.444  -1.572  -0.557  0.00  0.00    -0.003 C 
ATOM      6  C   UNL     1      -0.078  -3.026  -0.413  0.00  0.00    -0.040 C 
ATOM      7  C   UNL     1       1.042  -4.069  -0.532  0.00  0.00    -0.031 C 
ATOM      8  C   UNL     1       1.059  -1.357  -1.965  0.00  0.00    -0.055 C 
ENDROOT
BRANCH   4   9
ATOM      9  C   UNL     1       2.189   0.023   0.511  0.00  0.00    -0.039 A 
ATOM     10  C   UNL     1       3.296   0.249  -0.356  0.00  0.00    -0.056 A 
ATOM     11  C   UNL     1       3.913   1.510  -0.426  0.00  0.00    -0.038 A 
ATOM     12  C   UNL     1       3.414   2.526   0.382  0.00  0.00    +0.046 A 
ATOM     13  C   UNL     1       2.358   2.319   1.226  0.00  0.00    -0.000 A 
ATOM     14  C   UNL     1       1.723   1.085   1.324  0.00  0.00    -0.049 A 
ATOM     15  C   UNL     1       2.115   3.507   1.881  0.00  0.00    -0.037 A 
ATOM     16  C   UNL     1       3.063   4.396   1.385  0.00  0.00    +0.003 A 
ATOM     17  N   UNL     1       3.854   3.792   0.469  0.00  0.00    -0.361 N 
ATOM     18  H   UNL     1       4.599   4.197  -0.031  0.00  0.00    +0.000 HD
ENDBRANCH   4   9
BRANCH   5  19
ATOM     19  C   UNL     1      -0.730  -0.615  -0.369  0.00  0.00    -0.077 C 
ATOM     20  C   UNL     1      -1.785  -0.581  -1.200  0.00  0.00    -0.058 C 
BRANCH  20  21
ATOM     21  C   UNL     1      -2.929   0.348  -1.040  0.00  0.00    -0.025 A 
ATOM     22  C   UNL     1      -3.738   0.624  -2.174  0.00  0.00    -0.053 A 
ATOM     23  C   UNL     1      -4.841   1.491  -2.083  0.00  0.00    -0.037 A 
ATOM     24  C   UNL     1      -5.121   2.061  -0.845  0.00  0.00    +0.046 A 
ATOM     25  C   UNL     1      -4.358   1.793   0.258  0.00  0.00    +0.000 A 
ATOM     26  C   UNL     1      -3.259   0.940   0.206  0.00  0.00    -0.045 A 
ATOM     27  C   UNL     1      -4.900   2.493   1.314  0.00  0.00    -0.037 A 
ATOM     28  C   UNL     1      -5.992   3.169   0.779  0.00  0.00    +0.003 A 
ATOM     29  N   UNL     1      -6.123   2.902  -0.541  0.00  0.00    -0.361 N 
ATOM     30  H   UNL     1      -6.811   3.251  -1.152  0.00  0.00    +0.000 HD
ENDBRANCH  20  21
ENDBRANCH   5  19
TORSDOF 3
