REMARK  Name = 
REMARK  13 active torsions:
REMARK  status: ('A' for Active; 'I' for Inactive)
REMARK    1  A    between atoms: C_2  and  C_3
REMARK    2  A    between atoms: C_3  and  C_4
REMARK    3  A    between atoms: C_3  and  C_37
REMARK    4  A    between atoms: C_3  and  C_38
REMARK    5  A    between atoms: C_10  and  C_13
REMARK    6  A    between atoms: C_14  and  C_15
REMARK    7  A    between atoms: C_15  and  C_16
REMARK    8  A    between atoms: C_19  and  C_36
REMARK    9  A    between atoms: C_21  and  C_22
REMARK   10  A    between atoms: C_28  and  C_31
REMARK   11  A    between atoms: C_31  and  C_32
REMARK   12  A    between atoms: C_31  and  C_34
REMARK   13  A    between atoms: C_31  and  C_35
REMARK                            x       y       z     vdW  Elec       q    Type
REMARK                         _______ _______ _______ _____ _____    ______ ____
ROOT
ATOM      1  C   UNL     1       0.730   1.187  -2.293  0.00  0.00    -0.003 C 
ATOM      2  C   UNL     1       0.159   2.057  -3.443  0.00  0.00    -0.055 C 
ATOM      3  C   UNL     1       1.054   2.079  -1.066  0.00  0.00    -0.040 C 
ATOM      4  C   UNL     1       2.174   3.099  -1.335  0.00  0.00    -0.031 C 
ATOM      5  C   UNL     1       3.304   2.585  -2.202  0.00  0.00    -0.076 C 
ATOM      6  C   UNL     1       3.200   1.455  -2.928  0.00  0.00    -0.077 C 
ATOM      7  C   UNL     1       2.048   0.485  -2.789  0.00  0.00    +0.011 C 
ATOM      8  C   UNL     1       4.537   3.434  -2.352  0.00  0.00    -0.044 C 
ENDROOT
BRANCH   7   9
ATOM      9  C   UNL     1       2.499  -0.705  -1.944  0.00  0.00    -0.039 A 
ATOM     10  C   UNL     1       2.270  -2.026  -2.414  0.00  0.00    -0.056 A 
ATOM     11  C   UNL     1       2.643  -3.142  -1.647  0.00  0.00    -0.038 A 
ATOM     12  C   UNL     1       3.251  -2.916  -0.417  0.00  0.00    +0.047 A 
ATOM     13  C   UNL     1       3.495  -1.651   0.048  0.00  0.00    +0.004 A 
ATOM     14  C   UNL     1       3.139  -0.523  -0.693  0.00  0.00    -0.049 A 
ATOM     15  C   UNL     1       4.093  -1.778   1.296  0.00  0.00    -0.013 A 
ATOM     16  C   UNL     1       4.160  -3.160   1.517  0.00  0.00    +0.007 A 
ATOM     17  N   UNL     1       3.653  -3.841   0.467  0.00  0.00    -0.360 N 
ATOM     18  H   UNL     1       3.591  -4.818   0.370  0.00  0.00    +0.000 HD
BRANCH  15  19
ATOM     19  C   UNL     1       4.462  -0.657   2.267  0.00  0.00    +0.010 C 
ATOM     20  C   UNL     1       3.155  -0.002   2.766  0.00  0.00    -0.052 C 
ATOM     21  C   UNL     1       5.241  -1.212   3.478  0.00  0.00    -0.052 C 
BRANCH  19  22
ATOM     22  C   UNL     1       5.346   0.357   1.547  0.00  0.00    -0.081 C 
ATOM     23  C   UNL     1       5.695   1.536   2.077  0.00  0.00    -0.102 C 
ENDBRANCH  19  22
ENDBRANCH  15  19
ENDBRANCH   7   9
BRANCH   1  25
ATOM     24  C   UNL     1      -1.538   0.486  -1.426  0.00  0.00    -0.058 C 
ATOM     25  C   UNL     1      -0.332   0.153  -1.915  0.00  0.00    -0.077 C 
BRANCH  24  32
ATOM     26  C   UNL     1      -5.665  -0.854   1.105  0.00  0.00    -0.013 A 
ATOM     27  C   UNL     1      -6.220  -2.136   1.170  0.00  0.00    +0.007 A 
ATOM     28  N   UNL     1      -5.517  -3.003   0.408  0.00  0.00    -0.360 N 
ATOM     29  C   UNL     1      -4.515  -2.295  -0.133  0.00  0.00    +0.047 A 
ATOM     30  C   UNL     1      -4.561  -0.986   0.269  0.00  0.00    +0.004 A 
ATOM     31  C   UNL     1      -3.600  -0.062  -0.150  0.00  0.00    -0.045 A 
ATOM     32  C   UNL     1      -2.564  -0.502  -1.005  0.00  0.00    -0.025 A 
ATOM     33  C   UNL     1      -2.549  -1.859  -1.436  0.00  0.00    -0.053 A 
ATOM     34  C   UNL     1      -3.525  -2.765  -0.990  0.00  0.00    -0.037 A 
ATOM     35  H   UNL     1      -5.703  -3.961   0.277  0.00  0.00    +0.000 HD
BRANCH  26  36
ATOM     36  C   UNL     1      -6.133   0.397   1.843  0.00  0.00    +0.010 C 
ATOM     37  C   UNL     1      -7.522   0.190   2.487  0.00  0.00    -0.052 C 
ATOM     38  C   UNL     1      -5.123   0.715   2.964  0.00  0.00    -0.052 C 
BRANCH  36  40
ATOM     39  C   UNL     1      -6.939   1.538  -0.242  0.00  0.00    -0.102 C 
ATOM     40  C   UNL     1      -6.214   1.575   0.883  0.00  0.00    -0.081 C 
ENDBRANCH  36  40
ENDBRANCH  26  36
ENDBRANCH  24  32
ENDBRANCH   1  25
TORSDOF 7
