REMARK  Name = 
REMARK  9 active torsions:
REMARK  status: ('A' for Active; 'I' for Inactive)
REMARK    1  A    between atoms: C_2  and  C_3
REMARK    2  A    between atoms: C_2  and  C_27
REMARK    3  A    between atoms: C_4  and  O_5
REMARK    4  A    between atoms: C_6  and  C_7
REMARK    5  A    between atoms: C_7  and  C_8
REMARK    6  A    between atoms: C_13  and  O_14
REMARK    7  A    between atoms: C_17  and  O_18
REMARK    8  A    between atoms: C_27  and  C_28
REMARK    9  A    between atoms: C_28  and  C_29
REMARK                            x       y       z     vdW  Elec       q    Type
REMARK                         _______ _______ _______ _____ _____    ______ ____
ROOT
ATOM      1  C   UNL     1       0.728   0.471  -0.887  0.00  0.00    +0.101 A 
ATOM      2  C   UNL     1      -0.269   1.052  -0.078  0.00  0.00    +0.138 A 
ATOM      3  C   UNL     1      -1.433   0.328   0.236  0.00  0.00    +0.042 A 
ATOM      4  C   UNL     1      -1.598  -0.980  -0.258  0.00  0.00    +0.142 A 
ATOM      5  C   UNL     1      -0.600  -1.575  -1.061  0.00  0.00    +0.042 A 
ATOM      6  C   UNL     1       0.563  -0.838  -1.378  0.00  0.00    +0.138 A 
ATOM      7  C   UNL     1      -0.776  -2.985  -1.590  0.00  0.00    +0.008 C 
ATOM      8  C   UNL     1      -2.060  -3.658  -1.176  0.00  0.00    -0.001 A 
ATOM      9  C   UNL     1      -3.005  -2.988  -0.382  0.00  0.00    +0.132 A 
ATOM     10  O   UNL     1      -2.768  -1.684   0.047  0.00  0.00    -0.455 OA
ATOM     11  C   UNL     1      -4.192  -3.631  -0.012  0.00  0.00    -0.019 A 
ATOM     12  C   UNL     1      -4.438  -4.944  -0.420  0.00  0.00    -0.058 A 
ATOM     13  C   UNL     1      -3.499  -5.617  -1.207  0.00  0.00    -0.061 A 
ATOM     14  C   UNL     1      -2.315  -4.977  -1.587  0.00  0.00    -0.055 A 
ENDROOT
BRANCH   1  16
ATOM     15  O   UNL     1       1.829   2.271  -1.957  0.00  0.00    -0.292 OA
ATOM     16  C   UNL     1       1.940   1.235  -1.245  0.00  0.00    +0.171 C 
BRANCH  16  17
ATOM     17  C   UNL     1       3.289   0.839  -0.718  0.00  0.00    +0.015 C 
BRANCH  17  18
ATOM     18  C   UNL     1       3.442   1.273   0.742  0.00  0.00    -0.021 C 
BRANCH  18  19
ATOM     19  C   UNL     1       4.819   0.945   1.256  0.00  0.00    -0.047 A 
ATOM     20  C   UNL     1       5.802   1.942   1.347  0.00  0.00    -0.059 A 
ATOM     21  C   UNL     1       7.090   1.624   1.789  0.00  0.00    -0.062 A 
ATOM     22  C   UNL     1       7.402   0.310   2.149  0.00  0.00    -0.062 A 
ATOM     23  C   UNL     1       6.428  -0.689   2.065  0.00  0.00    -0.062 A 
ATOM     24  C   UNL     1       5.142  -0.375   1.614  0.00  0.00    -0.059 A 
ENDBRANCH  18  19
ENDBRANCH  17  18
ENDBRANCH  16  17
ENDBRANCH   1  16
BRANCH   2  25
ATOM     25  O   UNL     1      -0.124   2.347   0.436  0.00  0.00    -0.506 OA
ATOM     26  H   UNL     1       0.644   2.846   0.239  0.00  0.00    +0.000 HD
ENDBRANCH   2  25
BRANCH   6  27
ATOM     27  O   UNL     1       1.565  -1.379  -2.192  0.00  0.00    -0.506 OA
ATOM     28  H   UNL     1       1.476  -2.248  -2.530  0.00  0.00    +0.000 HD
ENDBRANCH   6  27
BRANCH   3  29
ATOM     29  C   UNL     1      -2.525   0.980   1.062  0.00  0.00    +0.008 C 
BRANCH  29  30
ATOM     30  C   UNL     1      -3.282   2.001   0.243  0.00  0.00    -0.001 A 
ATOM     31  C   UNL     1      -3.966   1.593  -0.920  0.00  0.00    -0.055 A 
ATOM     32  C   UNL     1      -4.630   2.529  -1.715  0.00  0.00    -0.061 A 
ATOM     33  C   UNL     1      -4.641   3.877  -1.351  0.00  0.00    -0.058 A 
ATOM     34  C   UNL     1      -3.995   4.291  -0.184  0.00  0.00    -0.020 A 
ATOM     35  C   UNL     1      -3.310   3.364   0.615  0.00  0.00    +0.120 A 
BRANCH  35  36
ATOM     36  O   UNL     1      -2.663   3.796   1.773  0.00  0.00    -0.506 OA
ATOM     37  H   UNL     1      -2.686   4.702   2.012  0.00  0.00    +0.000 HD
ENDBRANCH  35  36
ENDBRANCH  29  30
ENDBRANCH   3  29
TORSDOF 9
