REMARK  Name = 
REMARK  12 active torsions:
REMARK  status: ('A' for Active; 'I' for Inactive)
REMARK    1  A    between atoms: C_1  and  O_2
REMARK    2  A    between atoms: O_2  and  C_3
REMARK    3  A    between atoms: C_7  and  C_8
REMARK    4  A    between atoms: C_10  and  C_31
REMARK    5  A    between atoms: C_12  and  O_29
REMARK    6  A    between atoms: C_13  and  C_14
REMARK    7  A    between atoms: C_15  and  C_16
REMARK    8  A    between atoms: C_18  and  O_27
REMARK    9  A    between atoms: C_24  and  O_25
REMARK   10  A    between atoms: O_25  and  C_26
REMARK   11  A    between atoms: O_27  and  C_28
REMARK   12  A    between atoms: O_29  and  C_30
REMARK                            x       y       z     vdW  Elec       q    Type
REMARK                         _______ _______ _______ _____ _____    ______ ____
ROOT
ATOM      1  C   UNL     1      -0.831  -1.656  -1.056  0.00  0.00    +0.132 A 
ATOM      2  C   UNL     1      -2.184  -2.019  -0.979  0.00  0.00    -0.016 A 
ATOM      3  C   UNL     1      -3.133  -1.144  -0.433  0.00  0.00    -0.034 A 
ATOM      4  C   UNL     1      -4.581  -1.540  -0.466  0.00  0.00    -0.012 C 
ATOM      5  C   UNL     1      -5.402  -0.797   0.591  0.00  0.00    +0.009 C 
ATOM      6  C   UNL     1      -5.194  -1.373   1.999  0.00  0.00    -0.049 C 
ATOM      7  N   UNL     1      -5.156   0.655   0.535  0.00  0.00    -0.307 N 
ATOM      8  C   UNL     1      -3.745   1.075   0.680  0.00  0.00    +0.034 C 
ATOM      9  C   UNL     1      -2.739   0.127   0.032  0.00  0.00    +0.015 A 
ATOM     10  C   UNL     1      -1.387   0.516  -0.097  0.00  0.00    +0.136 A 
ATOM     11  C   UNL     1      -0.435  -0.380  -0.625  0.00  0.00    +0.067 A 
ATOM     12  C   UNL     1      -3.421   1.335   2.161  0.00  0.00    -0.045 C 
ATOM     13  H   UNL     1      -5.692   1.092   1.284  0.00  0.00    +0.000 HD
ATOM     14  H   UNL     1      -5.437   0.947  -0.401  0.00  0.00    +0.000 HD
ENDROOT
BRANCH  11  15
ATOM     15  C   UNL     1       0.999   0.008  -0.700  0.00  0.00    +0.000 A 
ATOM     16  C   UNL     1       1.558   0.356  -1.949  0.00  0.00    -0.038 A 
ATOM     17  C   UNL     1       0.737   0.334  -3.215  0.00  0.00    -0.039 C 
ATOM     18  C   UNL     1       2.908   0.708  -2.029  0.00  0.00    -0.016 A 
ATOM     19  C   UNL     1       3.724   0.754  -0.888  0.00  0.00    +0.132 A 
ATOM     20  C   UNL     1       3.179   0.420   0.379  0.00  0.00    +0.066 A 
ATOM     21  C   UNL     1       1.808   0.035   0.466  0.00  0.00    -0.003 A 
ATOM     22  C   UNL     1       1.276  -0.330   1.722  0.00  0.00    -0.053 A 
ATOM     23  C   UNL     1       2.062  -0.295   2.866  0.00  0.00    -0.058 A 
ATOM     24  C   UNL     1       3.392   0.095   2.793  0.00  0.00    -0.019 A 
ATOM     25  C   UNL     1       3.970   0.454   1.562  0.00  0.00    +0.131 A 
BRANCH  25  26
ATOM     26  O   UNL     1       5.320   0.844   1.496  0.00  0.00    -0.494 OA
ATOM     27  C   UNL     1       6.207   0.916   2.607  0.00  0.00    +0.079 C 
ENDBRANCH  25  26
BRANCH  19  28
ATOM     28  O   UNL     1       5.077   1.125  -0.992  0.00  0.00    -0.494 OA
ATOM     29  C   UNL     1       5.741   1.483  -2.201  0.00  0.00    +0.079 C 
ENDBRANCH  19  28
ENDBRANCH  11  15
BRANCH   1  31
ATOM     30  C   UNL     1      -0.116  -3.850  -2.034  0.00  0.00    +0.079 C 
ATOM     31  O   UNL     1       0.146  -2.536  -1.553  0.00  0.00    -0.494 OA
ENDBRANCH   1  31
BRANCH  10  32
ATOM     32  O   UNL     1      -0.991   1.789   0.329  0.00  0.00    -0.494 OA
ATOM     33  C   UNL     1      -0.761   2.853  -0.587  0.00  0.00    +0.079 C 
ENDBRANCH  10  32
TORSDOF 5
