REMARK  Name = 
REMARK  9 active torsions:
REMARK  status: ('A' for Active; 'I' for Inactive)
REMARK    1  A    between atoms: C_1  and  C_2
REMARK    2  A    between atoms: C_2  and  O_4
REMARK    3  A    between atoms: O_4  and  C_5
REMARK    4  A    between atoms: C_9  and  O_12
REMARK    5  A    between atoms: C_9  and  C_13
REMARK    6  A    between atoms: C_10  and  O_11
REMARK    7  A    between atoms: C_13  and  O_14
REMARK    8  A    between atoms: O_14  and  C_15
REMARK    9  A    between atoms: C_15  and  C_17
REMARK                            x       y       z     vdW  Elec       q    Type
REMARK                         _______ _______ _______ _____ _____    ______ ____
ROOT
ATOM      1  C   UNL     1      -3.226   0.531  -1.080  0.00  0.00    +0.150 C 
ATOM      2  C   UNL     1      -2.801  -0.309  -2.260  0.00  0.00    -0.044 C 
ATOM      3  C   UNL     1      -1.518  -0.542  -2.583  0.00  0.00    -0.064 C 
ATOM      4  C   UNL     1      -0.358   0.166  -1.926  0.00  0.00    +0.087 C 
ATOM      5  C   UNL     1      -0.728   0.754  -0.522  0.00  0.00    +0.149 C 
ATOM      6  C   UNL     1      -2.105   1.478  -0.589  0.00  0.00    +0.129 C 
ATOM      7 CL   UNL     1       0.244   1.393  -3.086  0.00  0.00    -0.114 Cl
ENDROOT
BRANCH   6   8
ATOM      8  O   UNL     1      -2.045   2.583  -1.460  0.00  0.00    -0.385 OA
ATOM      9  H   UNL     1      -1.840   2.277  -2.357  0.00  0.00    +0.000 HD
ENDBRANCH   6   8
BRANCH   5  10
ATOM     10  O   UNL     1      -0.805  -0.280   0.439  0.00  0.00    -0.381 OA
ATOM     11  H   UNL     1      -1.477  -0.925   0.168  0.00  0.00    +0.000 HD
ENDBRANCH   5  10
BRANCH   1  12
ATOM     12  O   UNL     1      -3.648  -0.344  -0.033  0.00  0.00    -0.455 OA
BRANCH  12  14
ATOM     13  C   UNL     1      -4.794  -0.919   2.108  0.00  0.00    +0.033 C 
ATOM     14  C   UNL     1      -4.448   0.062   1.041  0.00  0.00    +0.305 C 
ATOM     15  O   UNL     1      -4.917   1.232   1.092  0.00  0.00    -0.251 OA
ENDBRANCH  12  14
ENDBRANCH   1  12
BRANCH   5  16
ATOM     16  C   UNL     1       0.360   1.737  -0.018  0.00  0.00    +0.126 C 
BRANCH  16  17
ATOM     17  O   UNL     1       1.656   1.138  -0.059  0.00  0.00    -0.458 OA
BRANCH  17  18
ATOM     18  C   UNL     1       2.164   0.301   0.943  0.00  0.00    +0.339 C 
ATOM     19  O   UNL     1       1.535   0.155   2.028  0.00  0.00    -0.245 OA
BRANCH  18  20
ATOM     20  C   UNL     1       3.447  -0.402   0.728  0.00  0.00    +0.059 A 
ATOM     21  C   UNL     1       4.005  -1.208   1.739  0.00  0.00    -0.048 A 
ATOM     22  C   UNL     1       5.217  -1.872   1.525  0.00  0.00    -0.061 A 
ATOM     23  C   UNL     1       5.883  -1.740   0.304  0.00  0.00    -0.062 A 
ATOM     24  C   UNL     1       5.338  -0.945  -0.706  0.00  0.00    -0.061 A 
ATOM     25  C   UNL     1       4.126  -0.278  -0.498  0.00  0.00    -0.048 A 
ENDBRANCH  18  20
ENDBRANCH  17  18
ENDBRANCH  16  17
ENDBRANCH   5  16
TORSDOF 8
