REMARK  Name = 
REMARK  12 active torsions:
REMARK  status: ('A' for Active; 'I' for Inactive)
REMARK    1  A    between atoms: C_1  and  C_2
REMARK    2  A    between atoms: C_2  and  O_4
REMARK    3  A    between atoms: O_4  and  C_5
REMARK    4  A    between atoms: C_8  and  O_23
REMARK    5  A    between atoms: C_9  and  O_22
REMARK    6  A    between atoms: C_10  and  O_11
REMARK    7  A    between atoms: C_10  and  C_12
REMARK    8  A    between atoms: C_12  and  O_13
REMARK    9  A    between atoms: O_13  and  C_14
REMARK   10  A    between atoms: C_14  and  C_16
REMARK   11  A    between atoms: O_23  and  C_24
REMARK   12  A    between atoms: C_24  and  C_26
REMARK                            x       y       z     vdW  Elec       q    Type
REMARK                         _______ _______ _______ _____ _____    ______ ____
ROOT
ATOM      1  C   UNL     1      -1.970   1.663   1.253  0.00  0.00    +0.156 C 
ATOM      2  C   UNL     1      -3.184   1.435   0.386  0.00  0.00    -0.041 C 
ATOM      3  C   UNL     1      -3.438   0.264  -0.223  0.00  0.00    -0.042 C 
ATOM      4  C   UNL     1      -2.458  -0.885  -0.270  0.00  0.00    +0.150 C 
ATOM      5  C   UNL     1      -1.306  -0.717   0.759  0.00  0.00    +0.131 C 
ATOM      6  C   UNL     1      -0.775   0.750   0.838  0.00  0.00    +0.170 C 
ENDROOT
BRANCH   6   7
ATOM      7  O   UNL     1       0.235   0.829   1.818  0.00  0.00    -0.379 OA
ATOM      8  H   UNL     1       0.979   0.261   1.562  0.00  0.00    +0.000 HD
ENDBRANCH   6   7
BRANCH   5   9
ATOM      9  O   UNL     1      -0.262  -1.637   0.548  0.00  0.00    -0.385 OA
ATOM     10  H   UNL     1       0.152  -1.465  -0.313  0.00  0.00    +0.000 HD
ENDBRANCH   5   9
BRANCH   1  11
ATOM     11  O   UNL     1      -1.617   3.048   1.189  0.00  0.00    -0.454 OA
BRANCH  11  13
ATOM     12  C   UNL     1      -0.498   5.137   1.968  0.00  0.00    +0.033 C 
ATOM     13  C   UNL     1      -0.902   3.719   2.187  0.00  0.00    +0.305 C 
ATOM     14  O   UNL     1      -0.645   3.160   3.288  0.00  0.00    -0.251 OA
ENDBRANCH  11  13
ENDBRANCH   1  11
BRANCH   6  15
ATOM     15  C   UNL     1      -0.170   1.241  -0.511  0.00  0.00    +0.128 C 
BRANCH  15  16
ATOM     16  O   UNL     1       0.976   0.481  -0.892  0.00  0.00    -0.458 OA
BRANCH  16  17
ATOM     17  C   UNL     1       2.271   0.726  -0.417  0.00  0.00    +0.339 C 
ATOM     18  O   UNL     1       2.502   1.735   0.305  0.00  0.00    -0.245 OA
BRANCH  17  19
ATOM     19  C   UNL     1       3.369  -0.201  -0.770  0.00  0.00    +0.059 A 
ATOM     20  C   UNL     1       3.115  -1.328  -1.572  0.00  0.00    -0.048 A 
ATOM     21  C   UNL     1       4.150  -2.208  -1.903  0.00  0.00    -0.061 A 
ATOM     22  C   UNL     1       5.446  -1.973  -1.439  0.00  0.00    -0.062 A 
ATOM     23  C   UNL     1       5.710  -0.857  -0.641  0.00  0.00    -0.061 A 
ATOM     24  C   UNL     1       4.678   0.026  -0.307  0.00  0.00    -0.048 A 
ENDBRANCH  17  19
ENDBRANCH  16  17
ENDBRANCH  15  16
ENDBRANCH   6  15
BRANCH   4  25
ATOM     25  O   UNL     1      -3.177  -2.091  -0.004  0.00  0.00    -0.455 OA
BRANCH  25  26
ATOM     26  C   UNL     1      -2.775  -3.356  -0.448  0.00  0.00    +0.305 C 
ATOM     27  O   UNL     1      -1.797  -3.487  -1.233  0.00  0.00    -0.251 OA
ATOM     28  C   UNL     1      -3.559  -4.556  -0.042  0.00  0.00    +0.033 C 
ENDBRANCH  25  26
ENDBRANCH   4  25
TORSDOF 10
