REMARK  Name = 
REMARK  11 active torsions:
REMARK  status: ('A' for Active; 'I' for Inactive)
REMARK    1  A    between atoms: C_1  and  O_2
REMARK    2  A    between atoms: O_2  and  C_3
REMARK    3  A    between atoms: C_6  and  O_24
REMARK    4  A    between atoms: C_7  and  O_20
REMARK    5  A    between atoms: C_8  and  O_9
REMARK    6  A    between atoms: C_8  and  C_10
REMARK    7  A    between atoms: C_10  and  O_11
REMARK    8  A    between atoms: O_11  and  C_12
REMARK    9  A    between atoms: C_12  and  C_14
REMARK   10  A    between atoms: O_20  and  C_21
REMARK   11  A    between atoms: C_21  and  C_23
REMARK                            x       y       z     vdW  Elec       q    Type
REMARK                         _______ _______ _______ _____ _____    ______ ____
ROOT
ATOM      1  C   UNL     1      -2.031  -2.414   0.758  0.00  0.00    +0.112 C 
ATOM      2  C   UNL     1      -3.402  -2.013   1.233  0.00  0.00    -0.054 C 
ATOM      3  C   UNL     1      -3.663  -0.783   1.692  0.00  0.00    -0.054 C 
ATOM      4  C   UNL     1      -2.634   0.325   1.741  0.00  0.00    +0.113 C 
ATOM      5  C   UNL     1      -1.253  -0.038   1.107  0.00  0.00    +0.167 C 
ATOM      6  C   UNL     1      -1.341  -1.207   0.077  0.00  0.00    +0.169 C 
ENDROOT
BRANCH   1   8
ATOM      7  C   UNL     1      -1.478  -4.205   2.145  0.00  0.00    +0.037 C 
ATOM      8  O   UNL     1      -1.258  -2.840   1.865  0.00  0.00    -0.373 OA
ENDBRANCH   1   8
BRANCH   6   9
ATOM      9  O   UNL     1      -2.118  -0.827  -1.034  0.00  0.00    -0.379 OA
ATOM     10  H   UNL     1      -1.702  -0.070  -1.475  0.00  0.00    +0.000 HD
ENDBRANCH   6   9
BRANCH   4  11
ATOM     11  O   UNL     1      -2.437   0.692   3.082  0.00  0.00    -0.384 OA
ATOM     12  H   UNL     1      -2.082  -0.064   3.575  0.00  0.00    +0.000 HD
ENDBRANCH   4  11
BRANCH   6  13
ATOM     13  C   UNL     1       0.065  -1.647  -0.396  0.00  0.00    +0.128 C 
BRANCH  13  14
ATOM     14  O   UNL     1       0.751  -0.568  -1.020  0.00  0.00    -0.458 OA
BRANCH  14  15
ATOM     15  C   UNL     1       2.105  -0.643  -1.385  0.00  0.00    +0.339 C 
ATOM     16  O   UNL     1       2.754  -1.719  -1.219  0.00  0.00    -0.245 OA
BRANCH  15  17
ATOM     17  C   UNL     1       2.780   0.543  -1.955  0.00  0.00    +0.059 A 
ATOM     18  C   UNL     1       2.029   1.658  -2.369  0.00  0.00    -0.048 A 
ATOM     19  C   UNL     1       2.670   2.783  -2.902  0.00  0.00    -0.061 A 
ATOM     20  C   UNL     1       4.062   2.808  -3.023  0.00  0.00    -0.062 A 
ATOM     21  C   UNL     1       4.819   1.706  -2.612  0.00  0.00    -0.061 A 
ATOM     22  C   UNL     1       4.183   0.577  -2.083  0.00  0.00    -0.048 A 
ENDBRANCH  15  17
ENDBRANCH  14  15
ENDBRANCH  13  14
ENDBRANCH   6  13
BRANCH   5  23
ATOM     23  O   UNL     1      -0.682   1.123   0.486  0.00  0.00    -0.455 OA
BRANCH  23  24
ATOM     24  C   UNL     1      -0.183   2.212   1.195  0.00  0.00    +0.304 C 
ATOM     25  O   UNL     1      -0.120   2.189   2.458  0.00  0.00    -0.251 OA
ATOM     26  C   UNL     1       0.303   3.420   0.463  0.00  0.00    +0.033 C 
ENDBRANCH  23  24
ENDBRANCH   5  23
TORSDOF 9
