REMARK  Name = 
REMARK  14 active torsions:
REMARK  status: ('A' for Active; 'I' for Inactive)
REMARK    1  A    between atoms: C_1  and  O_2
REMARK    2  A    between atoms: O_2  and  C_3
REMARK    3  A    between atoms: C_8  and  C_9
REMARK    4  A    between atoms: C_9  and  C_10
REMARK    5  A    between atoms: C_9  and  O_25
REMARK    6  A    between atoms: C_10  and  O_11
REMARK    7  A    between atoms: C_10  and  C_15
REMARK    8  A    between atoms: O_11  and  C_12
REMARK    9  A    between atoms: C_12  and  C_14
REMARK   10  A    between atoms: C_15  and  O_16
REMARK   11  A    between atoms: O_16  and  C_17
REMARK   12  A    between atoms: C_17  and  C_19
REMARK   13  A    between atoms: O_25  and  C_26
REMARK   14  A    between atoms: C_26  and  C_28
REMARK                            x       y       z     vdW  Elec       q    Type
REMARK                         _______ _______ _______ _____ _____    ______ ____
ROOT
ATOM      1  C   UNL     1      -0.540  -0.326   0.403  0.00  0.00    +0.177 C 
ENDROOT
BRANCH   1   2
ATOM      2  C   UNL     1      -2.005  -0.659  -0.012  0.00  0.00    +0.182 C 
BRANCH   2   8
ATOM      3  C   UNL     1      -3.552   1.515  -0.058  0.00  0.00    +0.109 C 
ATOM      4  C   UNL     1      -3.436   2.653   0.978  0.00  0.00    +0.075 C 
ATOM      5  C   UNL     1      -2.903   1.970   2.172  0.00  0.00    +0.310 C 
ATOM      6  O   UNL     1      -2.647   2.550   3.259  0.00  0.00    -0.251 OA
ATOM      7  O   UNL     1      -2.693   0.624   1.980  0.00  0.00    -0.455 OA
ATOM      8  C   UNL     1      -3.093   0.216   0.683  0.00  0.00    +0.170 C 
BRANCH   3  10
ATOM      9  C   UNL     1      -3.468   2.555  -2.135  0.00  0.00    +0.037 C 
ATOM     10  O   UNL     1      -2.748   1.791  -1.193  0.00  0.00    -0.375 OA
ENDBRANCH   3  10
ENDBRANCH   2   8
BRANCH   2  11
ATOM     11  O   UNL     1      -2.281  -2.024   0.322  0.00  0.00    -0.454 OA
BRANCH  11  12
ATOM     12  C   UNL     1      -2.109  -3.100  -0.558  0.00  0.00    +0.304 C 
ATOM     13  O   UNL     1      -1.699  -2.916  -1.737  0.00  0.00    -0.251 OA
ATOM     14  C   UNL     1      -2.356  -4.488  -0.074  0.00  0.00    +0.033 C 
ENDBRANCH  11  12
ENDBRANCH   2  11
ENDBRANCH   1   2
BRANCH   1  15
ATOM     15  O   UNL     1       0.347  -1.309  -0.135  0.00  0.00    -0.454 OA
BRANCH  15  16
ATOM     16  C   UNL     1       0.817  -2.419   0.579  0.00  0.00    +0.304 C 
ATOM     17  O   UNL     1       0.477  -2.610   1.778  0.00  0.00    -0.251 OA
ATOM     18  C   UNL     1       1.767  -3.360  -0.079  0.00  0.00    +0.033 C 
ENDBRANCH  15  16
ENDBRANCH   1  15
BRANCH   1  19
ATOM     19  C   UNL     1      -0.079   1.054  -0.092  0.00  0.00    +0.133 C 
BRANCH  19  20
ATOM     20  O   UNL     1       1.273   1.298   0.298  0.00  0.00    -0.457 OA
BRANCH  20  21
ATOM     21  C   UNL     1       2.386   0.860  -0.432  0.00  0.00    +0.339 C 
ATOM     22  O   UNL     1       2.232   0.330  -1.567  0.00  0.00    -0.245 OA
BRANCH  21  23
ATOM     23  C   UNL     1       3.744   1.023   0.132  0.00  0.00    +0.059 A 
ATOM     24  C   UNL     1       4.875   0.580  -0.579  0.00  0.00    -0.048 A 
ATOM     25  C   UNL     1       6.155   0.732  -0.037  0.00  0.00    -0.061 A 
ATOM     26  C   UNL     1       6.319   1.325   1.217  0.00  0.00    -0.062 A 
ATOM     27  C   UNL     1       5.204   1.767   1.932  0.00  0.00    -0.061 A 
ATOM     28  C   UNL     1       3.921   1.618   1.395  0.00  0.00    -0.048 A 
ENDBRANCH  21  23
ENDBRANCH  20  21
ENDBRANCH  19  20
ENDBRANCH   1  19
TORSDOF 11
