REMARK  Name = 
REMARK  11 active torsions:
REMARK  status: ('A' for Active; 'I' for Inactive)
REMARK    1  A    between atoms: O_1  and  C_2
REMARK    2  A    between atoms: C_6  and  C_12
REMARK    3  A    between atoms: C_7  and  O_8
REMARK    4  A    between atoms: O_8  and  C_9
REMARK    5  A    between atoms: C_9  and  C_11
REMARK    6  A    between atoms: C_12  and  O_13
REMARK    7  A    between atoms: C_12  and  O_17
REMARK    8  A    between atoms: O_13  and  C_14
REMARK    9  A    between atoms: C_14  and  C_16
REMARK   10  A    between atoms: O_17  and  C_18
REMARK   11  A    between atoms: C_18  and  C_20
REMARK                            x       y       z     vdW  Elec       q    Type
REMARK                         _______ _______ _______ _____ _____    ______ ____
ROOT
ATOM      1  C   UNL     1       0.066   0.929   0.971  0.00  0.00    +0.276 C 
ENDROOT
BRANCH   1   6
ATOM      2  C   UNL     1      -2.869   0.721  -1.621  0.00  0.00    +0.115 C 
ATOM      3  C   UNL     1      -2.355   1.776  -2.563  0.00  0.00    -0.052 C 
ATOM      4  C   UNL     1      -1.123   2.268  -2.425  0.00  0.00    -0.063 C 
ATOM      5  C   UNL     1      -0.290   1.892  -1.271  0.00  0.00    -0.052 C 
ATOM      6  C   UNL     1      -0.808   1.216  -0.230  0.00  0.00    +0.053 C 
ATOM      7  C   UNL     1      -2.301   0.918  -0.193  0.00  0.00    +0.160 C 
BRANCH   2   8
ATOM      8  O   UNL     1      -4.271   0.777  -1.599  0.00  0.00    -0.384 OA
ATOM      9  H   UNL     1      -4.614   0.652  -2.498  0.00  0.00    +0.000 HD
ENDBRANCH   2   8
BRANCH   7  10
ATOM     10  O   UNL     1      -2.539  -0.262   0.579  0.00  0.00    -0.454 OA
BRANCH  10  11
ATOM     11  C   UNL     1      -3.722  -0.510   1.282  0.00  0.00    +0.305 C 
ATOM     12  O   UNL     1      -4.638   0.355   1.338  0.00  0.00    -0.251 OA
ATOM     13  C   UNL     1      -3.874  -1.792   2.027  0.00  0.00    +0.033 C 
ENDBRANCH  10  11
ENDBRANCH   7  10
ENDBRANCH   1   6
BRANCH   1  14
ATOM     14  O   UNL     1       0.496   2.166   1.535  0.00  0.00    -0.421 OA
BRANCH  14  15
ATOM     15  C   UNL     1       1.253   2.244   2.708  0.00  0.00    +0.307 C 
ATOM     16  O   UNL     1       1.552   1.203   3.355  0.00  0.00    -0.251 OA
ATOM     17  C   UNL     1       1.665   3.579   3.227  0.00  0.00    +0.033 C 
ENDBRANCH  14  15
ENDBRANCH   1  14
BRANCH   1  18
ATOM     18  O   UNL     1       1.208   0.167   0.576  0.00  0.00    -0.417 OA
BRANCH  18  19
ATOM     19  C   UNL     1       1.143  -1.175   0.182  0.00  0.00    +0.342 C 
ATOM     20  O   UNL     1       0.039  -1.788   0.199  0.00  0.00    -0.245 OA
BRANCH  19  21
ATOM     21  C   UNL     1       2.372  -1.873  -0.251  0.00  0.00    +0.059 A 
ATOM     22  C   UNL     1       3.605  -1.196  -0.266  0.00  0.00    -0.048 A 
ATOM     23  C   UNL     1       4.769  -1.853  -0.678  0.00  0.00    -0.061 A 
ATOM     24  C   UNL     1       4.715  -3.190  -1.078  0.00  0.00    -0.062 A 
ATOM     25  C   UNL     1       3.496  -3.873  -1.068  0.00  0.00    -0.061 A 
ATOM     26  C   UNL     1       2.329  -3.220  -0.658  0.00  0.00    -0.048 A 
ENDBRANCH  19  21
ENDBRANCH  18  19
ENDBRANCH   1  18
TORSDOF 9
