REMARK  Name = 
REMARK  12 active torsions:
REMARK  status: ('A' for Active; 'I' for Inactive)
REMARK    1  A    between atoms: C_2  and  C_3
REMARK    2  A    between atoms: C_9  and  C_20
REMARK    3  A    between atoms: C_13  and  O_19
REMARK    4  A    between atoms: C_14  and  O_15
REMARK    5  A    between atoms: O_15  and  C_16
REMARK    6  A    between atoms: C_16  and  C_18
REMARK    7  A    between atoms: C_20  and  O_21
REMARK    8  A    between atoms: C_20  and  O_30
REMARK    9  A    between atoms: O_21  and  C_22
REMARK   10  A    between atoms: C_22  and  C_24
REMARK   11  A    between atoms: O_30  and  C_31
REMARK   12  A    between atoms: C_31  and  C_33
REMARK                            x       y       z     vdW  Elec       q    Type
REMARK                         _______ _______ _______ _____ _____    ______ ____
ROOT
ATOM      1  C   UNL     1      -1.581  -2.815  -0.166  0.00  0.00    +0.014 A 
ATOM      2  C   UNL     1      -2.413  -3.014  -1.284  0.00  0.00    -0.051 A 
ATOM      3  C   UNL     1      -2.588  -2.001  -2.233  0.00  0.00    -0.057 A 
ATOM      4  C   UNL     1      -1.923  -0.785  -2.066  0.00  0.00    -0.034 A 
ATOM      5  C   UNL     1      -1.087  -0.566  -0.951  0.00  0.00    -0.022 A 
ATOM      6  C   UNL     1      -0.919  -1.583   0.002  0.00  0.00    -0.047 A 
ATOM      7  C   UNL     1      -0.456   0.839  -0.930  0.00  0.00    +0.127 C 
ATOM      8  C   UNL     1       0.202   1.006  -2.306  0.00  0.00    -0.066 C 
ATOM      9  C   UNL     1      -0.606   0.774  -3.365  0.00  0.00    -0.077 C 
ATOM     10  C   UNL     1      -2.039   0.398  -3.011  0.00  0.00    +0.032 C 
ATOM     11  C   UNL     1      -2.613   1.566  -2.148  0.00  0.00    +0.104 C 
ATOM     12  C   UNL     1      -1.654   1.858  -0.920  0.00  0.00    +0.149 C 
ENDROOT
BRANCH   1  14
ATOM     13  O   UNL     1      -0.677  -3.763   1.826  0.00  0.00    -0.296 OA
ATOM     14  C   UNL     1      -1.417  -3.904   0.815  0.00  0.00    +0.150 C 
ENDBRANCH   1  14
BRANCH  11  15
ATOM     15  O   UNL     1      -2.827   2.719  -2.926  0.00  0.00    -0.387 OA
ATOM     16  H   UNL     1      -1.983   3.022  -3.294  0.00  0.00    +0.000 HD
ENDBRANCH  11  15
BRANCH  12  17
ATOM     17  O   UNL     1      -2.379   1.741   0.306  0.00  0.00    -0.457 OA
BRANCH  17  18
ATOM     18  C   UNL     1      -3.304   2.691   0.749  0.00  0.00    +0.304 C 
ATOM     19  O   UNL     1      -3.539   3.729   0.072  0.00  0.00    -0.251 OA
ATOM     20  C   UNL     1      -3.971   2.501   2.068  0.00  0.00    +0.033 C 
ENDBRANCH  17  18
ENDBRANCH  12  17
BRANCH   7  21
ATOM     21  C   UNL     1       0.567   1.107   0.200  0.00  0.00    +0.266 C 
BRANCH  21  22
ATOM     22  O   UNL     1       1.621   0.145   0.119  0.00  0.00    -0.420 OA
BRANCH  22  23
ATOM     23  C   UNL     1       2.974   0.426   0.341  0.00  0.00    +0.342 C 
ATOM     24  O   UNL     1       3.360   1.616   0.506  0.00  0.00    -0.245 OA
BRANCH  23  25
ATOM     25  C   UNL     1       3.953  -0.682   0.361  0.00  0.00    +0.059 A 
ATOM     26  C   UNL     1       3.523  -2.010   0.181  0.00  0.00    -0.048 A 
ATOM     27  C   UNL     1       4.446  -3.061   0.201  0.00  0.00    -0.061 A 
ATOM     28  C   UNL     1       5.803  -2.798   0.401  0.00  0.00    -0.062 A 
ATOM     29  C   UNL     1       6.241  -1.484   0.582  0.00  0.00    -0.061 A 
ATOM     30  C   UNL     1       5.323  -0.429   0.562  0.00  0.00    -0.048 A 
ENDBRANCH  23  25
ENDBRANCH  22  23
ENDBRANCH  21  22
BRANCH  21  31
ATOM     31  O   UNL     1      -0.075   1.009   1.471  0.00  0.00    -0.423 OA
BRANCH  31  32
ATOM     32  C   UNL     1       0.467   1.496   2.663  0.00  0.00    +0.307 C 
ATOM     33  O   UNL     1       1.554   2.133   2.669  0.00  0.00    -0.251 OA
ATOM     34  C   UNL     1      -0.292   1.319   3.933  0.00  0.00    +0.033 C 
ENDBRANCH  31  32
ENDBRANCH  21  31
ENDBRANCH   7  21
TORSDOF 10
