REMARK  Name = 
REMARK  10 active torsions:
REMARK  status: ('A' for Active; 'I' for Inactive)
REMARK    1  A    between atoms: C_1  and  C_2
REMARK    2  A    between atoms: C_2  and  O_4
REMARK    3  A    between atoms: O_4  and  C_5
REMARK    4  A    between atoms: C_8  and  O_25
REMARK    5  A    between atoms: C_9  and  O_21
REMARK    6  A    between atoms: C_11  and  O_12
REMARK    7  A    between atoms: O_12  and  C_13
REMARK    8  A    between atoms: C_13  and  C_15
REMARK    9  A    between atoms: O_21  and  C_22
REMARK   10  A    between atoms: C_22  and  C_24
REMARK                            x       y       z     vdW  Elec       q    Type
REMARK                         _______ _______ _______ _____ _____    ______ ____
ROOT
ATOM      1  C   UNL     1      -1.440   1.037   0.331  0.00  0.00    +0.149 C 
ATOM      2  C   UNL     1      -2.676   1.499   1.071  0.00  0.00    -0.041 C 
ATOM      3  C   UNL     1      -3.757   0.721   1.182  0.00  0.00    -0.052 C 
ATOM      4  C   UNL     1      -3.781  -0.645   0.556  0.00  0.00    +0.114 C 
ATOM      5  C   UNL     1      -2.440  -1.369   0.790  0.00  0.00    +0.160 C 
ATOM      6  C   UNL     1      -1.262  -0.478   0.415  0.00  0.00    +0.052 C 
ATOM      7  C   UNL     1      -0.067  -1.043   0.172  0.00  0.00    +0.103 C 
ENDROOT
BRANCH   4   8
ATOM      8  O   UNL     1      -4.831  -1.399   1.102  0.00  0.00    -0.384 OA
ATOM      9  H   UNL     1      -4.696  -1.498   2.057  0.00  0.00    +0.000 HD
ENDBRANCH   4   8
BRANCH   1  10
ATOM     10  O   UNL     1      -0.297   1.692   0.889  0.00  0.00    -0.453 OA
BRANCH  10  12
ATOM     11  C   UNL     1       1.281   3.598   1.221  0.00  0.00    +0.033 C 
ATOM     12  C   UNL     1       0.023   3.033   0.656  0.00  0.00    +0.305 C 
ATOM     13  O   UNL     1      -0.739   3.769  -0.025  0.00  0.00    -0.251 OA
ENDBRANCH  10  12
ENDBRANCH   1  10
BRANCH   7  14
ATOM     14  O   UNL     1       1.030  -0.269  -0.217  0.00  0.00    -0.430 OA
BRANCH  14  15
ATOM     15  C   UNL     1       2.322  -0.777  -0.376  0.00  0.00    +0.344 C 
ATOM     16  O   UNL     1       2.554  -2.005  -0.190  0.00  0.00    -0.245 OA
BRANCH  15  17
ATOM     17  C   UNL     1       3.421   0.137  -0.749  0.00  0.00    +0.059 A 
ATOM     18  C   UNL     1       4.762  -0.275  -0.659  0.00  0.00    -0.048 A 
ATOM     19  C   UNL     1       5.796   0.595  -1.021  0.00  0.00    -0.061 A 
ATOM     20  C   UNL     1       5.500   1.881  -1.481  0.00  0.00    -0.062 A 
ATOM     21  C   UNL     1       4.171   2.299  -1.580  0.00  0.00    -0.061 A 
ATOM     22  C   UNL     1       3.135   1.435  -1.217  0.00  0.00    -0.048 A 
ENDBRANCH  15  17
ENDBRANCH  14  15
ENDBRANCH   7  14
BRANCH   5  23
ATOM     23  O   UNL     1      -2.414  -2.566   0.002  0.00  0.00    -0.454 OA
BRANCH  23  24
ATOM     24  C   UNL     1      -2.985  -3.777   0.405  0.00  0.00    +0.305 C 
ATOM     25  O   UNL     1      -3.420  -3.928   1.579  0.00  0.00    -0.251 OA
ATOM     26  C   UNL     1      -3.030  -4.918  -0.553  0.00  0.00    +0.033 C 
ENDBRANCH  23  24
ENDBRANCH   5  23
TORSDOF 8
