REMARK  Name = 
REMARK  9 active torsions:
REMARK  status: ('A' for Active; 'I' for Inactive)
REMARK    1  A    between atoms: C_1  and  C_2
REMARK    2  A    between atoms: C_2  and  O_4
REMARK    3  A    between atoms: O_4  and  C_5
REMARK    4  A    between atoms: C_9  and  O_12
REMARK    5  A    between atoms: C_9  and  C_13
REMARK    6  A    between atoms: C_10  and  O_11
REMARK    7  A    between atoms: C_13  and  O_14
REMARK    8  A    between atoms: O_14  and  C_15
REMARK    9  A    between atoms: C_15  and  C_17
REMARK                            x       y       z     vdW  Elec       q    Type
REMARK                         _______ _______ _______ _____ _____    ______ ____
ROOT
ATOM      1  C   UNL     1      -3.254  -0.388  -0.586  0.00  0.00    +0.150 C 
ATOM      2  C   UNL     1      -2.941  -1.614  -1.401  0.00  0.00    -0.044 C 
ATOM      3  C   UNL     1      -1.695  -2.073  -1.583  0.00  0.00    -0.064 C 
ATOM      4  C   UNL     1      -0.502  -1.529  -0.835  0.00  0.00    +0.087 C 
ATOM      5  C   UNL     1      -0.733  -0.084  -0.288  0.00  0.00    +0.149 C 
ATOM      6  C   UNL     1      -2.122  -0.043   0.408  0.00  0.00    +0.129 C 
ATOM      7 CL   UNL     1       0.928  -1.660  -1.905  0.00  0.00    -0.114 Cl
ENDROOT
BRANCH   6   8
ATOM      8  O   UNL     1      -2.349   1.238   0.942  0.00  0.00    -0.385 OA
ATOM      9  H   UNL     1      -2.347   1.892   0.226  0.00  0.00    +0.000 HD
ENDBRANCH   6   8
BRANCH   5  10
ATOM     10  O   UNL     1      -0.747   0.856  -1.342  0.00  0.00    -0.381 OA
ATOM     11  H   UNL     1      -1.429   0.609  -1.986  0.00  0.00    +0.000 HD
ENDBRANCH   5  10
BRANCH   1  12
ATOM     12  O   UNL     1      -4.474  -0.620   0.120  0.00  0.00    -0.455 OA
BRANCH  12  14
ATOM     13  C   UNL     1      -6.580   0.044   1.285  0.00  0.00    +0.033 C 
ATOM     14  C   UNL     1      -5.360   0.394   0.503  0.00  0.00    +0.305 C 
ATOM     15  O   UNL     1      -5.168   1.589   0.150  0.00  0.00    -0.251 OA
ENDBRANCH  12  14
ENDBRANCH   1  12
BRANCH   5  16
ATOM     16  C   UNL     1       0.355   0.292   0.760  0.00  0.00    +0.126 C 
BRANCH  16  17
ATOM     17  O   UNL     1       1.657   0.298   0.181  0.00  0.00    -0.458 OA
BRANCH  17  18
ATOM     18  C   UNL     1       2.813   0.570   0.918  0.00  0.00    +0.339 C 
ATOM     19  O   UNL     1       2.733   0.796   2.158  0.00  0.00    -0.245 OA
BRANCH  18  20
ATOM     20  C   UNL     1       4.129   0.591   0.243  0.00  0.00    +0.059 A 
ATOM     21  C   UNL     1       5.312   0.796   0.979  0.00  0.00    -0.048 A 
ATOM     22  C   UNL     1       6.552   0.813   0.333  0.00  0.00    -0.061 A 
ATOM     23  C   UNL     1       6.626   0.627  -1.049  0.00  0.00    -0.062 A 
ATOM     24  C   UNL     1       5.459   0.426  -1.790  0.00  0.00    -0.061 A 
ATOM     25  C   UNL     1       4.216   0.408  -1.149  0.00  0.00    -0.048 A 
ENDBRANCH  18  20
ENDBRANCH  17  18
ENDBRANCH  16  17
ENDBRANCH   5  16
TORSDOF 8
