REMARK  Name = 
REMARK  11 active torsions:
REMARK  status: ('A' for Active; 'I' for Inactive)
REMARK    1  A    between atoms: C_1  and  O_2
REMARK    2  A    between atoms: O_2  and  C_3
REMARK    3  A    between atoms: C_6  and  O_21
REMARK    4  A    between atoms: C_7  and  O_20
REMARK    5  A    between atoms: C_8  and  O_9
REMARK    6  A    between atoms: C_8  and  C_10
REMARK    7  A    between atoms: C_10  and  O_11
REMARK    8  A    between atoms: O_11  and  C_12
REMARK    9  A    between atoms: C_12  and  C_14
REMARK   10  A    between atoms: O_21  and  C_22
REMARK   11  A    between atoms: C_22  and  C_24
REMARK                            x       y       z     vdW  Elec       q    Type
REMARK                         _______ _______ _______ _____ _____    ______ ____
ROOT
ATOM      1  C   UNL     1      -1.070   1.587  -1.190  0.00  0.00    +0.111 C 
ATOM      2  C   UNL     1      -2.250   2.019  -0.347  0.00  0.00    -0.053 C 
ATOM      3  C   UNL     1      -2.778   1.246   0.618  0.00  0.00    -0.043 C 
ATOM      4  C   UNL     1      -2.421  -0.209   0.809  0.00  0.00    +0.150 C 
ATOM      5  C   UNL     1      -1.103  -0.591   0.084  0.00  0.00    +0.130 C 
ATOM      6  C   UNL     1      -1.029   0.039  -1.343  0.00  0.00    +0.159 C 
ENDROOT
BRANCH   1   8
ATOM      7  C   UNL     1       0.505   3.302  -1.094  0.00  0.00    +0.037 C 
ATOM      8  O   UNL     1       0.114   2.056  -0.562  0.00  0.00    -0.373 OA
ENDBRANCH   1   8
BRANCH   6   9
ATOM      9  O   UNL     1      -2.167  -0.329  -2.095  0.00  0.00    -0.380 OA
ATOM     10  H   UNL     1      -2.179  -1.292  -2.214  0.00  0.00    +0.000 HD
ENDBRANCH   6   9
BRANCH   5  11
ATOM     11  O   UNL     1      -0.903  -1.984   0.079  0.00  0.00    -0.385 OA
ATOM     12  H   UNL     1      -1.620  -2.412  -0.416  0.00  0.00    +0.000 HD
ENDBRANCH   5  11
BRANCH   6  13
ATOM     13  C   UNL     1       0.252  -0.399  -2.116  0.00  0.00    +0.127 C 
BRANCH  13  14
ATOM     14  O   UNL     1       1.452  -0.032  -1.432  0.00  0.00    -0.458 OA
BRANCH  14  15
ATOM     15  C   UNL     1       2.188  -0.893  -0.608  0.00  0.00    +0.339 C 
ATOM     16  O   UNL     1       1.892  -2.118  -0.540  0.00  0.00    -0.245 OA
BRANCH  15  17
ATOM     17  C   UNL     1       3.320  -0.360   0.180  0.00  0.00    +0.059 A 
ATOM     18  C   UNL     1       4.059  -1.198   1.036  0.00  0.00    -0.048 A 
ATOM     19  C   UNL     1       5.124  -0.685   1.783  0.00  0.00    -0.061 A 
ATOM     20  C   UNL     1       5.462   0.667   1.685  0.00  0.00    -0.062 A 
ATOM     21  C   UNL     1       4.736   1.508   0.838  0.00  0.00    -0.061 A 
ATOM     22  C   UNL     1       3.670   1.000   0.089  0.00  0.00    -0.048 A 
ENDBRANCH  15  17
ENDBRANCH  14  15
ENDBRANCH  13  14
ENDBRANCH   6  13
BRANCH   4  23
ATOM     23  O   UNL     1      -3.520  -0.994   0.338  0.00  0.00    -0.455 OA
BRANCH  23  24
ATOM     24  C   UNL     1      -3.888  -2.230   0.882  0.00  0.00    +0.305 C 
ATOM     25  O   UNL     1      -3.281  -2.705   1.881  0.00  0.00    -0.251 OA
ATOM     26  C   UNL     1      -5.043  -2.971   0.301  0.00  0.00    +0.033 C 
ENDBRANCH  23  24
ENDBRANCH   4  23
TORSDOF 9
