REMARK  Name = 
REMARK  12 active torsions:
REMARK  status: ('A' for Active; 'I' for Inactive)
REMARK    1  A    between atoms: C_1  and  C_2
REMARK    2  A    between atoms: C_2  and  O_4
REMARK    3  A    between atoms: O_4  and  C_5
REMARK    4  A    between atoms: C_8  and  O_23
REMARK    5  A    between atoms: C_9  and  O_12
REMARK    6  A    between atoms: C_9  and  C_13
REMARK    7  A    between atoms: C_10  and  O_11
REMARK    8  A    between atoms: C_13  and  O_14
REMARK    9  A    between atoms: O_14  and  C_15
REMARK   10  A    between atoms: C_15  and  C_17
REMARK   11  A    between atoms: O_23  and  C_24
REMARK   12  A    between atoms: C_24  and  C_26
REMARK                            x       y       z     vdW  Elec       q    Type
REMARK                         _______ _______ _______ _____ _____    ______ ____
ROOT
ATOM      1  C   UNL     1      -0.770   3.128   0.050  0.00  0.00    +0.150 C 
ATOM      2  C   UNL     1      -1.935   2.829   0.967  0.00  0.00    -0.042 C 
ATOM      3  C   UNL     1      -2.618   1.680   0.900  0.00  0.00    -0.041 C 
ATOM      4  C   UNL     1      -2.183   0.584  -0.031  0.00  0.00    +0.156 C 
ATOM      5  C   UNL     1      -0.632   0.488  -0.036  0.00  0.00    +0.170 C 
ATOM      6  C   UNL     1      -0.027   1.862  -0.503  0.00  0.00    +0.131 C 
ENDROOT
BRANCH   6   7
ATOM      7  O   UNL     1      -0.036   1.933  -1.915  0.00  0.00    -0.385 OA
ATOM      8  H   UNL     1      -0.951   1.913  -2.234  0.00  0.00    +0.000 HD
ENDBRANCH   6   7
BRANCH   5   9
ATOM      9  O   UNL     1      -0.173   0.157   1.260  0.00  0.00    -0.379 OA
ATOM     10  H   UNL     1      -0.440   0.850   1.884  0.00  0.00    +0.000 HD
ENDBRANCH   5   9
BRANCH   1  11
ATOM     11  O   UNL     1       0.147   3.990   0.737  0.00  0.00    -0.455 OA
BRANCH  11  13
ATOM     12  C   UNL     1       2.007   5.665   0.875  0.00  0.00    +0.033 C 
ATOM     13  C   UNL     1       1.104   4.778   0.079  0.00  0.00    +0.305 C 
ATOM     14  O   UNL     1       1.224   4.734  -1.177  0.00  0.00    -0.251 OA
ENDBRANCH  11  13
ENDBRANCH   1  11
BRANCH   5  15
ATOM     15  C   UNL     1      -0.173  -0.655  -0.979  0.00  0.00    +0.128 C 
BRANCH  15  16
ATOM     16  O   UNL     1       1.242  -0.627  -1.173  0.00  0.00    -0.458 OA
BRANCH  16  17
ATOM     17  C   UNL     1       2.167  -1.161  -0.263  0.00  0.00    +0.339 C 
ATOM     18  O   UNL     1       1.771  -1.882   0.697  0.00  0.00    -0.245 OA
BRANCH  17  19
ATOM     19  C   UNL     1       3.608  -0.878  -0.433  0.00  0.00    +0.059 A 
ATOM     20  C   UNL     1       4.560  -1.429   0.449  0.00  0.00    -0.048 A 
ATOM     21  C   UNL     1       5.921  -1.145   0.288  0.00  0.00    -0.061 A 
ATOM     22  C   UNL     1       6.345  -0.311  -0.750  0.00  0.00    -0.062 A 
ATOM     23  C   UNL     1       5.409   0.241  -1.630  0.00  0.00    -0.061 A 
ATOM     24  C   UNL     1       4.047  -0.039  -1.475  0.00  0.00    -0.048 A 
ENDBRANCH  17  19
ENDBRANCH  16  17
ENDBRANCH  15  16
ENDBRANCH   5  15
BRANCH   4  25
ATOM     25  O   UNL     1      -2.771  -0.646   0.404  0.00  0.00    -0.451 OA
BRANCH  25  26
ATOM     26  C   UNL     1      -3.260  -1.631  -0.466  0.00  0.00    +0.340 C 
ATOM     27  O   UNL     1      -3.286  -1.423  -1.711  0.00  0.00    -0.245 OA
BRANCH  26  28
ATOM     28  C   UNL     1      -3.739  -2.919   0.079  0.00  0.00    +0.059 A 
ATOM     29  C   UNL     1      -3.698  -3.165   1.464  0.00  0.00    -0.048 A 
ATOM     30  C   UNL     1      -4.139  -4.389   1.978  0.00  0.00    -0.061 A 
ATOM     31  C   UNL     1      -4.624  -5.377   1.118  0.00  0.00    -0.062 A 
ATOM     32  C   UNL     1      -4.671  -5.143  -0.258  0.00  0.00    -0.061 A 
ATOM     33  C   UNL     1      -4.232  -3.921  -0.778  0.00  0.00    -0.048 A 
ENDBRANCH  26  28
ENDBRANCH  25  26
ENDBRANCH   4  25
TORSDOF 11
