REMARK  Name = 
REMARK  8 active torsions:
REMARK  status: ('A' for Active; 'I' for Inactive)
REMARK    1  A    between atoms: C_1  and  C_2
REMARK    2  A    between atoms: C_2  and  O_4
REMARK    3  A    between atoms: O_4  and  C_5
REMARK    4  A    between atoms: C_8  and  O_22
REMARK    5  A    between atoms: C_9  and  O_21
REMARK    6  A    between atoms: C_11  and  O_12
REMARK    7  A    between atoms: O_12  and  C_13
REMARK    8  A    between atoms: C_13  and  C_15
REMARK                            x       y       z     vdW  Elec       q    Type
REMARK                         _______ _______ _______ _____ _____    ______ ____
ROOT
ATOM      1  C   UNL     1      -1.705   0.070  -0.378  0.00  0.00    +0.148 C 
ATOM      2  C   UNL     1      -3.148   0.279  -0.777  0.00  0.00    -0.041 C 
ATOM      3  C   UNL     1      -4.052  -0.705  -0.681  0.00  0.00    -0.053 C 
ATOM      4  C   UNL     1      -3.657  -2.064  -0.164  0.00  0.00    +0.103 C 
ATOM      5  C   UNL     1      -2.687  -1.932   1.032  0.00  0.00    +0.112 C 
ATOM      6  C   UNL     1      -1.575  -0.932   0.756  0.00  0.00    +0.040 C 
ATOM      7  C   UNL     1      -0.457  -0.974   1.493  0.00  0.00    +0.102 C 
ENDROOT
BRANCH   5   8
ATOM      8  O   UNL     1      -3.381  -1.582   2.204  0.00  0.00    -0.384 OA
ATOM      9  H   UNL     1      -3.798  -0.714   2.086  0.00  0.00    +0.000 HD
ENDBRANCH   5   8
BRANCH   4  10
ATOM     10  O   UNL     1      -3.031  -2.789  -1.191  0.00  0.00    -0.385 OA
ATOM     11  H   UNL     1      -2.234  -2.318  -1.480  0.00  0.00    +0.000 HD
ENDBRANCH   4  10
BRANCH   1  12
ATOM     12  O   UNL     1      -0.952  -0.397  -1.497  0.00  0.00    -0.453 OA
BRANCH  12  14
ATOM     13  C   UNL     1       0.187  -0.167  -3.705  0.00  0.00    +0.033 C 
ATOM     14  C   UNL     1      -0.603   0.413  -2.583  0.00  0.00    +0.305 C 
ATOM     15  O   UNL     1      -0.906   1.637  -2.599  0.00  0.00    -0.251 OA
ENDBRANCH  12  14
ENDBRANCH   1  12
BRANCH   7  16
ATOM     16  O   UNL     1       0.604  -0.106   1.223  0.00  0.00    -0.430 OA
BRANCH  16  17
ATOM     17  C   UNL     1       1.798  -0.095   1.951  0.00  0.00    +0.344 C 
ATOM     18  O   UNL     1       1.948  -0.864   2.941  0.00  0.00    -0.245 OA
BRANCH  17  19
ATOM     19  C   UNL     1       2.886   0.826   1.554  0.00  0.00    +0.059 A 
ATOM     20  C   UNL     1       2.734   1.658   0.430  0.00  0.00    -0.048 A 
ATOM     21  C   UNL     1       3.761   2.530   0.051  0.00  0.00    -0.061 A 
ATOM     22  C   UNL     1       4.946   2.580   0.789  0.00  0.00    -0.062 A 
ATOM     23  C   UNL     1       5.107   1.758   1.907  0.00  0.00    -0.061 A 
ATOM     24  C   UNL     1       4.085   0.883   2.289  0.00  0.00    -0.048 A 
ENDBRANCH  17  19
ENDBRANCH  16  17
ENDBRANCH   7  16
TORSDOF 7
