REMARK  Name = 
REMARK  13 active torsions:
REMARK  status: ('A' for Active; 'I' for Inactive)
REMARK    1  A    between atoms: C_1  and  O_2
REMARK    2  A    between atoms: O_2  and  C_3
REMARK    3  A    between atoms: C_6  and  O_24
REMARK    4  A    between atoms: C_7  and  O_20
REMARK    5  A    between atoms: C_8  and  O_9
REMARK    6  A    between atoms: C_8  and  C_10
REMARK    7  A    between atoms: C_10  and  O_11
REMARK    8  A    between atoms: O_11  and  C_12
REMARK    9  A    between atoms: C_12  and  C_14
REMARK   10  A    between atoms: O_20  and  C_21
REMARK   11  A    between atoms: C_21  and  C_23
REMARK   12  A    between atoms: O_24  and  C_25
REMARK   13  A    between atoms: C_25  and  C_27
REMARK                            x       y       z     vdW  Elec       q    Type
REMARK                         _______ _______ _______ _____ _____    ______ ____
ROOT
ATOM      1  C   UNL     1      -0.893  -3.123   0.741  0.00  0.00    +0.112 C 
ATOM      2  C   UNL     1      -2.165  -3.191  -0.068  0.00  0.00    -0.053 C 
ATOM      3  C   UNL     1      -2.899  -2.086  -0.244  0.00  0.00    -0.042 C 
ATOM      4  C   UNL     1      -2.530  -0.813   0.472  0.00  0.00    +0.161 C 
ATOM      5  C   UNL     1      -0.989  -0.546   0.474  0.00  0.00    +0.178 C 
ATOM      6  C   UNL     1      -0.103  -1.845   0.327  0.00  0.00    +0.170 C 
ENDROOT
BRANCH   1   8
ATOM      7  C   UNL     1      -1.341  -4.366   2.655  0.00  0.00    +0.037 C 
ATOM      8  O   UNL     1      -1.216  -3.065   2.123  0.00  0.00    -0.373 OA
ENDBRANCH   1   8
BRANCH   6   9
ATOM      9  O   UNL     1       0.331  -2.001  -1.008  0.00  0.00    -0.379 OA
ATOM     10  H   UNL     1       0.826  -1.213  -1.281  0.00  0.00    +0.000 HD
ENDBRANCH   6   9
BRANCH   6  11
ATOM     11  C   UNL     1       1.169  -1.722   1.206  0.00  0.00    +0.128 C 
BRANCH  11  12
ATOM     12  O   UNL     1       1.891  -0.524   0.912  0.00  0.00    -0.458 OA
BRANCH  12  13
ATOM     13  C   UNL     1       2.763  -0.380  -0.174  0.00  0.00    +0.339 C 
ATOM     14  O   UNL     1       3.077  -1.382  -0.874  0.00  0.00    -0.245 OA
BRANCH  13  15
ATOM     15  C   UNL     1       3.314   0.953  -0.497  0.00  0.00    +0.059 A 
ATOM     16  C   UNL     1       3.089   2.042   0.364  0.00  0.00    -0.048 A 
ATOM     17  C   UNL     1       3.588   3.309   0.048  0.00  0.00    -0.061 A 
ATOM     18  C   UNL     1       4.317   3.502  -1.127  0.00  0.00    -0.062 A 
ATOM     19  C   UNL     1       4.551   2.428  -1.988  0.00  0.00    -0.061 A 
ATOM     20  C   UNL     1       4.054   1.158  -1.677  0.00  0.00    -0.048 A 
ENDBRANCH  13  15
ENDBRANCH  12  13
ENDBRANCH  11  12
ENDBRANCH   6  11
BRANCH   5  21
ATOM     21  O   UNL     1      -0.644   0.378  -0.568  0.00  0.00    -0.454 OA
BRANCH  21  22
ATOM     22  C   UNL     1      -0.307   1.720  -0.359  0.00  0.00    +0.304 C 
ATOM     23  O   UNL     1      -0.327   2.225   0.796  0.00  0.00    -0.251 OA
ATOM     24  C   UNL     1       0.041   2.573  -1.531  0.00  0.00    +0.033 C 
ENDBRANCH  21  22
ENDBRANCH   5  21
BRANCH   4  25
ATOM     25  O   UNL     1      -3.246   0.277  -0.113  0.00  0.00    -0.453 OA
BRANCH  25  26
ATOM     26  C   UNL     1      -3.497   1.480   0.556  0.00  0.00    +0.305 C 
ATOM     27  O   UNL     1      -3.188   1.621   1.770  0.00  0.00    -0.251 OA
ATOM     28  C   UNL     1      -4.178   2.592  -0.167  0.00  0.00    +0.033 C 
ENDBRANCH  25  26
ENDBRANCH   4  25
TORSDOF 10
