REMARK  Name = 
REMARK  14 active torsions:
REMARK  status: ('A' for Active; 'I' for Inactive)
REMARK    1  A    between atoms: C_1  and  C_2
REMARK    2  A    between atoms: C_2  and  O_4
REMARK    3  A    between atoms: O_4  and  C_5
REMARK    4  A    between atoms: C_8  and  O_26
REMARK    5  A    between atoms: C_9  and  O_15
REMARK    6  A    between atoms: C_9  and  C_16
REMARK    7  A    between atoms: C_10  and  O_11
REMARK    8  A    between atoms: O_11  and  C_12
REMARK    9  A    between atoms: C_12  and  C_14
REMARK   10  A    between atoms: C_16  and  O_17
REMARK   11  A    between atoms: O_17  and  C_18
REMARK   12  A    between atoms: C_18  and  C_20
REMARK   13  A    between atoms: O_26  and  C_27
REMARK   14  A    between atoms: C_27  and  C_29
REMARK                            x       y       z     vdW  Elec       q    Type
REMARK                         _______ _______ _______ _____ _____    ______ ____
ROOT
ATOM      1  C   UNL     1      -0.896  -3.063   0.981  0.00  0.00    +0.161 C 
ATOM      2  C   UNL     1      -2.354  -3.027   0.610  0.00  0.00    -0.041 C 
ATOM      3  C   UNL     1      -2.954  -1.850   0.408  0.00  0.00    -0.041 C 
ATOM      4  C   UNL     1      -2.233  -0.559   0.713  0.00  0.00    +0.157 C 
ATOM      5  C   UNL     1      -0.699  -0.582   0.312  0.00  0.00    +0.181 C 
ATOM      6  C   UNL     1      -0.158  -2.050   0.093  0.00  0.00    +0.179 C 
ENDROOT
BRANCH   5   7
ATOM      7  O   UNL     1      -0.516   0.143  -0.883  0.00  0.00    -0.378 OA
ATOM      8  H   UNL     1      -1.005  -0.289  -1.601  0.00  0.00    +0.000 HD
ENDBRANCH   5   7
BRANCH   1   9
ATOM      9  O   UNL     1      -0.361  -4.368   0.760  0.00  0.00    -0.453 OA
BRANCH   9  11
ATOM     10  C   UNL     1      -0.048  -6.793   1.270  0.00  0.00    +0.033 C 
ATOM     11  C   UNL     1      -0.651  -5.466   1.579  0.00  0.00    +0.305 C 
ATOM     12  O   UNL     1      -1.385  -5.337   2.597  0.00  0.00    -0.251 OA
ENDBRANCH   9  11
ENDBRANCH   1   9
BRANCH   6  13
ATOM     13  O   UNL     1       1.250  -2.161   0.323  0.00  0.00    -0.454 OA
BRANCH  13  14
ATOM     14  C   UNL     1       2.218  -1.867  -0.645  0.00  0.00    +0.304 C 
ATOM     15  O   UNL     1       1.888  -1.420  -1.777  0.00  0.00    -0.251 OA
ATOM     16  C   UNL     1       3.651  -2.157  -0.358  0.00  0.00    +0.033 C 
ENDBRANCH  13  14
ENDBRANCH   6  13
BRANCH   5  17
ATOM     17  C   UNL     1       0.099   0.138   1.440  0.00  0.00    +0.129 C 
BRANCH  17  18
ATOM     18  O   UNL     1       1.418   0.504   1.032  0.00  0.00    -0.458 OA
BRANCH  18  19
ATOM     19  C   UNL     1       1.717   1.681   0.330  0.00  0.00    +0.339 C 
ATOM     20  O   UNL     1       0.795   2.484   0.014  0.00  0.00    -0.245 OA
BRANCH  19  21
ATOM     21  C   UNL     1       3.116   1.983  -0.036  0.00  0.00    +0.059 A 
ATOM     22  C   UNL     1       4.170   1.223   0.503  0.00  0.00    -0.048 A 
ATOM     23  C   UNL     1       5.494   1.501   0.151  0.00  0.00    -0.061 A 
ATOM     24  C   UNL     1       5.781   2.542  -0.735  0.00  0.00    -0.062 A 
ATOM     25  C   UNL     1       4.743   3.308  -1.271  0.00  0.00    -0.061 A 
ATOM     26  C   UNL     1       3.416   3.033  -0.924  0.00  0.00    -0.048 A 
ENDBRANCH  19  21
ENDBRANCH  18  19
ENDBRANCH  17  18
ENDBRANCH   5  17
BRANCH   4  27
ATOM     27  O   UNL     1      -2.918   0.506   0.048  0.00  0.00    -0.451 OA
BRANCH  27  28
ATOM     28  C   UNL     1      -3.030   1.809   0.553  0.00  0.00    +0.340 C 
ATOM     29  O   UNL     1      -2.745   2.052   1.758  0.00  0.00    -0.245 OA
BRANCH  28  30
ATOM     30  C   UNL     1      -3.503   2.898  -0.330  0.00  0.00    +0.059 A 
ATOM     31  C   UNL     1      -3.802   2.637  -1.680  0.00  0.00    -0.048 A 
ATOM     32  C   UNL     1      -4.238   3.667  -2.520  0.00  0.00    -0.061 A 
ATOM     33  C   UNL     1      -4.379   4.965  -2.022  0.00  0.00    -0.062 A 
ATOM     34  C   UNL     1      -4.085   5.236  -0.683  0.00  0.00    -0.061 A 
ATOM     35  C   UNL     1      -3.649   4.210   0.161  0.00  0.00    -0.048 A 
ENDBRANCH  28  30
ENDBRANCH  27  28
ENDBRANCH   4  27
TORSDOF 12
