REMARK  Name = 
REMARK  10 active torsions:
REMARK  status: ('A' for Active; 'I' for Inactive)
REMARK    1  A    between atoms: C_1  and  C_2
REMARK    2  A    between atoms: C_2  and  O_4
REMARK    3  A    between atoms: O_4  and  C_5
REMARK    4  A    between atoms: C_6  and  O_7
REMARK    5  A    between atoms: O_7  and  C_8
REMARK    6  A    between atoms: C_8  and  C_10
REMARK    7  A    between atoms: C_15  and  C_16
REMARK    8  A    between atoms: C_16  and  O_17
REMARK    9  A    between atoms: O_17  and  C_18
REMARK   10  A    between atoms: C_18  and  C_20
REMARK                            x       y       z     vdW  Elec       q    Type
REMARK                         _______ _______ _______ _____ _____    ______ ____
ROOT
ATOM      1  C   UNL     1      -1.446   0.315   0.119  0.00  0.00    +0.177 C 
ATOM      2  C   UNL     1      -2.932  -0.061   0.336  0.00  0.00    +0.171 C 
ATOM      3  C   UNL     1      -3.916   0.830  -0.443  0.00  0.00    +0.128 C 
ATOM      4  O   UNL     1      -3.435   2.136  -0.671  0.00  0.00    -0.362 OA
ATOM      5  C   UNL     1      -3.520   1.287  -1.798  0.00  0.00    +0.118 C 
ATOM      6  C   UNL     1      -2.148   0.852  -2.341  0.00  0.00    +0.124 C 
ATOM      7  C   UNL     1      -1.108   0.384  -1.383  0.00  0.00    +0.172 C 
ATOM      8  O   UNL     1      -1.112   1.701  -1.895  0.00  0.00    -0.354 OA
ENDROOT
BRANCH   1   9
ATOM      9  O   UNL     1      -1.132   1.560   0.749  0.00  0.00    -0.455 OA
BRANCH   9  11
ATOM     10  C   UNL     1      -0.642   3.052   2.688  0.00  0.00    +0.033 C 
ATOM     11  C   UNL     1      -0.962   1.708   2.130  0.00  0.00    +0.304 C 
ATOM     12  O   UNL     1      -1.022   0.711   2.899  0.00  0.00    -0.251 OA
ENDBRANCH   9  11
ENDBRANCH   1   9
BRANCH   2  13
ATOM     13  O   UNL     1      -3.156  -1.414  -0.061  0.00  0.00    -0.455 OA
BRANCH  13  14
ATOM     14  C   UNL     1      -2.738  -2.521   0.687  0.00  0.00    +0.304 C 
ATOM     15  O   UNL     1      -2.214  -2.372   1.824  0.00  0.00    -0.251 OA
ATOM     16  C   UNL     1      -2.967  -3.894   0.154  0.00  0.00    +0.033 C 
ENDBRANCH  13  14
ENDBRANCH   2  13
BRANCH   7  17
ATOM     17  C   UNL     1       0.061  -0.436  -1.929  0.00  0.00    +0.128 C 
BRANCH  17  18
ATOM     18  O   UNL     1       1.237  -0.117  -1.193  0.00  0.00    -0.458 OA
BRANCH  18  19
ATOM     19  C   UNL     1       2.471  -0.734  -1.423  0.00  0.00    +0.339 C 
ATOM     20  O   UNL     1       2.587  -1.594  -2.339  0.00  0.00    -0.245 OA
BRANCH  19  21
ATOM     21  C   UNL     1       3.635  -0.374  -0.585  0.00  0.00    +0.059 A 
ATOM     22  C   UNL     1       4.894  -0.962  -0.812  0.00  0.00    -0.048 A 
ATOM     23  C   UNL     1       5.989  -0.617  -0.014  0.00  0.00    -0.061 A 
ATOM     24  C   UNL     1       5.840   0.314   1.017  0.00  0.00    -0.062 A 
ATOM     25  C   UNL     1       4.596   0.902   1.252  0.00  0.00    -0.061 A 
ATOM     26  C   UNL     1       3.497   0.562   0.457  0.00  0.00    -0.048 A 
ENDBRANCH  19  21
ENDBRANCH  18  19
ENDBRANCH  17  18
ENDBRANCH   7  17
TORSDOF 8
