REMARK  Name = 
REMARK  4 active torsions:
REMARK  status: ('A' for Active; 'I' for Inactive)
REMARK    1  A    between atoms: O_1  and  C_2
REMARK    2  A    between atoms: C_4  and  O_5
REMARK    3  A    between atoms: C_6  and  O_10
REMARK    4  A    between atoms: C_8  and  O_9
REMARK                            x       y       z     vdW  Elec       q    Type
REMARK                         _______ _______ _______ _____ _____    ______ ____
ROOT
ATOM      1  C   UNL     1       1.323  -0.463  -0.546  0.00  0.00    +0.084 C 
ATOM      2  C   UNL     1       0.451  -1.349   0.363  0.00  0.00    +0.004 C 
ATOM      3  C   UNL     1      -1.062  -1.132   0.103  0.00  0.00    +0.084 C 
ATOM      4  C   UNL     1      -1.381   0.275  -0.470  0.00  0.00    +0.084 C 
ATOM      5  C   UNL     1      -0.418   1.332   0.095  0.00  0.00    +0.004 C 
ATOM      6  C   UNL     1       1.054   1.048  -0.301  0.00  0.00    +0.084 C 
ENDROOT
BRANCH   1   7
ATOM      7  O   UNL     1       2.689  -0.772  -0.408  0.00  0.00    -0.389 OA
ATOM      8  H   UNL     1       2.824  -1.720  -0.566  0.00  0.00    +0.000 HD
ENDBRANCH   1   7
BRANCH   3   9
ATOM      9  O   UNL     1      -1.774  -1.335   1.298  0.00  0.00    -0.389 OA
ATOM     10  H   UNL     1      -1.490  -0.684   1.959  0.00  0.00    +0.000 HD
ENDBRANCH   3   9
BRANCH   6  11
ATOM     11  O   UNL     1       1.908   1.539   0.701  0.00  0.00    -0.389 OA
ATOM     12  H   UNL     1       1.726   1.079   1.535  0.00  0.00    +0.000 HD
ENDBRANCH   6  11
BRANCH   4  13
ATOM     13  O   UNL     1      -2.710   0.624  -0.177  0.00  0.00    -0.389 OA
ATOM     14  H   UNL     1      -2.832   0.655   0.785  0.00  0.00    +0.000 HD
ENDBRANCH   4  13
TORSDOF 4
