REMARK  Name = 
REMARK  5 active torsions:
REMARK  status: ('A' for Active; 'I' for Inactive)
REMARK    1  A    between atoms: C_1  and  C_2
REMARK    2  A    between atoms: C_5  and  C_16
REMARK    3  A    between atoms: C_10  and  O_15
REMARK    4  A    between atoms: C_11  and  C_14
REMARK    5  A    between atoms: C_12  and  O_13
REMARK                            x       y       z     vdW  Elec       q    Type
REMARK                         _______ _______ _______ _____ _____    ______ ____
ROOT
ATOM      1  C   UNL     1      -1.327   2.115  -1.739  0.00  0.00    -0.033 C 
ATOM      2  C   UNL     1      -1.774   0.847  -1.056  0.00  0.00    +0.034 A 
ATOM      3  C   UNL     1      -0.888   0.159  -0.212  0.00  0.00    +0.142 A 
ATOM      4  O   UNL     1       0.418   0.648  -0.037  0.00  0.00    -0.483 OA
ATOM      5  C   UNL     1       1.302   0.173   0.982  0.00  0.00    +0.132 C 
ATOM      6  C   UNL     1       1.146  -1.341   1.166  0.00  0.00    +0.052 C 
ATOM      7  C   UNL     1      -0.306  -1.655   1.352  0.00  0.00    +0.174 C 
ATOM      8  O   UNL     1      -0.663  -2.387   2.312  0.00  0.00    -0.292 OA
ATOM      9  C   UNL     1      -1.296  -1.016   0.449  0.00  0.00    +0.101 A 
ATOM     10  C   UNL     1      -2.604  -1.518   0.241  0.00  0.00    +0.137 A 
ATOM     11  C   UNL     1      -3.522  -0.781  -0.540  0.00  0.00    +0.033 A 
ATOM     12  C   UNL     1      -3.102   0.404  -1.187  0.00  0.00    +0.130 A 
ATOM     13  C   UNL     1      -4.939  -1.273  -0.716  0.00  0.00    -0.033 C 
ENDROOT
BRANCH   5  14
ATOM     14  C   UNL     1       2.727   0.526   0.633  0.00  0.00    -0.007 A 
ATOM     15  C   UNL     1       3.207   0.350  -0.677  0.00  0.00    -0.055 A 
ATOM     16  C   UNL     1       4.536   0.654  -0.989  0.00  0.00    -0.061 A 
ATOM     17  C   UNL     1       5.399   1.121   0.006  0.00  0.00    -0.062 A 
ATOM     18  C   UNL     1       4.936   1.283   1.314  0.00  0.00    -0.061 A 
ATOM     19  C   UNL     1       3.607   0.982   1.630  0.00  0.00    -0.055 A 
ENDBRANCH   5  14
BRANCH  12  20
ATOM     20  O   UNL     1      -3.984   1.154  -1.973  0.00  0.00    -0.506 OA
ATOM     21  H   UNL     1      -4.874   0.876  -2.074  0.00  0.00    +0.000 HD
ENDBRANCH  12  20
BRANCH  10  22
ATOM     22  O   UNL     1      -3.008  -2.752   0.762  0.00  0.00    -0.506 OA
ATOM     23  H   UNL     1      -2.415  -3.257   1.283  0.00  0.00    +0.000 HD
ENDBRANCH  10  22
TORSDOF 3
