REMARK  Name = 
REMARK  29 active torsions:
REMARK  status: ('A' for Active; 'I' for Inactive)
REMARK    1  A    between atoms: C_1  and  C_2
REMARK    2  A    between atoms: C_2  and  C_3
REMARK    3  A    between atoms: C_3  and  C_4
REMARK    4  A    between atoms: C_4  and  C_5
REMARK    5  A    between atoms: C_5  and  C_6
REMARK    6  A    between atoms: C_6  and  C_7
REMARK    7  A    between atoms: C_7  and  C_8
REMARK    8  A    between atoms: C_8  and  C_9
REMARK    9  A    between atoms: C_9  and  C_10
REMARK   10  A    between atoms: C_10  and  C_11
REMARK   11  A    between atoms: C_11  and  C_12
REMARK   12  A    between atoms: C_11  and  O_43
REMARK   13  A    between atoms: C_15  and  C_17
REMARK   14  A    between atoms: C_20  and  C_22
REMARK   15  A    between atoms: C_22  and  C_23
REMARK   16  A    between atoms: C_22  and  O_42
REMARK   17  A    between atoms: C_23  and  C_24
REMARK   18  A    between atoms: C_24  and  C_25
REMARK   19  A    between atoms: C_25  and  C_26
REMARK   20  A    between atoms: C_26  and  C_27
REMARK   21  A    between atoms: C_27  and  C_28
REMARK   22  A    between atoms: C_28  and  C_29
REMARK   23  A    between atoms: C_29  and  C_30
REMARK   24  A    between atoms: C_30  and  C_31
REMARK   25  A    between atoms: C_31  and  C_32
REMARK   26  A    between atoms: C_32  and  C_33
REMARK   27  A    between atoms: C_33  and  C_34
REMARK   28  A    between atoms: C_34  and  C_35
REMARK   29  A    between atoms: C_37  and  C_41
REMARK                            x       y       z     vdW  Elec       q    Type
REMARK                         _______ _______ _______ _____ _____    ______ ____
ROOT
ATOM      1  C   UNL     1       1.511  -1.052   1.645  0.00  0.00    +0.085 C 
ATOM      2  C   UNL     1       0.930   0.276   1.176  0.00  0.00    -0.022 C 
ATOM      3  C   UNL     1      -0.304  -0.123   0.411  0.00  0.00    -0.022 C 
ATOM      4  C   UNL     1      -0.283  -1.657   0.405  0.00  0.00    +0.085 C 
ATOM      5  O   UNL     1       1.000  -2.071   0.822  0.00  0.00    -0.368 OA
ENDROOT
BRANCH   1   9
ATOM      6  C   UNL     1       4.844   0.301   1.699  0.00  0.00    +0.085 C 
ATOM      7  C   UNL     1       5.046  -0.661   0.522  0.00  0.00    -0.022 C 
ATOM      8  C   UNL     1       3.679  -1.218   0.283  0.00  0.00    -0.022 C 
ATOM      9  C   UNL     1       3.052  -1.098   1.662  0.00  0.00    +0.085 C 
ATOM     10  O   UNL     1       3.584   0.045   2.290  0.00  0.00    -0.368 OA
BRANCH   6  11
ATOM     11  C   UNL     1       5.944   0.204   2.782  0.00  0.00    +0.081 C 
BRANCH  11  12
ATOM     12  O   UNL     1       5.868  -1.065   3.383  0.00  0.00    -0.389 OA
ATOM     13  H   UNL     1       6.038  -1.749   2.717  0.00  0.00    +0.000 HD
ENDBRANCH  11  12
BRANCH  11  14
ATOM     14  C   UNL     1       7.383   0.429   2.242  0.00  0.00    -0.024 C 
BRANCH  14  15
ATOM     15  C   UNL     1       7.866   1.896   2.263  0.00  0.00    -0.051 C 
BRANCH  15  16
ATOM     16  C   UNL     1       7.467   2.750   1.044  0.00  0.00    -0.053 C 
BRANCH  16  17
ATOM     17  C   UNL     1       7.995   2.257  -0.319  0.00  0.00    -0.053 C 
BRANCH  17  18
ATOM     18  C   UNL     1       9.534   2.216  -0.424  0.00  0.00    -0.053 C 
BRANCH  18  19
ATOM     19  C   UNL     1      10.093   0.794  -0.263  0.00  0.00    -0.053 C 
BRANCH  19  20
ATOM     20  C   UNL     1      11.623   0.778  -0.380  0.00  0.00    -0.053 C 
BRANCH  20  21
ATOM     21  C   UNL     1      12.164  -0.654  -0.247  0.00  0.00    -0.053 C 
BRANCH  21  23
ATOM     22  C   UNL     1      14.406  -0.311  -1.425  0.00  0.00    -0.065 C 
ATOM     23  C   UNL     1      13.694  -0.699  -0.127  0.00  0.00    -0.056 C 
ENDBRANCH  21  23
ENDBRANCH  20  21
ENDBRANCH  19  20
ENDBRANCH  18  19
ENDBRANCH  17  18
ENDBRANCH  16  17
ENDBRANCH  15  16
ENDBRANCH  14  15
ENDBRANCH  11  14
ENDBRANCH   6  11
ENDBRANCH   1   9
BRANCH   4  24
ATOM     24  C   UNL     1      -1.371  -2.305   1.315  0.00  0.00    +0.081 C 
BRANCH  24  25
ATOM     25  O   UNL     1      -0.881  -3.536   1.792  0.00  0.00    -0.389 OA
ATOM     26  H   UNL     1      -0.713  -4.129   1.043  0.00  0.00    +0.000 HD
ENDBRANCH  24  25
BRANCH  24  27
ATOM     27  C   UNL     1      -2.705  -2.574   0.574  0.00  0.00    -0.024 C 
BRANCH  27  28
ATOM     28  C   UNL     1      -3.572  -1.324   0.322  0.00  0.00    -0.051 C 
BRANCH  28  29
ATOM     29  C   UNL     1      -3.460  -0.747  -1.099  0.00  0.00    -0.053 C 
BRANCH  29  30
ATOM     30  C   UNL     1      -4.073  -1.666  -2.177  0.00  0.00    -0.053 C 
BRANCH  30  31
ATOM     31  C   UNL     1      -4.363  -0.929  -3.498  0.00  0.00    -0.053 C 
BRANCH  31  32
ATOM     32  C   UNL     1      -5.522   0.087  -3.444  0.00  0.00    -0.053 C 
BRANCH  32  33
ATOM     33  C   UNL     1      -6.888  -0.540  -3.096  0.00  0.00    -0.053 C 
BRANCH  33  34
ATOM     34  C   UNL     1      -7.264  -0.336  -1.618  0.00  0.00    -0.053 C 
BRANCH  34  35
ATOM     35  C   UNL     1      -8.581  -1.037  -1.246  0.00  0.00    -0.053 C 
BRANCH  35  36
ATOM     36  C   UNL     1      -9.812  -0.187  -1.597  0.00  0.00    -0.053 C 
BRANCH  36  37
ATOM     37  C   UNL     1     -11.107  -0.891  -1.163  0.00  0.00    -0.049 C 
BRANCH  37  38
ATOM     38  C   UNL     1     -12.345  -0.000  -1.340  0.00  0.00    -0.021 C 
BRANCH  38  39
ATOM     39  C   UNL     1     -12.320   1.201  -0.434  0.00  0.00    +0.036 C 
ATOM     40  C   UNL     1     -12.280   1.180   0.894  0.00  0.00    -0.034 C 
ATOM     41  C   UNL     1     -12.193   2.580   1.444  0.00  0.00    +0.120 C 
ATOM     42  O   UNL     1     -12.232   3.401   0.280  0.00  0.00    -0.454 OA
ATOM     43  C   UNL     1     -12.295   2.589  -0.836  0.00  0.00    +0.336 C 
ATOM     44  O   UNL     1     -12.344   3.017  -2.019  0.00  0.00    -0.245 OA
ATOM     45  C   UNL     1     -13.373   2.892   2.362  0.00  0.00    -0.024 C 
ENDBRANCH  38  39
ENDBRANCH  37  38
ENDBRANCH  36  37
ENDBRANCH  35  36
ENDBRANCH  34  35
ENDBRANCH  33  34
ENDBRANCH  32  33
ENDBRANCH  31  32
ENDBRANCH  30  31
ENDBRANCH  29  30
ENDBRANCH  28  29
ENDBRANCH  27  28
ENDBRANCH  24  27
ENDBRANCH   4  24
TORSDOF 27
