REMARK  Name = 
REMARK  8 active torsions:
REMARK  status: ('A' for Active; 'I' for Inactive)
REMARK    1  A    between atoms: C_1  and  O_2
REMARK    2  A    between atoms: O_2  and  C_3
REMARK    3  A    between atoms: C_4  and  C_5
REMARK    4  A    between atoms: C_7  and  C_13
REMARK    5  A    between atoms: C_10  and  C_11
REMARK    6  A    between atoms: C_10  and  C_12
REMARK    7  A    between atoms: C_13  and  C_15
REMARK    8  A    between atoms: C_16  and  C_17
REMARK                            x       y       z     vdW  Elec       q    Type
REMARK                         _______ _______ _______ _____ _____    ______ ____
ROOT
ATOM      1  C   UNL     1      -3.172  -0.255   0.104  0.00  0.00    +0.117 C 
ATOM      2  C   UNL     1      -2.202   0.160   0.954  0.00  0.00    +0.030 C 
ATOM      3  C   UNL     1      -2.471   0.268   2.436  0.00  0.00    -0.033 C 
ATOM      4  C   UNL     1      -0.841   0.503   0.453  0.00  0.00    +0.137 C 
ATOM      5  C   UNL     1      -0.450   0.144  -0.782  0.00  0.00    +0.107 C 
ATOM      6  C   UNL     1      -1.416  -0.504  -1.692  0.00  0.00    +0.183 C 
ATOM      7  O   UNL     1      -1.007  -0.992  -2.783  0.00  0.00    -0.291 OA
ATOM      8  C   UNL     1      -2.900  -0.521  -1.374  0.00  0.00    +0.086 C 
ATOM      9  C   UNL     1      -3.482  -1.902  -1.745  0.00  0.00    -0.046 C 
ATOM     10  C   UNL     1      -3.586   0.569  -2.216  0.00  0.00    -0.046 C 
ATOM     11  O   UNL     1       0.041   1.229   1.261  0.00  0.00    -0.506 OA
ENDROOT
BRANCH   1  13
ATOM     12  C   UNL     1      -5.357   0.600   0.904  0.00  0.00    +0.078 C 
ATOM     13  O   UNL     1      -4.478  -0.470   0.568  0.00  0.00    -0.498 OA
ENDBRANCH   1  13
BRANCH   5  14
ATOM     14  C   UNL     1       0.924   0.422  -1.269  0.00  0.00    +0.193 C 
ATOM     15  O   UNL     1       1.078   0.895  -2.429  0.00  0.00    -0.287 OA
BRANCH  14  16
ATOM     16  C   UNL     1       2.104   0.112  -0.433  0.00  0.00    -0.014 C 
ATOM     17  C   UNL     1       3.351   0.427  -0.811  0.00  0.00    -0.051 C 
BRANCH  17  18
ATOM     18  C   UNL     1       4.557   0.120  -0.004  0.00  0.00    -0.025 A 
ATOM     19  C   UNL     1       5.805   0.074  -0.649  0.00  0.00    -0.055 A 
ATOM     20  C   UNL     1       6.970  -0.201   0.074  0.00  0.00    -0.061 A 
ATOM     21  C   UNL     1       6.903  -0.423   1.451  0.00  0.00    -0.062 A 
ATOM     22  C   UNL     1       5.672  -0.363   2.108  0.00  0.00    -0.061 A 
ATOM     23  C   UNL     1       4.504  -0.089   1.390  0.00  0.00    -0.055 A 
ENDBRANCH  17  18
ENDBRANCH  14  16
ENDBRANCH   5  14
TORSDOF 4
