REMARK  Name = 
REMARK  9 active torsions:
REMARK  status: ('A' for Active; 'I' for Inactive)
REMARK    1  A    between atoms: O_1  and  C_2
REMARK    2  A    between atoms: C_7  and  C_8
REMARK    3  A    between atoms: C_8  and  C_9
REMARK    4  A    between atoms: C_10  and  O_11
REMARK    5  A    between atoms: C_12  and  C_13
REMARK    6  A    between atoms: C_13  and  C_14
REMARK    7  A    between atoms: C_19  and  O_20
REMARK    8  A    between atoms: C_21  and  O_35
REMARK    9  A    between atoms: C_25  and  C_29
REMARK                            x       y       z     vdW  Elec       q    Type
REMARK                         _______ _______ _______ _____ _____    ______ ____
ROOT
ATOM      1  C   UNL     1       0.610   0.568  -0.157  0.00  0.00    +0.041 A 
ATOM      2  C   UNL     1       1.973   0.489   0.227  0.00  0.00    +0.131 A 
ATOM      3  C   UNL     1       2.455  -0.661   0.886  0.00  0.00    +0.041 A 
ATOM      4  C   UNL     1       1.576  -1.718   1.207  0.00  0.00    +0.138 A 
ATOM      5  C   UNL     1       0.193  -1.592   0.929  0.00  0.00    +0.101 A 
ATOM      6  C   UNL     1      -0.259  -0.484   0.188  0.00  0.00    +0.142 A 
ATOM      7  O   UNL     1      -1.602  -0.417  -0.206  0.00  0.00    -0.483 OA
ATOM      8  C   UNL     1      -2.470  -1.546  -0.158  0.00  0.00    +0.132 C 
ATOM      9  C   UNL     1      -2.303  -2.248   1.197  0.00  0.00    +0.052 C 
ATOM     10  C   UNL     1      -0.849  -2.524   1.459  0.00  0.00    +0.174 C 
ATOM     11  O   UNL     1      -0.557  -3.465   2.242  0.00  0.00    -0.292 OA
ENDROOT
BRANCH   8  12
ATOM     12  C   UNL     1      -3.881  -1.096  -0.493  0.00  0.00    -0.007 A 
ATOM     13  C   UNL     1      -4.111  -0.542  -1.766  0.00  0.00    -0.055 A 
ATOM     14  C   UNL     1      -5.381  -0.081  -2.125  0.00  0.00    -0.061 A 
ATOM     15  C   UNL     1      -6.440  -0.171  -1.221  0.00  0.00    -0.062 A 
ATOM     16  C   UNL     1      -6.231  -0.724   0.044  0.00  0.00    -0.061 A 
ATOM     17  C   UNL     1      -4.963  -1.185   0.411  0.00  0.00    -0.055 A 
ENDBRANCH   8  12
BRANCH   2  18
ATOM     18  O   UNL     1       2.883   1.520  -0.031  0.00  0.00    -0.506 OA
ATOM     19  H   UNL     1       2.598   2.299  -0.467  0.00  0.00    +0.000 HD
ENDBRANCH   2  18
BRANCH   4  20
ATOM     20  O   UNL     1       2.113  -2.876   1.777  0.00  0.00    -0.506 OA
ATOM     21  H   UNL     1       3.032  -2.931   1.949  0.00  0.00    +0.000 HD
ENDBRANCH   4  20
BRANCH   1  22
ATOM     22  C   UNL     1       0.039   1.737  -0.945  0.00  0.00    +0.008 C 
BRANCH  22  28
ATOM     23  C   UNL     1      -0.492   3.289   1.003  0.00  0.00    +0.120 A 
ATOM     24  C   UNL     1      -1.419   4.011   1.770  0.00  0.00    -0.020 A 
ATOM     25  C   UNL     1      -2.774   4.000   1.433  0.00  0.00    -0.058 A 
ATOM     26  C   UNL     1      -3.213   3.275   0.325  0.00  0.00    -0.061 A 
ATOM     27  C   UNL     1      -2.298   2.556  -0.448  0.00  0.00    -0.055 A 
ATOM     28  C   UNL     1      -0.931   2.547  -0.114  0.00  0.00    -0.001 A 
BRANCH  23  29
ATOM     29  O   UNL     1       0.858   3.309   1.348  0.00  0.00    -0.506 OA
ATOM     30  H   UNL     1       1.145   3.803   2.091  0.00  0.00    +0.000 HD
ENDBRANCH  23  29
ENDBRANCH  22  28
ENDBRANCH   1  22
BRANCH   3  31
ATOM     31  C   UNL     1       3.935  -0.772   1.209  0.00  0.00    +0.008 C 
BRANCH  31  32
ATOM     32  C   UNL     1       4.740  -1.099  -0.033  0.00  0.00    -0.001 A 
ATOM     33  C   UNL     1       4.598  -2.388  -0.586  0.00  0.00    -0.055 A 
ATOM     34  C   UNL     1       5.285  -2.752  -1.744  0.00  0.00    -0.061 A 
ATOM     35  C   UNL     1       6.128  -1.838  -2.372  0.00  0.00    -0.058 A 
ATOM     36  C   UNL     1       6.291  -0.559  -1.838  0.00  0.00    -0.020 A 
ATOM     37  C   UNL     1       5.612  -0.175  -0.674  0.00  0.00    +0.120 A 
BRANCH  37  38
ATOM     38  O   UNL     1       5.845   1.119  -0.201  0.00  0.00    -0.506 OA
ATOM     39  H   UNL     1       6.430   1.688  -0.662  0.00  0.00    +0.000 HD
ENDBRANCH  37  38
ENDBRANCH  31  32
ENDBRANCH   3  31
TORSDOF 9
