REMARK  Name = 
REMARK  30 active torsions:
REMARK  status: ('A' for Active; 'I' for Inactive)
REMARK    1  A    between atoms: C_1  and  C_2
REMARK    2  A    between atoms: C_2  and  C_3
REMARK    3  A    between atoms: C_3  and  C_4
REMARK    4  A    between atoms: C_4  and  C_5
REMARK    5  A    between atoms: C_5  and  C_6
REMARK    6  A    between atoms: C_6  and  C_7
REMARK    7  A    between atoms: C_7  and  C_8
REMARK    8  A    between atoms: C_8  and  C_9
REMARK    9  A    between atoms: C_9  and  C_10
REMARK   10  A    between atoms: C_10  and  C_11
REMARK   11  A    between atoms: C_12  and  C_13
REMARK   12  A    between atoms: C_13  and  C_14
REMARK   13  A    between atoms: C_14  and  C_15
REMARK   14  A    between atoms: C_17  and  C_18
REMARK   15  A    between atoms: C_18  and  C_19
REMARK   16  A    between atoms: C_19  and  C_20
REMARK   17  A    between atoms: C_22  and  C_23
REMARK   18  A    between atoms: C_23  and  C_24
REMARK   19  A    between atoms: C_24  and  C_25
REMARK   20  A    between atoms: C_25  and  C_26
REMARK   21  A    between atoms: C_26  and  C_27
REMARK   22  A    between atoms: C_27  and  C_28
REMARK   23  A    between atoms: C_28  and  C_29
REMARK   24  A    between atoms: C_29  and  C_30
REMARK   25  A    between atoms: C_30  and  C_31
REMARK   26  A    between atoms: C_31  and  C_32
REMARK   27  A    between atoms: C_32  and  C_33
REMARK   28  A    between atoms: C_33  and  C_34
REMARK   29  A    between atoms: C_34  and  C_35
REMARK   30  A    between atoms: C_37  and  C_41
REMARK                            x       y       z     vdW  Elec       q    Type
REMARK                         _______ _______ _______ _____ _____    ______ ____
ROOT
ATOM      1  C   UNL     1      -1.768  -0.605  -1.937  0.00  0.00    +0.085 C 
ATOM      2  O   UNL     1      -1.597   0.666  -1.348  0.00  0.00    -0.368 OA
ATOM      3  C   UNL     1      -0.895  -0.402  -0.751  0.00  0.00    +0.085 C 
ENDROOT
BRANCH   1   4
ATOM      4  C   UNL     1      -3.171  -1.153  -1.671  0.00  0.00    -0.022 C 
BRANCH   4   5
ATOM      5  C   UNL     1      -3.210  -2.664  -1.940  0.00  0.00    -0.022 C 
BRANCH   5   8
ATOM      6  C   UNL     1      -4.946  -3.868  -0.365  0.00  0.00    +0.086 C 
ATOM      7  O   UNL     1      -5.375  -2.585  -0.756  0.00  0.00    -0.368 OA
ATOM      8  C   UNL     1      -4.598  -3.293  -1.700  0.00  0.00    +0.085 C 
BRANCH   6   9
ATOM      9  C   UNL     1      -3.964  -3.788   0.820  0.00  0.00    -0.021 C 
BRANCH   9  10
ATOM     10  C   UNL     1      -4.706  -3.590   2.147  0.00  0.00    -0.032 C 
BRANCH  10  12
ATOM     11  C   UNL     1      -6.538  -1.974   2.626  0.00  0.00    -0.088 C 
ATOM     12  C   UNL     1      -5.277  -2.198   2.237  0.00  0.00    -0.088 C 
BRANCH  11  13
ATOM     13  C   UNL     1      -7.111  -0.581   2.658  0.00  0.00    -0.035 C 
BRANCH  13  14
ATOM     14  C   UNL     1      -7.323  -0.009   1.245  0.00  0.00    -0.050 C 
BRANCH  14  15
ATOM     15  C   UNL     1      -8.398  -0.789   0.465  0.00  0.00    -0.053 C 
BRANCH  15  16
ATOM     16  C   UNL     1      -8.616  -0.256  -0.962  0.00  0.00    -0.053 C 
BRANCH  16  17
ATOM     17  C   UNL     1      -9.105   1.204  -1.054  0.00  0.00    -0.053 C 
BRANCH  17  18
ATOM     18  C   UNL     1     -10.349   1.533  -0.204  0.00  0.00    -0.053 C 
BRANCH  18  19
ATOM     19  C   UNL     1     -11.591   0.718  -0.614  0.00  0.00    -0.053 C 
BRANCH  19  20
ATOM     20  C   UNL     1     -12.833   1.073   0.233  0.00  0.00    -0.053 C 
BRANCH  20  22
ATOM     21  C   UNL     1     -13.220   3.447  -0.637  0.00  0.00    -0.065 C 
ATOM     22  C   UNL     1     -13.802   2.046  -0.458  0.00  0.00    -0.056 C 
ENDBRANCH  20  22
ENDBRANCH  19  20
ENDBRANCH  18  19
ENDBRANCH  17  18
ENDBRANCH  16  17
ENDBRANCH  15  16
ENDBRANCH  14  15
ENDBRANCH  13  14
ENDBRANCH  11  13
ENDBRANCH  10  12
ENDBRANCH   9  10
ENDBRANCH   6   9
ENDBRANCH   5   8
ENDBRANCH   4   5
ENDBRANCH   1   4
BRANCH   3  23
ATOM     23  C   UNL     1       0.610  -0.323  -1.021  0.00  0.00    -0.024 C 
BRANCH  23  24
ATOM     24  C   UNL     1       1.293   0.564   0.026  0.00  0.00    -0.051 C 
BRANCH  24  25
ATOM     25  C   UNL     1       2.808   0.697  -0.203  0.00  0.00    -0.053 C 
BRANCH  25  26
ATOM     26  C   UNL     1       3.578  -0.573   0.201  0.00  0.00    -0.053 C 
BRANCH  26  27
ATOM     27  C   UNL     1       5.094  -0.438  -0.021  0.00  0.00    -0.053 C 
BRANCH  27  28
ATOM     28  C   UNL     1       5.768   0.464   1.029  0.00  0.00    -0.053 C 
BRANCH  28  29
ATOM     29  C   UNL     1       7.303   0.363   0.999  0.00  0.00    -0.053 C 
BRANCH  29  30
ATOM     30  C   UNL     1       7.915   1.060  -0.229  0.00  0.00    -0.053 C 
BRANCH  30  31
ATOM     31  C   UNL     1       9.441   0.892  -0.304  0.00  0.00    -0.053 C 
BRANCH  31  32
ATOM     32  C   UNL     1      10.182   1.672   0.795  0.00  0.00    -0.053 C 
BRANCH  32  33
ATOM     33  C   UNL     1      11.697   1.743   0.544  0.00  0.00    -0.049 C 
BRANCH  33  34
ATOM     34  C   UNL     1      12.389   0.386   0.732  0.00  0.00    -0.021 C 
BRANCH  34  35
ATOM     35  C   UNL     1      13.871   0.527   0.558  0.00  0.00    +0.036 C 
ATOM     36  C   UNL     1      14.529   0.474  -0.594  0.00  0.00    -0.034 C 
ATOM     37  C   UNL     1      16.000   0.728  -0.374  0.00  0.00    +0.120 C 
ATOM     38  O   UNL     1      16.094   0.967   1.028  0.00  0.00    -0.454 OA
ATOM     39  C   UNL     1      14.835   0.852   1.584  0.00  0.00    +0.336 C 
ATOM     40  O   UNL     1      14.586   1.011   2.808  0.00  0.00    -0.245 OA
ATOM     41  C   UNL     1      16.477   1.951  -1.152  0.00  0.00    -0.024 C 
ENDBRANCH  34  35
ENDBRANCH  33  34
ENDBRANCH  32  33
ENDBRANCH  31  32
ENDBRANCH  30  31
ENDBRANCH  29  30
ENDBRANCH  28  29
ENDBRANCH  27  28
ENDBRANCH  26  27
ENDBRANCH  25  26
ENDBRANCH  24  25
ENDBRANCH  23  24
ENDBRANCH   3  23
TORSDOF 28
