REMARK  Name = 
REMARK  30 active torsions:
REMARK  status: ('A' for Active; 'I' for Inactive)
REMARK    1  A    between atoms: C_1  and  C_2
REMARK    2  A    between atoms: C_2  and  C_3
REMARK    3  A    between atoms: C_3  and  C_4
REMARK    4  A    between atoms: C_4  and  C_5
REMARK    5  A    between atoms: C_5  and  C_6
REMARK    6  A    between atoms: C_6  and  C_7
REMARK    7  A    between atoms: C_7  and  C_8
REMARK    8  A    between atoms: C_8  and  C_9
REMARK    9  A    between atoms: C_9  and  C_10
REMARK   10  A    between atoms: C_10  and  C_11
REMARK   11  A    between atoms: C_11  and  C_12
REMARK   12  A    between atoms: C_12  and  C_13
REMARK   13  A    between atoms: C_15  and  C_16
REMARK   14  A    between atoms: C_16  and  C_17
REMARK   15  A    between atoms: C_17  and  C_18
REMARK   16  A    between atoms: C_20  and  C_21
REMARK   17  A    between atoms: C_21  and  C_22
REMARK   18  A    between atoms: C_22  and  C_23
REMARK   19  A    between atoms: C_23  and  C_24
REMARK   20  A    between atoms: C_24  and  C_25
REMARK   21  A    between atoms: C_25  and  C_26
REMARK   22  A    between atoms: C_26  and  C_27
REMARK   23  A    between atoms: C_27  and  C_28
REMARK   24  A    between atoms: C_28  and  C_29
REMARK   25  A    between atoms: C_29  and  C_30
REMARK   26  A    between atoms: C_30  and  C_31
REMARK   27  A    between atoms: C_31  and  C_32
REMARK   28  A    between atoms: C_32  and  C_33
REMARK   29  A    between atoms: C_33  and  C_34
REMARK   30  A    between atoms: C_36  and  C_40
REMARK                            x       y       z     vdW  Elec       q    Type
REMARK                         _______ _______ _______ _____ _____    ______ ____
ROOT
ATOM      1  C   UNL     1      -1.899  -3.145   0.565  0.00  0.00    +0.085 C 
ATOM      2  O   UNL     1      -1.389  -4.307   1.181  0.00  0.00    -0.368 OA
ATOM      3  C   UNL     1      -0.626  -3.763   0.126  0.00  0.00    +0.085 C 
ENDROOT
BRANCH   3   4
ATOM      4  C   UNL     1       0.662  -3.112   0.635  0.00  0.00    -0.024 C 
BRANCH   4   5
ATOM      5  C   UNL     1       1.123  -2.027  -0.345  0.00  0.00    -0.051 C 
BRANCH   5   6
ATOM      6  C   UNL     1       2.399  -1.307   0.119  0.00  0.00    -0.053 C 
BRANCH   6   7
ATOM      7  C   UNL     1       3.644  -2.204   0.041  0.00  0.00    -0.053 C 
BRANCH   7   8
ATOM      8  C   UNL     1       4.923  -1.395   0.293  0.00  0.00    -0.053 C 
BRANCH   8   9
ATOM      9  C   UNL     1       6.164  -2.294   0.222  0.00  0.00    -0.053 C 
BRANCH   9  10
ATOM     10  C   UNL     1       7.450  -1.476   0.389  0.00  0.00    -0.053 C 
BRANCH  10  11
ATOM     11  C   UNL     1       8.688  -2.381   0.295  0.00  0.00    -0.053 C 
BRANCH  11  12
ATOM     12  C   UNL     1      10.002  -1.612   0.502  0.00  0.00    -0.053 C 
BRANCH  12  13
ATOM     13  C   UNL     1      10.346  -0.702  -0.687  0.00  0.00    -0.053 C 
BRANCH  13  14
ATOM     14  C   UNL     1      11.742  -0.089  -0.527  0.00  0.00    -0.053 C 
BRANCH  14  15
ATOM     15  C   UNL     1      12.070   0.841  -1.704  0.00  0.00    -0.049 C 
BRANCH  15  16
ATOM     16  C   UNL     1      13.491   1.414  -1.617  0.00  0.00    -0.021 C 
BRANCH  16  17
ATOM     17  C   UNL     1      13.644   2.365  -0.466  0.00  0.00    +0.036 C 
ATOM     18  C   UNL     1      13.183   3.609  -0.417  0.00  0.00    -0.034 C 
ATOM     19  C   UNL     1      13.475   4.228   0.927  0.00  0.00    +0.120 C 
ATOM     20  O   UNL     1      14.153   3.192   1.634  0.00  0.00    -0.454 OA
ATOM     21  C   UNL     1      14.248   2.083   0.816  0.00  0.00    +0.336 C 
ATOM     22  O   UNL     1      14.782   0.996   1.159  0.00  0.00    -0.245 OA
ATOM     23  C   UNL     1      14.370   5.455   0.789  0.00  0.00    -0.024 C 
ENDBRANCH  16  17
ENDBRANCH  15  16
ENDBRANCH  14  15
ENDBRANCH  13  14
ENDBRANCH  12  13
ENDBRANCH  11  12
ENDBRANCH  10  11
ENDBRANCH   9  10
ENDBRANCH   8   9
ENDBRANCH   7   8
ENDBRANCH   6   7
ENDBRANCH   5   6
ENDBRANCH   4   5
ENDBRANCH   3   4
BRANCH   1  24
ATOM     24  C   UNL     1      -3.118  -3.444  -0.316  0.00  0.00    -0.022 C 
BRANCH  24  25
ATOM     25  C   UNL     1      -4.424  -3.374   0.482  0.00  0.00    -0.022 C 
BRANCH  25  28
ATOM     26  C   UNL     1      -5.391  -0.933   0.112  0.00  0.00    +0.085 C 
ATOM     27  O   UNL     1      -6.119  -1.723   1.024  0.00  0.00    -0.368 OA
ATOM     28  C   UNL     1      -4.727  -1.951   0.978  0.00  0.00    +0.085 C 
BRANCH  26  29
ATOM     29  C   UNL     1      -5.718  -1.260  -1.355  0.00  0.00    -0.024 C 
BRANCH  29  30
ATOM     30  C   UNL     1      -6.689  -0.228  -1.968  0.00  0.00    -0.051 C 
BRANCH  30  31
ATOM     31  C   UNL     1      -8.124  -0.758  -2.142  0.00  0.00    -0.053 C 
BRANCH  31  32
ATOM     32  C   UNL     1      -8.853  -1.095  -0.829  0.00  0.00    -0.053 C 
BRANCH  32  33
ATOM     33  C   UNL     1      -9.018   0.085   0.149  0.00  0.00    -0.053 C 
BRANCH  33  34
ATOM     34  C   UNL     1      -9.735   1.320  -0.426  0.00  0.00    -0.053 C 
BRANCH  34  35
ATOM     35  C   UNL     1     -11.167   1.016  -0.897  0.00  0.00    -0.053 C 
BRANCH  35  36
ATOM     36  C   UNL     1     -11.903   2.265  -1.416  0.00  0.00    -0.053 C 
BRANCH  36  37
ATOM     37  C   UNL     1     -12.255   3.308  -0.340  0.00  0.00    -0.053 C 
BRANCH  37  38
ATOM     38  C   UNL     1     -13.230   2.771   0.720  0.00  0.00    -0.053 C 
BRANCH  38  40
ATOM     39  C   UNL     1     -14.695   3.369   2.687  0.00  0.00    -0.065 C 
ATOM     40  C   UNL     1     -13.741   3.901   1.620  0.00  0.00    -0.056 C 
ENDBRANCH  38  40
ENDBRANCH  37  38
ENDBRANCH  36  37
ENDBRANCH  35  36
ENDBRANCH  34  35
ENDBRANCH  33  34
ENDBRANCH  32  33
ENDBRANCH  31  32
ENDBRANCH  30  31
ENDBRANCH  29  30
ENDBRANCH  26  29
ENDBRANCH  25  28
ENDBRANCH  24  25
ENDBRANCH   1  24
TORSDOF 28
