REMARK  Name = 
REMARK  30 active torsions:
REMARK  status: ('A' for Active; 'I' for Inactive)
REMARK    1  A    between atoms: C_1  and  C_2
REMARK    2  A    between atoms: C_2  and  C_3
REMARK    3  A    between atoms: C_3  and  C_4
REMARK    4  A    between atoms: C_4  and  C_5
REMARK    5  A    between atoms: C_5  and  C_6
REMARK    6  A    between atoms: C_6  and  C_7
REMARK    7  A    between atoms: C_7  and  C_8
REMARK    8  A    between atoms: C_8  and  C_9
REMARK    9  A    between atoms: C_9  and  C_10
REMARK   10  A    between atoms: C_10  and  C_11
REMARK   11  A    between atoms: C_11  and  C_12
REMARK   12  A    between atoms: C_12  and  C_13
REMARK   13  A    between atoms: C_13  and  C_14
REMARK   14  A    between atoms: C_14  and  C_15
REMARK   15  A    between atoms: C_17  and  C_18
REMARK   16  A    between atoms: C_18  and  C_19
REMARK   17  A    between atoms: C_19  and  C_20
REMARK   18  A    between atoms: C_22  and  C_23
REMARK   19  A    between atoms: C_23  and  C_24
REMARK   20  A    between atoms: C_24  and  C_25
REMARK   21  A    between atoms: C_25  and  C_26
REMARK   22  A    between atoms: C_26  and  C_27
REMARK   23  A    between atoms: C_27  and  C_28
REMARK   24  A    between atoms: C_28  and  C_29
REMARK   25  A    between atoms: C_29  and  C_30
REMARK   26  A    between atoms: C_30  and  C_31
REMARK   27  A    between atoms: C_31  and  C_32
REMARK   28  A    between atoms: C_32  and  C_33
REMARK   29  A    between atoms: C_33  and  C_34
REMARK   30  A    between atoms: C_36  and  C_40
REMARK                            x       y       z     vdW  Elec       q    Type
REMARK                         _______ _______ _______ _____ _____    ______ ____
ROOT
ATOM      1  C   UNL     1      -0.899   2.273  -0.145  0.00  0.00    +0.085 C 
ATOM      2  O   UNL     1      -1.210   1.036   0.456  0.00  0.00    -0.368 OA
ATOM      3  C   UNL     1      -1.810   2.180   1.022  0.00  0.00    +0.085 C 
ENDROOT
BRANCH   3   4
ATOM      4  C   UNL     1      -3.308   2.261   0.702  0.00  0.00    -0.024 C 
BRANCH   4   5
ATOM      5  C   UNL     1      -4.172   1.892   1.917  0.00  0.00    -0.051 C 
BRANCH   5   6
ATOM      6  C   UNL     1      -4.063   0.407   2.327  0.00  0.00    -0.053 C 
BRANCH   6   7
ATOM      7  C   UNL     1      -5.227  -0.467   1.828  0.00  0.00    -0.053 C 
BRANCH   7   8
ATOM      8  C   UNL     1      -5.252  -0.612   0.296  0.00  0.00    -0.053 C 
BRANCH   8   9
ATOM      9  C   UNL     1      -6.232  -1.707  -0.179  0.00  0.00    -0.053 C 
BRANCH   9  10
ATOM     10  C   UNL     1      -7.573  -1.159  -0.696  0.00  0.00    -0.053 C 
BRANCH  10  11
ATOM     11  C   UNL     1      -8.437  -0.543   0.412  0.00  0.00    -0.053 C 
BRANCH  11  12
ATOM     12  C   UNL     1      -9.842  -0.214  -0.107  0.00  0.00    -0.053 C 
BRANCH  12  13
ATOM     13  C   UNL     1     -10.717   0.375   1.009  0.00  0.00    -0.049 C 
BRANCH  13  14
ATOM     14  C   UNL     1     -12.095   0.814   0.497  0.00  0.00    -0.021 C 
BRANCH  14  15
ATOM     15  C   UNL     1     -12.942  -0.357   0.085  0.00  0.00    +0.036 C 
ATOM     16  C   UNL     1     -13.087  -0.815  -1.150  0.00  0.00    -0.034 C 
ATOM     17  C   UNL     1     -13.954  -2.050  -1.158  0.00  0.00    +0.120 C 
ATOM     18  O   UNL     1     -14.269  -2.247   0.219  0.00  0.00    -0.454 OA
ATOM     19  C   UNL     1     -13.670  -1.246   0.959  0.00  0.00    +0.336 C 
ATOM     20  O   UNL     1     -13.755  -1.146   2.211  0.00  0.00    -0.245 OA
ATOM     21  C   UNL     1     -13.193  -3.253  -1.704  0.00  0.00    -0.024 C 
ENDBRANCH  14  15
ENDBRANCH  13  14
ENDBRANCH  12  13
ENDBRANCH  11  12
ENDBRANCH  10  11
ENDBRANCH   9  10
ENDBRANCH   8   9
ENDBRANCH   7   8
ENDBRANCH   6   7
ENDBRANCH   5   6
ENDBRANCH   4   5
ENDBRANCH   3   4
BRANCH   1  22
ATOM     22  C   UNL     1       0.533   2.724   0.164  0.00  0.00    -0.022 C 
BRANCH  22  23
ATOM     23  C   UNL     1       1.498   2.353  -0.970  0.00  0.00    -0.022 C 
BRANCH  23  26
ATOM     24  C   UNL     1       2.800   0.092  -0.547  0.00  0.00    +0.085 C 
ATOM     25  O   UNL     1       1.499   0.079  -0.007  0.00  0.00    -0.368 OA
ATOM     26  C   UNL     1       1.669   0.835  -1.186  0.00  0.00    +0.085 C 
BRANCH  24  27
ATOM     27  C   UNL     1       3.765   0.744   0.457  0.00  0.00    -0.024 C 
BRANCH  27  28
ATOM     28  C   UNL     1       5.172   0.901  -0.134  0.00  0.00    -0.051 C 
BRANCH  28  29
ATOM     29  C   UNL     1       5.231   1.969  -1.240  0.00  0.00    -0.053 C 
BRANCH  29  30
ATOM     30  C   UNL     1       6.622   2.060  -1.887  0.00  0.00    -0.053 C 
BRANCH  30  31
ATOM     31  C   UNL     1       7.627   2.831  -1.012  0.00  0.00    -0.053 C 
BRANCH  31  32
ATOM     32  C   UNL     1       9.055   2.793  -1.594  0.00  0.00    -0.053 C 
BRANCH  32  33
ATOM     33  C   UNL     1       9.979   1.797  -0.873  0.00  0.00    -0.053 C 
BRANCH  33  34
ATOM     34  C   UNL     1       9.569   0.332  -1.103  0.00  0.00    -0.053 C 
BRANCH  34  35
ATOM     35  C   UNL     1      10.600  -0.656  -0.532  0.00  0.00    -0.053 C 
BRANCH  35  36
ATOM     36  C   UNL     1      10.471  -0.817   0.994  0.00  0.00    -0.053 C 
BRANCH  36  37
ATOM     37  C   UNL     1      11.560  -1.738   1.586  0.00  0.00    -0.053 C 
BRANCH  37  38
ATOM     38  C   UNL     1      11.056  -3.149   1.946  0.00  0.00    -0.053 C 
BRANCH  38  40
ATOM     39  C   UNL     1      11.797  -4.336  -0.195  0.00  0.00    -0.065 C 
ATOM     40  C   UNL     1      10.634  -4.010   0.744  0.00  0.00    -0.056 C 
ENDBRANCH  38  40
ENDBRANCH  37  38
ENDBRANCH  36  37
ENDBRANCH  35  36
ENDBRANCH  34  35
ENDBRANCH  33  34
ENDBRANCH  32  33
ENDBRANCH  31  32
ENDBRANCH  30  31
ENDBRANCH  29  30
ENDBRANCH  28  29
ENDBRANCH  27  28
ENDBRANCH  24  27
ENDBRANCH  23  26
ENDBRANCH  22  23
ENDBRANCH   1  22
TORSDOF 28
