REMARK  Name = 
REMARK  9 active torsions:
REMARK  status: ('A' for Active; 'I' for Inactive)
REMARK    1  A    between atoms: C_1  and  O_2
REMARK    2  A    between atoms: O_2  and  C_3
REMARK    3  A    between atoms: C_4  and  O_5
REMARK    4  A    between atoms: C_7  and  C_11
REMARK    5  A    between atoms: C_9  and  O_10
REMARK    6  A    between atoms: C_17  and  C_18
REMARK    7  A    between atoms: C_17  and  C_19
REMARK    8  A    between atoms: C_23  and  O_29
REMARK    9  A    between atoms: C_27  and  O_28
REMARK                            x       y       z     vdW  Elec       q    Type
REMARK                         _______ _______ _______ _____ _____    ______ ____
ROOT
ATOM      1  C   UNL     1       1.481  -1.294   0.457  0.00  0.00    +0.158 C 
ATOM      2  O   UNL     1       0.553  -0.212   0.547  0.00  0.00    -0.480 OA
ATOM      3  C   UNL     1      -0.811  -0.375   0.281  0.00  0.00    +0.139 A 
ATOM      4  C   UNL     1      -1.705   0.614   0.685  0.00  0.00    +0.023 A 
ATOM      5  C   UNL     1      -3.071   0.463   0.452  0.00  0.00    +0.136 A 
ATOM      6  O   UNL     1      -3.956   1.460   0.875  0.00  0.00    -0.481 OA
ATOM      7  C   UNL     1      -5.309   1.547   0.411  0.00  0.00    +0.124 C 
ATOM      8  C   UNL     1      -6.165   2.147   1.533  0.00  0.00    -0.021 C 
ATOM      9  C   UNL     1      -5.350   2.458  -0.823  0.00  0.00    -0.021 C 
ATOM     10  C   UNL     1      -5.848   0.181   0.038  0.00  0.00    -0.041 C 
ATOM     11  C   UNL     1      -5.035  -0.829  -0.289  0.00  0.00    -0.048 C 
ATOM     12  C   UNL     1      -3.564  -0.690  -0.181  0.00  0.00    +0.059 A 
ATOM     13  C   UNL     1      -2.658  -1.682  -0.635  0.00  0.00    +0.142 A 
ATOM     14  C   UNL     1      -1.272  -1.519  -0.397  0.00  0.00    +0.104 A 
ATOM     15  C   UNL     1      -0.256  -2.494  -0.873  0.00  0.00    +0.202 C 
ATOM     16  O   UNL     1      -0.603  -3.589  -1.393  0.00  0.00    -0.289 OA
ATOM     17  C   UNL     1       1.207  -2.139  -0.805  0.00  0.00    +0.158 C 
ENDROOT
BRANCH   1  21
ATOM     18  C   UNL     1       5.547   0.217   0.414  0.00  0.00    +0.203 A 
ATOM     19  C   UNL     1       4.554   0.813  -0.402  0.00  0.00    +0.163 A 
ATOM     20  C   UNL     1       3.241   0.321  -0.375  0.00  0.00    -0.010 A 
ATOM     21  C   UNL     1       2.891  -0.751   0.456  0.00  0.00    +0.003 A 
ATOM     22  C   UNL     1       3.878  -1.346   1.253  0.00  0.00    -0.010 A 
ATOM     23  C   UNL     1       5.191  -0.869   1.238  0.00  0.00    +0.163 A 
BRANCH  18  25
ATOM     24  C   UNL     1       7.448   1.722  -0.297  0.00  0.00    +0.079 C 
ATOM     25  O   UNL     1       6.887   0.649   0.450  0.00  0.00    -0.489 OA
ENDBRANCH  18  25
BRANCH  19  26
ATOM     26  O   UNL     1       4.853   1.885  -1.241  0.00  0.00    -0.503 OA
ATOM     27  H   UNL     1       5.725   2.227  -1.272  0.00  0.00    +0.000 HD
ENDBRANCH  19  26
BRANCH  23  28
ATOM     28  O   UNL     1       6.135  -1.492   2.055  0.00  0.00    -0.503 OA
ATOM     29  H   UNL     1       5.882  -2.213   2.597  0.00  0.00    +0.000 HD
ENDBRANCH  23  28
ENDBRANCH   1  21
BRANCH  17  30
ATOM     30  O   UNL     1       1.976  -3.316  -0.772  0.00  0.00    -0.380 OA
ATOM     31  H   UNL     1       1.737  -3.836   0.011  0.00  0.00    +0.000 HD
ENDBRANCH  17  30
BRANCH  13  32
ATOM     32  O   UNL     1      -3.099  -2.811  -1.332  0.00  0.00    -0.505 OA
ATOM     33  H   UNL     1      -4.013  -2.933  -1.497  0.00  0.00    +0.000 HD
ENDBRANCH  13  32
TORSDOF 6
