REMARK  Name = 
REMARK  25 active torsions:
REMARK  status: ('A' for Active; 'I' for Inactive)
REMARK    1  A    between atoms: C_1  and  O_2
REMARK    2  A    between atoms: O_2  and  C_3
REMARK    3  A    between atoms: C_3  and  C_5
REMARK    4  A    between atoms: C_5  and  C_6
REMARK    5  A    between atoms: C_5  and  C_24
REMARK    6  A    between atoms: C_11  and  C_14
REMARK    7  A    between atoms: C_14  and  C_15
REMARK    8  A    between atoms: C_16  and  C_17
REMARK    9  A    between atoms: C_16  and  C_23
REMARK   10  A    between atoms: C_17  and  C_18
REMARK   11  A    between atoms: C_18  and  C_19
REMARK   12  A    between atoms: C_20  and  C_21
REMARK   13  A    between atoms: C_20  and  C_22
REMARK   14  A    between atoms: C_24  and  C_25
REMARK   15  A    between atoms: C_24  and  C_43
REMARK   16  A    between atoms: C_30  and  C_33
REMARK   17  A    between atoms: C_33  and  C_34
REMARK   18  A    between atoms: C_35  and  C_36
REMARK   19  A    between atoms: C_35  and  C_42
REMARK   20  A    between atoms: C_36  and  C_37
REMARK   21  A    between atoms: C_37  and  C_38
REMARK   22  A    between atoms: C_39  and  C_40
REMARK   23  A    between atoms: C_39  and  C_41
REMARK   24  A    between atoms: C_43  and  O_45
REMARK   25  A    between atoms: O_45  and  C_46
REMARK                            x       y       z     vdW  Elec       q    Type
REMARK                         _______ _______ _______ _____ _____    ______ ____
ROOT
ATOM      1  C   UNL     1       0.230   1.256  -0.858  0.00  0.00    +0.102 C 
ENDROOT
BRANCH   1   2
ATOM      2  C   UNL     1       1.564   0.506  -0.718  0.00  0.00    +0.018 C 
ATOM      3  C   UNL     1       1.723  -0.790  -1.049  0.00  0.00    -0.007 C 
ATOM      4  C   UNL     1       2.991  -1.488  -0.792  0.00  0.00    +0.180 C 
ATOM      5  O   UNL     1       3.121  -2.697  -1.117  0.00  0.00    -0.288 OA
ATOM      6  C   UNL     1       4.097  -0.783  -0.129  0.00  0.00    -0.008 C 
ATOM      7  C   UNL     1       4.000   0.527   0.156  0.00  0.00    +0.007 C 
ATOM      8  C   UNL     1       2.728   1.239  -0.140  0.00  0.00    +0.187 C 
ATOM      9  O   UNL     1       2.629   2.471   0.113  0.00  0.00    -0.287 OA
BRANCH   7  10
ATOM     10  C   UNL     1       5.117   1.247   0.885  0.00  0.00    -0.005 C 
BRANCH  10  11
ATOM     11  C   UNL     1       6.494   0.827   0.423  0.00  0.00    -0.081 C 
ATOM     12  C   UNL     1       7.021   1.138  -0.788  0.00  0.00    -0.076 C 
ATOM     13  C   UNL     1       6.258   2.011  -1.756  0.00  0.00    -0.044 C 
BRANCH  12  14
ATOM     14  C   UNL     1       8.387   0.641  -1.251  0.00  0.00    -0.029 C 
BRANCH  14  15
ATOM     15  C   UNL     1       9.132  -0.328  -0.313  0.00  0.00    -0.031 C 
BRANCH  15  16
ATOM     16  C   UNL     1       9.704   0.376   0.898  0.00  0.00    -0.085 C 
ATOM     17  C   UNL     1      10.234  -0.281   1.952  0.00  0.00    -0.080 C 
ATOM     18  C   UNL     1      10.255  -1.788   2.015  0.00  0.00    -0.044 C 
ATOM     19  C   UNL     1      10.802   0.520   3.096  0.00  0.00    -0.044 C 
ENDBRANCH  15  16
ENDBRANCH  14  15
ENDBRANCH  12  14
ENDBRANCH  10  11
ENDBRANCH   7  10
ENDBRANCH   1   2
BRANCH   1  20
ATOM     20  C   UNL     1      -0.332   1.672   0.483  0.00  0.00    +0.316 C 
ATOM     21  O   UNL     1       0.085   1.144   1.551  0.00  0.00    -0.250 OA
BRANCH  20  23
ATOM     22  C   UNL     1      -1.957   3.050   1.739  0.00  0.00    +0.082 C 
ATOM     23  O   UNL     1      -1.339   2.641   0.526  0.00  0.00    -0.467 OA
ENDBRANCH  20  23
ENDBRANCH   1  20
BRANCH   1  24
ATOM     24  C   UNL     1      -0.889   0.640  -1.764  0.00  0.00    +0.102 C 
BRANCH  24  25
ATOM     25  C   UNL     1      -1.773  -0.469  -1.172  0.00  0.00    +0.018 C 
ATOM     26  C   UNL     1      -1.402  -1.229  -0.122  0.00  0.00    -0.007 C 
ATOM     27  C   UNL     1      -2.273  -2.302   0.387  0.00  0.00    +0.180 C 
ATOM     28  O   UNL     1      -1.905  -2.999   1.369  0.00  0.00    -0.288 OA
ATOM     29  C   UNL     1      -3.570  -2.561  -0.252  0.00  0.00    -0.008 C 
ATOM     30  C   UNL     1      -3.973  -1.825  -1.296  0.00  0.00    +0.007 C 
ATOM     31  C   UNL     1      -3.099  -0.735  -1.804  0.00  0.00    +0.187 C 
ATOM     32  O   UNL     1      -3.484  -0.029  -2.777  0.00  0.00    -0.287 OA
BRANCH  30  33
ATOM     33  C   UNL     1      -5.329  -2.063  -1.912  0.00  0.00    -0.005 C 
BRANCH  33  34
ATOM     34  C   UNL     1      -6.330  -1.088  -1.341  0.00  0.00    -0.081 C 
ATOM     35  C   UNL     1      -7.290  -1.403  -0.443  0.00  0.00    -0.076 C 
ATOM     36  C   UNL     1      -7.486  -2.814   0.062  0.00  0.00    -0.044 C 
BRANCH  35  37
ATOM     37  C   UNL     1      -8.175  -0.306   0.106  0.00  0.00    -0.029 C 
BRANCH  37  38
ATOM     38  C   UNL     1      -7.482   0.407   1.274  0.00  0.00    -0.031 C 
BRANCH  38  39
ATOM     39  C   UNL     1      -8.405   1.406   1.924  0.00  0.00    -0.085 C 
ATOM     40  C   UNL     1      -9.292   1.103   2.899  0.00  0.00    -0.080 C 
ATOM     41  C   UNL     1     -10.164   2.205   3.441  0.00  0.00    -0.044 C 
ATOM     42  C   UNL     1      -9.414  -0.291   3.472  0.00  0.00    -0.044 C 
ENDBRANCH  38  39
ENDBRANCH  37  38
ENDBRANCH  35  37
ENDBRANCH  33  34
ENDBRANCH  30  33
ENDBRANCH  24  25
BRANCH  24  43
ATOM     43  C   UNL     1      -0.373   0.279  -3.138  0.00  0.00    +0.316 C 
ATOM     44  O   UNL     1       0.111   1.182  -3.873  0.00  0.00    -0.250 OA
BRANCH  43  45
ATOM     45  O   UNL     1      -0.445  -1.040  -3.599  0.00  0.00    -0.467 OA
ATOM     46  C   UNL     1      -0.016  -1.422  -4.899  0.00  0.00    +0.082 C 
ENDBRANCH  43  45
ENDBRANCH  24  43
ENDBRANCH   1  24
TORSDOF 17
