REMARK  Name = 
REMARK  6 active torsions:
REMARK  status: ('A' for Active; 'I' for Inactive)
REMARK    1  A    between atoms: C_1  and  O_2
REMARK    2  A    between atoms: O_2  and  C_3
REMARK    3  A    between atoms: C_6  and  C_7
REMARK    4  A    between atoms: C_22  and  O_28
REMARK    5  A    between atoms: C_25  and  O_26
REMARK    6  A    between atoms: O_26  and  C_27
REMARK                            x       y       z     vdW  Elec       q    Type
REMARK                         _______ _______ _______ _____ _____    ______ ____
ROOT
ATOM      1  C   UNL     1      -2.232   1.497   0.360  0.00  0.00    +0.162 A 
ATOM      2  C   UNL     1      -0.935   0.961   0.325  0.00  0.00    -0.008 A 
ATOM      3  C   UNL     1      -0.705  -0.367  -0.086  0.00  0.00    -0.002 A 
ATOM      4  C   UNL     1       0.614  -0.903  -0.114  0.00  0.00    +0.005 A 
ATOM      5  C   UNL     1       0.774  -2.219  -0.556  0.00  0.00    +0.077 A 
ATOM      6  C   UNL     1       1.953  -3.051  -0.679  0.00  0.00    +0.341 C 
ATOM      7  O   UNL     1       3.133  -2.717  -0.395  0.00  0.00    -0.245 OA
ATOM      8  O   UNL     1       1.595  -4.305  -1.149  0.00  0.00    -0.456 OA
ATOM      9  C   UNL     1       0.182  -4.366  -1.353  0.00  0.00    +0.122 C 
ATOM     10  C   UNL     1      -0.285  -2.996  -0.948  0.00  0.00    +0.046 A 
ATOM     11  C   UNL     1      -1.593  -2.515  -0.927  0.00  0.00    +0.132 A 
ATOM     12  C   UNL     1      -1.818  -1.175  -0.490  0.00  0.00    +0.028 A 
ATOM     13  C   UNL     1      -3.112  -0.616  -0.447  0.00  0.00    -0.005 A 
ATOM     14  C   UNL     1      -3.320   0.709  -0.024  0.00  0.00    +0.162 A 
ENDROOT
BRANCH   4  15
ATOM     15  C   UNL     1       1.795  -0.125   0.310  0.00  0.00    -0.013 A 
ATOM     16  C   UNL     1       2.028   0.120   1.687  0.00  0.00    -0.050 A 
ATOM     17  C   UNL     1       3.148   0.864   2.098  0.00  0.00    -0.016 A 
ATOM     18  C   UNL     1       4.007   1.342   1.113  0.00  0.00    +0.166 A 
ATOM     19  C   UNL     1       3.789   1.110  -0.207  0.00  0.00    +0.167 A 
ATOM     20  C   UNL     1       2.693   0.379  -0.656  0.00  0.00    -0.008 A 
ATOM     21  O   UNL     1       4.794   1.698  -0.950  0.00  0.00    -0.453 OA
ATOM     22  C   UNL     1       5.699   2.340  -0.042  0.00  0.00    +0.233 C 
ATOM     23  O   UNL     1       5.160   2.089   1.264  0.00  0.00    -0.453 OA
ENDBRANCH   4  15
BRANCH   1  25
ATOM     24  C   UNL     1      -1.481   3.738   1.193  0.00  0.00    +0.079 C 
ATOM     25  O   UNL     1      -2.482   2.817   0.771  0.00  0.00    -0.491 OA
ENDBRANCH   1  25
BRANCH  14  26
ATOM     26  O   UNL     1      -4.601   1.283   0.028  0.00  0.00    -0.491 OA
ATOM     27  C   UNL     1      -5.807   0.614  -0.328  0.00  0.00    +0.079 C 
ENDBRANCH  14  26
BRANCH  11  28
ATOM     28  O   UNL     1      -2.610  -3.383  -1.339  0.00  0.00    -0.506 OA
ATOM     29  H   UNL     1      -2.400  -4.253  -1.616  0.00  0.00    +0.000 HD
ENDBRANCH  11  28
TORSDOF 4
