REMARK  Name = 
REMARK  7 active torsions:
REMARK  status: ('A' for Active; 'I' for Inactive)
REMARK    1  A    between atoms: C_2  and  C_3
REMARK    2  A    between atoms: C_2  and  C_12
REMARK    3  A    between atoms: C_4  and  C_5
REMARK    4  A    between atoms: C_8  and  O_11
REMARK    5  A    between atoms: C_12  and  C_13
REMARK    6  A    between atoms: C_13  and  C_14
REMARK    7  A    between atoms: C_17  and  O_20
REMARK                            x       y       z     vdW  Elec       q    Type
REMARK                         _______ _______ _______ _____ _____    ______ ____
ROOT
ATOM      1  O   UNL     1       0.320   1.267   3.509  0.00  0.00    -0.293 OA
ATOM      2  C   UNL     1       0.252   0.644   2.416  0.00  0.00    +0.156 C 
ENDROOT
BRANCH   2   3
ATOM      3  C   UNL     1       1.515   0.205   1.780  0.00  0.00    -0.019 C 
ATOM      4  C   UNL     1       1.577  -0.378   0.573  0.00  0.00    -0.051 C 
BRANCH   4   5
ATOM      5  C   UNL     1       2.847  -0.801  -0.068  0.00  0.00    -0.025 A 
ATOM      6  C   UNL     1       2.877  -0.955  -1.465  0.00  0.00    -0.051 A 
ATOM      7  C   UNL     1       4.048  -1.362  -2.110  0.00  0.00    -0.020 A 
ATOM      8  C   UNL     1       5.202  -1.633  -1.370  0.00  0.00    +0.117 A 
ATOM      9  C   UNL     1       5.179  -1.500   0.024  0.00  0.00    -0.020 A 
ATOM     10  C   UNL     1       4.010  -1.092   0.674  0.00  0.00    -0.051 A 
BRANCH   8  11
ATOM     11  O   UNL     1       6.362  -2.038  -2.026  0.00  0.00    -0.507 OA
ATOM     12  H   UNL     1       6.366  -2.124  -2.959  0.00  0.00    +0.000 HD
ENDBRANCH   8  11
ENDBRANCH   4   5
ENDBRANCH   2   3
BRANCH   2  13
ATOM     13  C   UNL     1      -1.105   0.409   1.807  0.00  0.00    +0.014 C 
BRANCH  13  14
ATOM     14  C   UNL     1      -1.434   1.496   0.778  0.00  0.00    -0.021 C 
BRANCH  14  15
ATOM     15  C   UNL     1      -2.756   1.213   0.117  0.00  0.00    -0.047 A 
ATOM     16  C   UNL     1      -2.815   0.403  -1.029  0.00  0.00    -0.055 A 
ATOM     17  C   UNL     1      -4.046   0.113  -1.624  0.00  0.00    -0.020 A 
ATOM     18  C   UNL     1      -5.231   0.621  -1.074  0.00  0.00    +0.117 A 
ATOM     19  C   UNL     1      -5.178   1.416   0.075  0.00  0.00    -0.020 A 
ATOM     20  C   UNL     1      -3.947   1.708   0.672  0.00  0.00    -0.055 A 
BRANCH  18  21
ATOM     21  O   UNL     1      -6.464   0.338  -1.658  0.00  0.00    -0.507 OA
ATOM     22  H   UNL     1      -6.506  -0.194  -2.428  0.00  0.00    +0.000 HD
ENDBRANCH  18  21
ENDBRANCH  14  15
ENDBRANCH  13  14
ENDBRANCH   2  13
TORSDOF 7
