REMARK  Name = 
REMARK  14 active torsions:
REMARK  status: ('A' for Active; 'I' for Inactive)
REMARK    1  A    between atoms: C_1  and  O_2
REMARK    2  A    between atoms: O_2  and  C_3
REMARK    3  A    between atoms: C_4  and  C_5
REMARK    4  A    between atoms: C_5  and  C_7
REMARK    5  A    between atoms: C_7  and  C_8
REMARK    6  A    between atoms: C_8  and  C_9
REMARK    7  A    between atoms: C_15  and  O_16
REMARK    8  A    between atoms: C_17  and  C_29
REMARK    9  A    between atoms: C_18  and  O_28
REMARK   10  A    between atoms: C_19  and  C_20
REMARK   11  A    between atoms: C_20  and  C_21
REMARK   12  A    between atoms: C_26  and  O_27
REMARK   13  A    between atoms: C_29  and  C_30
REMARK   14  A    between atoms: C_35  and  O_36
REMARK                            x       y       z     vdW  Elec       q    Type
REMARK                         _______ _______ _______ _____ _____    ______ ____
ROOT
ATOM      1  C   UNL     1       0.056   1.188   0.180  0.00  0.00    +0.141 A 
ATOM      2  C   UNL     1       0.544   0.223   1.093  0.00  0.00    +0.101 A 
ATOM      3  C   UNL     1      -0.292  -0.829   1.524  0.00  0.00    +0.138 A 
ATOM      4  C   UNL     1      -1.603  -0.955   1.015  0.00  0.00    +0.041 A 
ATOM      5  C   UNL     1      -2.103   0.047   0.150  0.00  0.00    +0.131 A 
ATOM      6  C   UNL     1      -1.266   1.085  -0.302  0.00  0.00    +0.041 A 
ENDROOT
BRANCH   1   8
ATOM      7  C   UNL     1       1.735   3.029   0.522  0.00  0.00    +0.079 C 
ATOM      8  O   UNL     1       0.842   2.262  -0.279  0.00  0.00    -0.494 OA
ENDBRANCH   1   8
BRANCH   2   9
ATOM      9  C   UNL     1       1.955   0.227   1.514  0.00  0.00    +0.171 C 
ATOM     10  O   UNL     1       2.252   0.624   2.675  0.00  0.00    -0.292 OA
BRANCH   9  11
ATOM     11  C   UNL     1       3.003  -0.338   0.593  0.00  0.00    +0.015 C 
BRANCH  11  12
ATOM     12  C   UNL     1       4.433  -0.046   1.065  0.00  0.00    -0.021 C 
BRANCH  12  13
ATOM     13  C   UNL     1       5.434  -0.596   0.085  0.00  0.00    -0.047 A 
ATOM     14  C   UNL     1       5.904  -1.914   0.215  0.00  0.00    -0.059 A 
ATOM     15  C   UNL     1       6.806  -2.435  -0.717  0.00  0.00    -0.062 A 
ATOM     16  C   UNL     1       7.237  -1.650  -1.790  0.00  0.00    -0.062 A 
ATOM     17  C   UNL     1       6.763  -0.343  -1.935  0.00  0.00    -0.062 A 
ATOM     18  C   UNL     1       5.860   0.182  -1.004  0.00  0.00    -0.059 A 
ENDBRANCH  12  13
ENDBRANCH  11  12
ENDBRANCH   9  11
ENDBRANCH   2   9
BRANCH   3  19
ATOM     19  O   UNL     1       0.169  -1.774   2.449  0.00  0.00    -0.506 OA
ATOM     20  H   UNL     1       1.036  -1.705   2.797  0.00  0.00    +0.000 HD
ENDBRANCH   3  19
BRANCH   5  21
ATOM     21  O   UNL     1      -3.438   0.050  -0.262  0.00  0.00    -0.506 OA
ATOM     22  H   UNL     1      -4.018  -0.629   0.024  0.00  0.00    +0.000 HD
ENDBRANCH   5  21
BRANCH   6  23
ATOM     23  C   UNL     1      -1.820   2.128  -1.257  0.00  0.00    +0.008 C 
BRANCH  23  24
ATOM     24  C   UNL     1      -2.720   3.111  -0.534  0.00  0.00    -0.001 A 
ATOM     25  C   UNL     1      -2.116   4.016   0.362  0.00  0.00    -0.055 A 
ATOM     26  C   UNL     1      -2.883   4.935   1.079  0.00  0.00    -0.061 A 
ATOM     27  C   UNL     1      -4.265   4.971   0.913  0.00  0.00    -0.058 A 
ATOM     28  C   UNL     1      -4.884   4.090   0.025  0.00  0.00    -0.020 A 
ATOM     29  C   UNL     1      -4.132   3.161  -0.706  0.00  0.00    +0.120 A 
BRANCH  29  30
ATOM     30  O   UNL     1      -4.832   2.325  -1.580  0.00  0.00    -0.506 OA
ATOM     31  H   UNL     1      -5.763   2.400  -1.655  0.00  0.00    +0.000 HD
ENDBRANCH  29  30
ENDBRANCH  23  24
ENDBRANCH   6  23
BRANCH   4  32
ATOM     32  C   UNL     1      -2.454  -2.160   1.401  0.00  0.00    +0.008 C 
BRANCH  32  33
ATOM     33  C   UNL     1      -2.910  -2.974   0.202  0.00  0.00    -0.001 A 
ATOM     34  C   UNL     1      -4.292  -3.146  -0.018  0.00  0.00    -0.055 A 
ATOM     35  C   UNL     1      -4.757  -3.848  -1.131  0.00  0.00    -0.061 A 
ATOM     36  C   UNL     1      -3.853  -4.406  -2.033  0.00  0.00    -0.058 A 
ATOM     37  C   UNL     1      -2.482  -4.285  -1.811  0.00  0.00    -0.020 A 
ATOM     38  C   UNL     1      -1.999  -3.598  -0.690  0.00  0.00    +0.120 A 
BRANCH  38  39
ATOM     39  O   UNL     1      -0.619  -3.578  -0.488  0.00  0.00    -0.506 OA
ATOM     40  H   UNL     1      -0.050  -4.002  -1.099  0.00  0.00    +0.000 HD
ENDBRANCH  38  39
ENDBRANCH  32  33
ENDBRANCH   4  32
TORSDOF 13
