REMARK  Name = 
REMARK  2 active torsions:
REMARK  status: ('A' for Active; 'I' for Inactive)
REMARK    1  A    between atoms: C_1  and  C_2
REMARK    2  A    between atoms: C_9  and  O_15
REMARK                            x       y       z     vdW  Elec       q    Type
REMARK                         _______ _______ _______ _____ _____    ______ ____
ROOT
ATOM      1  C   UNL     1       3.461   0.094  -0.274  0.00  0.00    -0.032 C 
ATOM      2  C   UNL     1       1.964   0.272  -0.186  0.00  0.00    +0.042 C 
ATOM      3  C   UNL     1       1.170  -0.785   0.087  0.00  0.00    +0.131 C 
ATOM      4  O   UNL     1       1.790  -2.022   0.308  0.00  0.00    -0.506 OA
ATOM      5  C   UNL     1      -0.328  -0.636   0.150  0.00  0.00    +0.031 A 
ATOM      6  C   UNL     1      -1.159  -1.763   0.327  0.00  0.00    -0.050 A 
ATOM      7  C   UNL     1      -2.544  -1.630   0.377  0.00  0.00    -0.058 A 
ATOM      8  C   UNL     1      -3.135  -0.386   0.203  0.00  0.00    -0.019 A 
ATOM      9  C   UNL     1      -2.353   0.747  -0.025  0.00  0.00    +0.128 A 
ATOM     10  C   UNL     1      -0.934   0.644   0.003  0.00  0.00    +0.077 A 
ATOM     11  C   UNL     1      -0.045   1.830  -0.084  0.00  0.00    +0.237 C 
ATOM     12  O   UNL     1      -0.482   2.999   0.082  0.00  0.00    -0.283 OA
ATOM     13  C   UNL     1       1.392   1.631  -0.280  0.00  0.00    +0.232 C 
ATOM     14  O   UNL     1       2.135   2.628  -0.490  0.00  0.00    -0.283 OA
ENDROOT
BRANCH   9  15
ATOM     15  O   UNL     1      -3.032   1.936  -0.308  0.00  0.00    -0.506 OA
ATOM     16  H   UNL     1      -3.969   1.950  -0.313  0.00  0.00    +0.000 HD
ENDBRANCH   9  15
TORSDOF 1
