REMARK  Name = 
REMARK  3 active torsions:
REMARK  status: ('A' for Active; 'I' for Inactive)
REMARK    1  A    between atoms: C_1  and  C_2
REMARK    2  A    between atoms: C_2  and  C_4
REMARK    3  A    between atoms: C_5  and  C_6
REMARK                            x       y       z     vdW  Elec       q    Type
REMARK                         _______ _______ _______ _____ _____    ______ ____
ROOT
ATOM      1  C   UNL     1      -0.286   0.010   0.073  0.00  0.00    -0.024 A 
ATOM      2  C   UNL     1      -0.709   1.321   0.433  0.00  0.00    -0.053 A 
ATOM      3  C   UNL     1      -2.076   1.648   0.484  0.00  0.00    -0.037 A 
ATOM      4  C   UNL     1      -2.998   0.650   0.182  0.00  0.00    +0.046 A 
ATOM      5  C   UNL     1      -2.602  -0.616  -0.150  0.00  0.00    +0.000 A 
ATOM      6  C   UNL     1      -1.259  -0.976  -0.211  0.00  0.00    -0.045 A 
ATOM      7  C   UNL     1      -3.741  -1.357  -0.380  0.00  0.00    -0.037 A 
ATOM      8  C   UNL     1      -4.796  -0.475  -0.168  0.00  0.00    +0.003 A 
ATOM      9  N   UNL     1      -4.337   0.750   0.176  0.00  0.00    -0.361 N 
ATOM     10  H   UNL     1      -4.874   1.549   0.380  0.00  0.00    +0.000 HD
ENDROOT
BRANCH   1  12
ATOM     11  C   UNL     1       2.144   0.501  -0.165  0.00  0.00    -0.059 C 
ATOM     12  C   UNL     1       1.145  -0.376   0.021  0.00  0.00    -0.054 C 
BRANCH  11  14
ATOM     13  C   UNL     1       4.004  -1.323   0.010  0.00  0.00    -0.040 C 
ATOM     14  C   UNL     1       3.574   0.103  -0.225  0.00  0.00    -0.058 C 
ATOM     15  C   UNL     1       4.494   1.033  -0.503  0.00  0.00    -0.096 C 
ENDBRANCH  11  14
ENDBRANCH   1  12
TORSDOF 2
