REMARK  Name = 
REMARK  19 active torsions:
REMARK  status: ('A' for Active; 'I' for Inactive)
REMARK    1  A    between atoms: C_1  and  C_2
REMARK    2  A    between atoms: C_2  and  C_3
REMARK    3  A    between atoms: C_3  and  C_4
REMARK    4  A    between atoms: C_4  and  C_5
REMARK    5  A    between atoms: C_5  and  C_6
REMARK    6  A    between atoms: C_6  and  C_7
REMARK    7  A    between atoms: C_7  and  C_8
REMARK    8  A    between atoms: C_8  and  C_9
REMARK    9  A    between atoms: C_9  and  C_10
REMARK   10  A    between atoms: C_10  and  C_11
REMARK   11  A    between atoms: C_11  and  C_12
REMARK   12  A    between atoms: C_12  and  C_13
REMARK   13  A    between atoms: C_13  and  C_14
REMARK   14  A    between atoms: C_14  and  C_15
REMARK   15  A    between atoms: C_15  and  C_16
REMARK   16  A    between atoms: C_16  and  C_17
REMARK   17  A    between atoms: C_17  and  C_18
REMARK   18  A    between atoms: C_18  and  C_19
REMARK   19  A    between atoms: C_19  and  C_20
REMARK                            x       y       z     vdW  Elec       q    Type
REMARK                         _______ _______ _______ _____ _____    ______ ____
ROOT
ATOM      1  C   UNL     1      -0.838  -0.851  -0.356  0.00  0.00    -0.053 C 
ENDROOT
BRANCH   1   2
ATOM      2  C   UNL     1       0.684  -0.950  -0.166  0.00  0.00    -0.053 C 
BRANCH   2   3
ATOM      3  C   UNL     1       1.395  -1.568  -1.383  0.00  0.00    -0.053 C 
BRANCH   3   4
ATOM      4  C   UNL     1       2.921  -1.392  -1.325  0.00  0.00    -0.053 C 
BRANCH   4   5
ATOM      5  C   UNL     1       3.563  -2.190  -0.176  0.00  0.00    -0.053 C 
BRANCH   5   6
ATOM      6  C   UNL     1       5.098  -2.247  -0.274  0.00  0.00    -0.053 C 
BRANCH   6   7
ATOM      7  C   UNL     1       5.799  -0.877  -0.236  0.00  0.00    -0.053 C 
BRANCH   7   8
ATOM      8  C   UNL     1       5.524  -0.101   1.064  0.00  0.00    -0.053 C 
BRANCH   8   9
ATOM      9  C   UNL     1       6.435   1.126   1.222  0.00  0.00    -0.053 C 
BRANCH   9  10
ATOM     10  C   UNL     1       6.112   2.234   0.209  0.00  0.00    -0.056 C 
ATOM     11  C   UNL     1       6.942   3.485   0.480  0.00  0.00    -0.065 C 
ENDBRANCH   9  10
ENDBRANCH   8   9
ENDBRANCH   7   8
ENDBRANCH   6   7
ENDBRANCH   5   6
ENDBRANCH   4   5
ENDBRANCH   3   4
ENDBRANCH   2   3
ENDBRANCH   1   2
BRANCH   1  12
ATOM     12  C   UNL     1      -1.526  -2.227  -0.341  0.00  0.00    -0.053 C 
BRANCH  12  13
ATOM     13  C   UNL     1      -3.050  -2.123  -0.505  0.00  0.00    -0.053 C 
BRANCH  13  14
ATOM     14  C   UNL     1      -3.747  -1.595   0.761  0.00  0.00    -0.053 C 
BRANCH  14  15
ATOM     15  C   UNL     1      -5.281  -1.703   0.684  0.00  0.00    -0.053 C 
BRANCH  15  16
ATOM     16  C   UNL     1      -5.934  -0.905  -0.463  0.00  0.00    -0.053 C 
BRANCH  16  17
ATOM     17  C   UNL     1      -5.597   0.597  -0.494  0.00  0.00    -0.053 C 
BRANCH  17  18
ATOM     18  C   UNL     1      -6.070   1.341   0.766  0.00  0.00    -0.053 C 
BRANCH  18  20
ATOM     19  C   UNL     1      -6.717   3.587  -0.260  0.00  0.00    -0.065 C 
ATOM     20  C   UNL     1      -5.785   2.849   0.700  0.00  0.00    -0.056 C 
ENDBRANCH  18  20
ENDBRANCH  17  18
ENDBRANCH  16  17
ENDBRANCH  15  16
ENDBRANCH  14  15
ENDBRANCH  13  14
ENDBRANCH  12  13
ENDBRANCH   1  12
TORSDOF 17
