REMARK  Name = 
REMARK  12 active torsions:
REMARK  status: ('A' for Active; 'I' for Inactive)
REMARK    1  A    between atoms: C_1  and  C_2
REMARK    2  A    between atoms: C_2  and  O_4
REMARK    3  A    between atoms: O_4  and  C_5
REMARK    4  A    between atoms: C_6  and  O_23
REMARK    5  A    between atoms: C_9  and  O_22
REMARK    6  A    between atoms: C_10  and  O_11
REMARK    7  A    between atoms: C_10  and  C_12
REMARK    8  A    between atoms: C_12  and  O_13
REMARK    9  A    between atoms: O_13  and  C_14
REMARK   10  A    between atoms: C_14  and  C_16
REMARK   11  A    between atoms: O_23  and  C_24
REMARK   12  A    between atoms: C_24  and  C_26
REMARK                            x       y       z     vdW  Elec       q    Type
REMARK                         _______ _______ _______ _____ _____    ______ ____
ROOT
ATOM      1  C   UNL     1      -1.551   0.511  -0.446  0.00  0.00    +0.178 C 
ATOM      2  C   UNL     1      -2.712  -0.417  -0.022  0.00  0.00    +0.161 C 
ATOM      3  C   UNL     1      -2.474  -1.861  -0.402  0.00  0.00    -0.042 C 
ATOM      4  C   UNL     1      -1.261  -2.347  -0.704  0.00  0.00    -0.053 C 
ATOM      5  C   UNL     1      -0.054  -1.461  -0.897  0.00  0.00    +0.109 C 
ATOM      6  C   UNL     1      -0.176  -0.123  -0.105  0.00  0.00    +0.170 C 
ENDROOT
BRANCH   6   7
ATOM      7  O   UNL     1      -0.133  -0.345   1.289  0.00  0.00    -0.379 OA
ATOM      8  H   UNL     1       0.719  -0.742   1.527  0.00  0.00    +0.000 HD
ENDBRANCH   6   7
BRANCH   5   9
ATOM      9  O   UNL     1       1.103  -2.163  -0.516  0.00  0.00    -0.385 OA
ATOM     10  H   UNL     1       1.044  -2.398   0.423  0.00  0.00    +0.000 HD
ENDBRANCH   5   9
BRANCH   1  11
ATOM     11  O   UNL     1      -1.678   1.768   0.226  0.00  0.00    -0.454 OA
BRANCH  11  13
ATOM     12  C   UNL     1      -2.623   4.046   0.615  0.00  0.00    +0.033 C 
ATOM     13  C   UNL     1      -2.522   2.801  -0.198  0.00  0.00    +0.304 C 
ATOM     14  O   UNL     1      -3.161   2.712  -1.282  0.00  0.00    -0.251 OA
ENDBRANCH  11  13
ENDBRANCH   1  11
BRANCH   6  15
ATOM     15  C   UNL     1       0.952   0.862  -0.523  0.00  0.00    +0.128 C 
BRANCH  15  16
ATOM     16  O   UNL     1       2.252   0.312  -0.306  0.00  0.00    -0.458 OA
BRANCH  16  17
ATOM     17  C   UNL     1       2.972   0.453   0.887  0.00  0.00    +0.339 C 
ATOM     18  O   UNL     1       2.520   1.175   1.820  0.00  0.00    -0.245 OA
BRANCH  17  19
ATOM     19  C   UNL     1       4.264  -0.248   1.050  0.00  0.00    +0.059 A 
ATOM     20  C   UNL     1       4.754  -1.079   0.026  0.00  0.00    -0.048 A 
ATOM     21  C   UNL     1       5.973  -1.746   0.180  0.00  0.00    -0.061 A 
ATOM     22  C   UNL     1       6.714  -1.592   1.354  0.00  0.00    -0.062 A 
ATOM     23  C   UNL     1       6.237  -0.770   2.377  0.00  0.00    -0.061 A 
ATOM     24  C   UNL     1       5.018  -0.101   2.230  0.00  0.00    -0.048 A 
ENDBRANCH  17  19
ENDBRANCH  16  17
ENDBRANCH  15  16
ENDBRANCH   6  15
BRANCH   2  25
ATOM     25  O   UNL     1      -3.923   0.042  -0.624  0.00  0.00    -0.453 OA
BRANCH  25  26
ATOM     26  C   UNL     1      -5.198  -0.315  -0.170  0.00  0.00    +0.305 C 
ATOM     27  O   UNL     1      -5.341  -1.052   0.843  0.00  0.00    -0.251 OA
ATOM     28  C   UNL     1      -6.401   0.224  -0.865  0.00  0.00    +0.033 C 
ENDBRANCH  25  26
ENDBRANCH   2  25
TORSDOF 10
