REMARK  Name = 
REMARK  9 active torsions:
REMARK  status: ('A' for Active; 'I' for Inactive)
REMARK    1  A    between atoms: C_2  and  C_3
REMARK    2  A    between atoms: C_2  and  O_9
REMARK    3  A    between atoms: O_9  and  C_10
REMARK    4  A    between atoms: C_10  and  C_11
REMARK    5  A    between atoms: C_15  and  O_28
REMARK    6  A    between atoms: C_16  and  O_19
REMARK    7  A    between atoms: C_17  and  O_18
REMARK    8  A    between atoms: O_19  and  C_20
REMARK    9  A    between atoms: C_20  and  C_22
REMARK                            x       y       z     vdW  Elec       q    Type
REMARK                         _______ _______ _______ _____ _____    ______ ____
ROOT
ATOM      1  C   UNL     1       1.189  -0.587   1.720  0.00  0.00    +0.160 C 
ATOM      2  O   UNL     1       1.370  -1.907   2.177  0.00  0.00    -0.357 OA
ATOM      3  C   UNL     1       0.738  -1.012   3.073  0.00  0.00    +0.113 C 
ATOM      4  C   UNL     1      -0.758  -1.338   3.221  0.00  0.00    +0.092 C 
ATOM      5  C   UNL     1      -1.673  -0.247   2.600  0.00  0.00    +0.113 C 
ATOM      6  C   UNL     1      -1.077   0.428   1.324  0.00  0.00    +0.159 C 
ATOM      7  C   UNL     1       0.052  -0.409   0.689  0.00  0.00    +0.129 C 
ATOM      8 CL   UNL     1      -1.145  -1.558   4.951  0.00  0.00    -0.116 Cl
ENDROOT
BRANCH   7   9
ATOM      9  O   UNL     1       0.520   0.180  -0.500  0.00  0.00    -0.385 OA
ATOM     10  H   UNL     1       0.878   1.061  -0.306  0.00  0.00    +0.000 HD
ENDBRANCH   7   9
BRANCH   5  11
ATOM     11  O   UNL     1      -2.922  -0.819   2.299  0.00  0.00    -0.386 OA
ATOM     12  H   UNL     1      -2.806  -1.520   1.639  0.00  0.00    +0.000 HD
ENDBRANCH   5  11
BRANCH   1  13
ATOM     13  C   UNL     1       2.482   0.241   1.675  0.00  0.00    +0.127 C 
BRANCH  13  14
ATOM     14  O   UNL     1       3.158   0.055   0.434  0.00  0.00    -0.458 OA
BRANCH  14  16
ATOM     15  O   UNL     1       4.035  -2.013   0.967  0.00  0.00    -0.245 OA
ATOM     16  C   UNL     1       3.870  -1.105   0.105  0.00  0.00    +0.339 C 
BRANCH  16  17
ATOM     17  C   UNL     1       4.433  -1.261  -1.253  0.00  0.00    +0.059 A 
ATOM     18  C   UNL     1       4.224  -0.266  -2.226  0.00  0.00    -0.048 A 
ATOM     19  C   UNL     1       4.753  -0.412  -3.512  0.00  0.00    -0.061 A 
ATOM     20  C   UNL     1       5.493  -1.550  -3.841  0.00  0.00    -0.062 A 
ATOM     21  C   UNL     1       5.706  -2.545  -2.884  0.00  0.00    -0.061 A 
ATOM     22  C   UNL     1       5.179  -2.404  -1.596  0.00  0.00    -0.048 A 
ENDBRANCH  16  17
ENDBRANCH  14  16
ENDBRANCH  13  14
ENDBRANCH   1  13
BRANCH   6  23
ATOM     23  O   UNL     1      -2.088   0.672   0.343  0.00  0.00    -0.452 OA
BRANCH  23  24
ATOM     24  C   UNL     1      -3.068   1.665   0.473  0.00  0.00    +0.340 C 
ATOM     25  O   UNL     1      -3.078   2.416   1.487  0.00  0.00    -0.245 OA
BRANCH  24  26
ATOM     26  C   UNL     1      -4.091   1.829  -0.583  0.00  0.00    +0.059 A 
ATOM     27  C   UNL     1      -4.083   0.993  -1.714  0.00  0.00    -0.048 A 
ATOM     28  C   UNL     1      -5.050   1.145  -2.713  0.00  0.00    -0.061 A 
ATOM     29  C   UNL     1      -6.032   2.132  -2.594  0.00  0.00    -0.062 A 
ATOM     30  C   UNL     1      -6.049   2.968  -1.476  0.00  0.00    -0.061 A 
ATOM     31  C   UNL     1      -5.085   2.820  -0.473  0.00  0.00    -0.048 A 
ENDBRANCH  24  26
ENDBRANCH  23  24
ENDBRANCH   6  23
TORSDOF 9
