REMARK  Name = 
REMARK  8 active torsions:
REMARK  status: ('A' for Active; 'I' for Inactive)
REMARK    1  A    between atoms: C_2  and  C_3
REMARK    2  A    between atoms: C_2  and  O_9
REMARK    3  A    between atoms: O_9  and  C_10
REMARK    4  A    between atoms: C_10  and  C_11
REMARK    5  A    between atoms: C_16  and  O_19
REMARK    6  A    between atoms: C_17  and  O_18
REMARK    7  A    between atoms: O_19  and  C_20
REMARK    8  A    between atoms: C_20  and  C_22
REMARK                            x       y       z     vdW  Elec       q    Type
REMARK                         _______ _______ _______ _____ _____    ______ ____
ROOT
ATOM      1  C   UNL     1      -0.747   0.043  -2.091  0.00  0.00    +0.161 C 
ATOM      2  O   UNL     1      -1.157  -0.879  -3.079  0.00  0.00    -0.356 OA
ATOM      3  C   UNL     1      -1.092  -1.397  -1.764  0.00  0.00    +0.123 C 
ATOM      4  C   UNL     1       0.208  -1.978  -1.218  0.00  0.00    +0.118 C 
ATOM      5  C   UNL     1       1.158  -2.027  -2.407  0.00  0.00    +0.127 C 
ATOM      6  C   UNL     1       1.839  -0.662  -2.228  0.00  0.00    +0.160 C 
ATOM      7  C   UNL     1       0.754   0.486  -2.354  0.00  0.00    +0.129 C 
ATOM      8  O   UNL     1       0.909  -3.128  -1.558  0.00  0.00    -0.362 OA
ENDROOT
BRANCH   7   9
ATOM      9  O   UNL     1       0.846   1.053  -3.636  0.00  0.00    -0.385 OA
ATOM     10  H   UNL     1       0.631   0.382  -4.303  0.00  0.00    +0.000 HD
ENDBRANCH   7   9
BRANCH   1  11
ATOM     11  C   UNL     1      -1.800   1.156  -1.927  0.00  0.00    +0.127 C 
BRANCH  11  12
ATOM     12  O   UNL     1      -2.851   0.777  -1.042  0.00  0.00    -0.458 OA
BRANCH  12  14
ATOM     13  O   UNL     1      -1.583   0.959   0.879  0.00  0.00    -0.245 OA
ATOM     14  C   UNL     1      -2.692   0.675   0.346  0.00  0.00    +0.339 C 
BRANCH  14  15
ATOM     15  C   UNL     1      -3.826   0.223   1.183  0.00  0.00    +0.059 A 
ATOM     16  C   UNL     1      -5.063  -0.095   0.587  0.00  0.00    -0.048 A 
ATOM     17  C   UNL     1      -6.137  -0.529   1.373  0.00  0.00    -0.061 A 
ATOM     18  C   UNL     1      -5.989  -0.649   2.760  0.00  0.00    -0.062 A 
ATOM     19  C   UNL     1      -4.765  -0.337   3.362  0.00  0.00    -0.061 A 
ATOM     20  C   UNL     1      -3.688   0.099   2.580  0.00  0.00    -0.048 A 
ENDBRANCH  14  15
ENDBRANCH  12  14
ENDBRANCH  11  12
ENDBRANCH   1  11
BRANCH   6  21
ATOM     21  O   UNL     1       2.566  -0.586  -0.996  0.00  0.00    -0.452 OA
BRANCH  21  22
ATOM     22  C   UNL     1       3.505   0.414  -0.713  0.00  0.00    +0.340 C 
ATOM     23  O   UNL     1       3.825   1.253  -1.602  0.00  0.00    -0.245 OA
BRANCH  22  24
ATOM     24  C   UNL     1       4.115   0.485   0.632  0.00  0.00    +0.059 A 
ATOM     25  C   UNL     1       3.715  -0.410   1.644  0.00  0.00    -0.048 A 
ATOM     26  C   UNL     1       4.284  -0.337   2.920  0.00  0.00    -0.061 A 
ATOM     27  C   UNL     1       5.258   0.625   3.197  0.00  0.00    -0.062 A 
ATOM     28  C   UNL     1       5.665   1.516   2.199  0.00  0.00    -0.061 A 
ATOM     29  C   UNL     1       5.096   1.451   0.923  0.00  0.00    -0.048 A 
ENDBRANCH  22  24
ENDBRANCH  21  22
ENDBRANCH   6  21
TORSDOF 8
