REMARK  Name = 
REMARK  12 active torsions:
REMARK  status: ('A' for Active; 'I' for Inactive)
REMARK    1  A    between atoms: O_1  and  C_2
REMARK    2  A    between atoms: C_5  and  C_29
REMARK    3  A    between atoms: C_14  and  C_28
REMARK    4  A    between atoms: C_18  and  C_19
REMARK    5  A    between atoms: C_19  and  C_20
REMARK    6  A    between atoms: C_19  and  C_27
REMARK    7  A    between atoms: C_20  and  C_21
REMARK    8  A    between atoms: C_21  and  C_22
REMARK    9  A    between atoms: C_22  and  C_23
REMARK   10  A    between atoms: C_22  and  C_26
REMARK   11  A    between atoms: C_23  and  C_24
REMARK   12  A    between atoms: C_23  and  C_25
REMARK                            x       y       z     vdW  Elec       q    Type
REMARK                         _______ _______ _______ _____ _____    ______ ____
ROOT
ATOM      1  C   UNL     1       5.965  -1.475  -1.769  0.00  0.00    +0.056 C 
ATOM      2  C   UNL     1       4.702  -2.314  -1.478  0.00  0.00    -0.026 C 
ATOM      3  C   UNL     1       4.223  -2.156  -0.031  0.00  0.00    -0.044 C 
ATOM      4  C   UNL     1       3.796  -0.686   0.304  0.00  0.00    -0.022 C 
ATOM      5  C   UNL     1       4.765   0.355  -0.407  0.00  0.00    -0.029 C 
ATOM      6  C   UNL     1       6.117  -0.271  -0.812  0.00  0.00    -0.023 C 
ATOM      7  C   UNL     1       4.123   1.076  -1.600  0.00  0.00    -0.031 C 
ATOM      8  C   UNL     1       2.828   1.694  -1.183  0.00  0.00    -0.084 C 
ATOM      9  C   UNL     1       1.935   0.981  -0.473  0.00  0.00    -0.066 C 
ATOM     10  C   UNL     1       2.268  -0.475  -0.121  0.00  0.00    -0.014 C 
ATOM     11  C   UNL     1       1.230  -1.129   0.862  0.00  0.00    -0.045 C 
ATOM     12  C   UNL     1      -0.230  -0.662   0.678  0.00  0.00    -0.046 C 
ATOM     13  C   UNL     1      -0.327   0.884   0.688  0.00  0.00    -0.022 C 
ATOM     14  C   UNL     1       0.470   1.366  -0.528  0.00  0.00    -0.014 C 
ATOM     15  C   UNL     1       0.064   2.822  -0.713  0.00  0.00    -0.046 C 
ATOM     16  C   UNL     1      -1.423   2.844  -0.326  0.00  0.00    -0.049 C 
ATOM     17  C   UNL     1      -1.730   1.478   0.345  0.00  0.00    -0.032 C 
ATOM     18  C   UNL     1       0.244   1.467   2.013  0.00  0.00    -0.059 C 
ATOM     19  C   UNL     1       3.988  -0.495   1.835  0.00  0.00    -0.059 C 
ENDROOT
BRANCH   1  20
ATOM     20  O   UNL     1       7.100  -2.296  -1.673  0.00  0.00    -0.392 OA
ATOM     21  H   UNL     1       7.005  -3.052  -2.273  0.00  0.00    +0.000 HD
ENDBRANCH   1  20
BRANCH  17  22
ATOM     22  C   UNL     1      -2.897   1.549   1.401  0.00  0.00    -0.041 C 
ATOM     23  C   UNL     1      -2.654   2.434   2.642  0.00  0.00    -0.062 C 
BRANCH  22  24
ATOM     24  C   UNL     1      -3.432   0.169   1.869  0.00  0.00    -0.050 C 
BRANCH  24  25
ATOM     25  C   UNL     1      -3.861  -0.817   0.759  0.00  0.00    -0.050 C 
BRANCH  25  26
ATOM     26  C   UNL     1      -4.936  -0.282  -0.228  0.00  0.00    -0.042 C 
ATOM     27  C   UNL     1      -6.261   0.013   0.499  0.00  0.00    -0.062 C 
BRANCH  26  28
ATOM     28  C   UNL     1      -5.164  -1.227  -1.451  0.00  0.00    -0.044 C 
ATOM     29  C   UNL     1      -3.966  -1.217  -2.416  0.00  0.00    -0.062 C 
ATOM     30  C   UNL     1      -5.517  -2.671  -1.060  0.00  0.00    -0.062 C 
ENDBRANCH  26  28
ENDBRANCH  25  26
ENDBRANCH  24  25
ENDBRANCH  22  24
ENDBRANCH  17  22
TORSDOF 6
