REMARK  Name = 
REMARK  11 active torsions:
REMARK  status: ('A' for Active; 'I' for Inactive)
REMARK    1  A    between atoms: O_1  and  C_2
REMARK    2  A    between atoms: C_5  and  C_29
REMARK    3  A    between atoms: C_14  and  C_28
REMARK    4  A    between atoms: C_18  and  C_19
REMARK    5  A    between atoms: C_19  and  C_20
REMARK    6  A    between atoms: C_19  and  C_27
REMARK    7  A    between atoms: C_21  and  C_22
REMARK    8  A    between atoms: C_22  and  C_23
REMARK    9  A    between atoms: C_22  and  C_26
REMARK   10  A    between atoms: C_23  and  C_24
REMARK   11  A    between atoms: C_23  and  C_25
REMARK                            x       y       z     vdW  Elec       q    Type
REMARK                         _______ _______ _______ _____ _____    ______ ____
ROOT
ATOM      1  C   UNL     1       7.082   0.422  -0.776  0.00  0.00    +0.056 C 
ATOM      2  C   UNL     1       6.178   0.190  -1.997  0.00  0.00    -0.026 C 
ATOM      3  C   UNL     1       4.924  -0.673  -1.723  0.00  0.00    -0.044 C 
ATOM      4  C   UNL     1       4.418  -0.696  -0.240  0.00  0.00    -0.022 C 
ATOM      5  C   UNL     1       4.786   0.638   0.473  0.00  0.00    -0.029 C 
ATOM      6  C   UNL     1       6.316   0.896   0.489  0.00  0.00    -0.023 C 
ATOM      7  C   UNL     1       4.047   1.858  -0.128  0.00  0.00    -0.031 C 
ATOM      8  C   UNL     1       2.608   1.603  -0.467  0.00  0.00    -0.084 C 
ATOM      9  C   UNL     1       2.082   0.369  -0.594  0.00  0.00    -0.066 C 
ATOM     10  C   UNL     1       2.852  -0.893  -0.228  0.00  0.00    -0.014 C 
ATOM     11  C   UNL     1       2.248  -1.466   1.094  0.00  0.00    -0.045 C 
ATOM     12  C   UNL     1       0.700  -1.614   1.044  0.00  0.00    -0.046 C 
ATOM     13  C   UNL     1      -0.009  -0.295   0.620  0.00  0.00    -0.022 C 
ATOM     14  C   UNL     1       0.594   0.132  -0.726  0.00  0.00    -0.014 C 
ATOM     15  C   UNL     1      -0.351   1.188  -1.276  0.00  0.00    -0.046 C 
ATOM     16  C   UNL     1      -1.734   0.701  -0.818  0.00  0.00    -0.049 C 
ATOM     17  C   UNL     1      -1.508  -0.438   0.219  0.00  0.00    -0.029 C 
ATOM     18  C   UNL     1       0.179   0.794   1.722  0.00  0.00    -0.059 C 
ATOM     19  C   UNL     1       5.088  -1.898   0.488  0.00  0.00    -0.059 C 
ENDROOT
BRANCH   1  20
ATOM     20  O   UNL     1       8.064   1.366  -1.119  0.00  0.00    -0.392 OA
ATOM     21  H   UNL     1       8.539   1.065  -1.910  0.00  0.00    +0.000 HD
ENDBRANCH   1  20
BRANCH  17  22
ATOM     22  C   UNL     1      -2.581  -0.410   1.355  0.00  0.00    -0.022 C 
ATOM     23  C   UNL     1      -2.424  -1.575   2.344  0.00  0.00    -0.059 C 
BRANCH  22  24
ATOM     24  C   UNL     1      -3.970  -0.478   0.757  0.00  0.00    -0.085 C 
ATOM     25  C   UNL     1      -5.029   0.065   1.383  0.00  0.00    -0.085 C 
BRANCH  25  26
ATOM     26  C   UNL     1      -6.444   0.010   0.839  0.00  0.00    -0.023 C 
ATOM     27  C   UNL     1      -6.848  -1.417   0.423  0.00  0.00    -0.059 C 
BRANCH  26  28
ATOM     28  C   UNL     1      -6.702   1.102  -0.244  0.00  0.00    -0.041 C 
ATOM     29  C   UNL     1      -8.202   1.267  -0.535  0.00  0.00    -0.062 C 
ATOM     30  C   UNL     1      -5.934   0.887  -1.559  0.00  0.00    -0.062 C 
ENDBRANCH  26  28
ENDBRANCH  25  26
ENDBRANCH  22  24
ENDBRANCH  17  22
TORSDOF 5
