REMARK  Name = 
REMARK  11 active torsions:
REMARK  status: ('A' for Active; 'I' for Inactive)
REMARK    1  A    between atoms: O_1  and  C_2
REMARK    2  A    between atoms: C_5  and  C_29
REMARK    3  A    between atoms: C_13  and  C_27
REMARK    4  A    between atoms: C_17  and  C_18
REMARK    5  A    between atoms: C_18  and  C_19
REMARK    6  A    between atoms: C_18  and  C_26
REMARK    7  A    between atoms: C_20  and  C_21
REMARK    8  A    between atoms: C_21  and  C_22
REMARK    9  A    between atoms: C_21  and  C_25
REMARK   10  A    between atoms: C_22  and  C_23
REMARK   11  A    between atoms: C_22  and  C_24
REMARK                            x       y       z     vdW  Elec       q    Type
REMARK                         _______ _______ _______ _____ _____    ______ ____
ROOT
ATOM      1  C   UNL     1       6.427  -1.073   1.301  0.00  0.00    +0.059 C 
ATOM      2  C   UNL     1       5.269  -2.069   1.329  0.00  0.00    -0.026 C 
ATOM      3  C   UNL     1       3.935  -1.359   1.587  0.00  0.00    -0.041 C 
ATOM      4  C   UNL     1       3.684  -0.059   0.729  0.00  0.00    -0.004 C 
ATOM      5  C   UNL     1       4.852   0.241  -0.225  0.00  0.00    -0.061 C 
ATOM      6  C   UNL     1       4.646   0.979  -1.327  0.00  0.00    -0.062 C 
ATOM      7  C   UNL     1       3.298   1.347  -1.776  0.00  0.00    -0.062 C 
ATOM      8  C   UNL     1       2.206   0.830  -1.198  0.00  0.00    -0.062 C 
ATOM      9  C   UNL     1       2.351  -0.232  -0.108  0.00  0.00    -0.010 C 
ATOM     10  C   UNL     1       1.062  -0.352   0.780  0.00  0.00    -0.045 C 
ATOM     11  C   UNL     1      -0.268  -0.240  -0.000  0.00  0.00    -0.046 C 
ATOM     12  C   UNL     1      -0.294   1.033  -0.884  0.00  0.00    -0.022 C 
ATOM     13  C   UNL     1       0.861   0.903  -1.882  0.00  0.00    -0.014 C 
ATOM     14  C   UNL     1       0.580   1.962  -2.943  0.00  0.00    -0.046 C 
ATOM     15  C   UNL     1      -0.954   1.980  -3.057  0.00  0.00    -0.049 C 
ATOM     16  C   UNL     1      -1.492   1.136  -1.872  0.00  0.00    -0.029 C 
ATOM     17  C   UNL     1      -0.159   2.311  -0.005  0.00  0.00    -0.059 C 
ATOM     18  C   UNL     1       6.284  -0.142   0.094  0.00  0.00    -0.005 C 
ATOM     19  C   UNL     1       3.588   1.169   1.675  0.00  0.00    -0.055 C 
ENDROOT
BRANCH   1  20
ATOM     20  O   UNL     1       6.473  -0.325   2.490  0.00  0.00    -0.391 OA
ATOM     21  H   UNL     1       6.564  -0.926   3.247  0.00  0.00    +0.000 HD
ENDBRANCH   1  20
BRANCH  16  22
ATOM     22  C   UNL     1      -2.925   1.528  -1.366  0.00  0.00    -0.022 C 
ATOM     23  C   UNL     1      -3.143   2.985  -0.912  0.00  0.00    -0.059 C 
BRANCH  22  24
ATOM     24  C   UNL     1      -3.401   0.584  -0.286  0.00  0.00    -0.085 C 
ATOM     25  C   UNL     1      -3.701  -0.697  -0.551  0.00  0.00    -0.085 C 
BRANCH  25  26
ATOM     26  C   UNL     1      -4.094  -1.658   0.549  0.00  0.00    -0.023 C 
ATOM     27  C   UNL     1      -3.894  -3.107   0.073  0.00  0.00    -0.059 C 
BRANCH  26  28
ATOM     28  C   UNL     1      -5.533  -1.362   1.068  0.00  0.00    -0.041 C 
ATOM     29  C   UNL     1      -6.624  -1.625   0.017  0.00  0.00    -0.062 C 
ATOM     30  C   UNL     1      -5.846  -2.123   2.364  0.00  0.00    -0.062 C 
ENDBRANCH  26  28
ENDBRANCH  25  26
ENDBRANCH  22  24
ENDBRANCH  16  22
TORSDOF 5
