REMARK  Name = 
REMARK  11 active torsions:
REMARK  status: ('A' for Active; 'I' for Inactive)
REMARK    1  A    between atoms: O_1  and  C_2
REMARK    2  A    between atoms: C_5  and  C_29
REMARK    3  A    between atoms: C_13  and  C_27
REMARK    4  A    between atoms: C_17  and  C_18
REMARK    5  A    between atoms: C_18  and  C_19
REMARK    6  A    between atoms: C_18  and  C_26
REMARK    7  A    between atoms: C_20  and  C_21
REMARK    8  A    between atoms: C_21  and  C_22
REMARK    9  A    between atoms: C_21  and  C_25
REMARK   10  A    between atoms: C_22  and  C_23
REMARK   11  A    between atoms: C_22  and  C_24
REMARK                            x       y       z     vdW  Elec       q    Type
REMARK                         _______ _______ _______ _____ _____    ______ ____
ROOT
ATOM      1  C   UNL     1       7.303  -0.789   0.110  0.00  0.00    +0.059 C 
ATOM      2  C   UNL     1       6.836   0.166   1.218  0.00  0.00    -0.026 C 
ATOM      3  C   UNL     1       5.324   0.032   1.453  0.00  0.00    -0.041 C 
ATOM      4  C   UNL     1       4.462   0.277   0.174  0.00  0.00    -0.008 C 
ATOM      5  C   UNL     1       5.057  -0.545  -0.985  0.00  0.00    -0.065 C 
ATOM      6  C   UNL     1       4.284  -1.165  -1.904  0.00  0.00    -0.084 C 
ATOM      7  C   UNL     1       2.803  -1.359  -1.753  0.00  0.00    -0.031 C 
ATOM      8  C   UNL     1       2.152  -0.300  -0.850  0.00  0.00    -0.031 C 
ATOM      9  C   UNL     1       2.978  -0.172   0.466  0.00  0.00    -0.029 C 
ATOM     10  C   UNL     1       2.253   0.692   1.549  0.00  0.00    -0.049 C 
ATOM     11  C   UNL     1       0.771   0.304   1.763  0.00  0.00    -0.047 C 
ATOM     12  C   UNL     1      -0.010   0.294   0.425  0.00  0.00    -0.026 C 
ATOM     13  C   UNL     1       0.707  -0.710  -0.493  0.00  0.00    -0.032 C 
ATOM     14  C   UNL     1      -0.268  -0.973  -1.629  0.00  0.00    -0.049 C 
ATOM     15  C   UNL     1      -1.647  -0.881  -0.962  0.00  0.00    -0.049 C 
ATOM     16  C   UNL     1      -1.428  -0.350   0.481  0.00  0.00    -0.029 C 
ATOM     17  C   UNL     1      -0.087   1.733  -0.179  0.00  0.00    -0.059 C 
ATOM     18  C   UNL     1       6.559  -0.520  -1.204  0.00  0.00    -0.005 C 
ATOM     19  C   UNL     1       4.534   1.780  -0.214  0.00  0.00    -0.056 C 
ENDROOT
BRANCH   1  20
ATOM     20  O   UNL     1       8.692  -0.691  -0.079  0.00  0.00    -0.391 OA
ATOM     21  H   UNL     1       9.146  -0.864   0.761  0.00  0.00    +0.000 HD
ENDBRANCH   1  20
BRANCH  16  22
ATOM     22  C   UNL     1      -2.625   0.528   0.965  0.00  0.00    -0.022 C 
ATOM     23  C   UNL     1      -2.454   1.028   2.406  0.00  0.00    -0.059 C 
BRANCH  22  24
ATOM     24  C   UNL     1      -3.902  -0.283   0.901  0.00  0.00    -0.085 C 
ATOM     25  C   UNL     1      -4.815  -0.092  -0.065  0.00  0.00    -0.085 C 
BRANCH  25  26
ATOM     26  C   UNL     1      -6.073  -0.929  -0.152  0.00  0.00    -0.023 C 
ATOM     27  C   UNL     1      -6.139  -1.616  -1.522  0.00  0.00    -0.059 C 
BRANCH  26  28
ATOM     28  C   UNL     1      -7.355  -0.104   0.160  0.00  0.00    -0.041 C 
ATOM     29  C   UNL     1      -7.572   1.087  -0.790  0.00  0.00    -0.062 C 
ATOM     30  C   UNL     1      -7.359   0.380   1.619  0.00  0.00    -0.062 C 
ENDBRANCH  26  28
ENDBRANCH  25  26
ENDBRANCH  22  24
ENDBRANCH  16  22
TORSDOF 5
