REMARK  Name = 
REMARK  9 active torsions:
REMARK  status: ('A' for Active; 'I' for Inactive)
REMARK    1  A    between atoms: C_1  and  O_2
REMARK    2  A    between atoms: O_2  and  C_3
REMARK    3  A    between atoms: C_5  and  C_6
REMARK    4  A    between atoms: C_7  and  O_15
REMARK    5  A    between atoms: C_8  and  O_13
REMARK    6  A    between atoms: C_9  and  C_10
REMARK    7  A    between atoms: C_10  and  C_11
REMARK    8  A    between atoms: C_10  and  C_12
REMARK    9  A    between atoms: O_13  and  C_14
REMARK                            x       y       z     vdW  Elec       q    Type
REMARK                         _______ _______ _______ _____ _____    ______ ____
ROOT
ATOM      1  C   UNL     1      -0.529   1.299  -0.353  0.00  0.00    +0.127 A 
ATOM      2  C   UNL     1       0.718   1.934  -0.264  0.00  0.00    -0.013 A 
ATOM      3  C   UNL     1       1.870   1.223   0.079  0.00  0.00    -0.002 A 
ATOM      4  C   UNL     1       3.185   1.955   0.159  0.00  0.00    -0.036 C 
ATOM      5  C   UNL     1       1.786  -0.160   0.342  0.00  0.00    +0.162 A 
ATOM      6  C   UNL     1       0.533  -0.823   0.258  0.00  0.00    +0.168 A 
ATOM      7  C   UNL     1      -0.631  -0.088  -0.092  0.00  0.00    +0.042 A 
ENDROOT
BRANCH   7   8
ATOM      8  C   UNL     1      -2.000  -0.772  -0.192  0.00  0.00    -0.014 C 
ATOM      9  C   UNL     1      -2.036  -1.834  -1.299  0.00  0.00    -0.058 C 
ATOM     10  C   UNL     1      -2.462  -1.341   1.157  0.00  0.00    -0.058 C 
ENDBRANCH   7   8
BRANCH   1  12
ATOM     11  C   UNL     1      -1.723   3.417  -0.985  0.00  0.00    +0.079 C 
ATOM     12  O   UNL     1      -1.685   2.023  -0.698  0.00  0.00    -0.495 OA
ENDBRANCH   1  12
BRANCH   6  13
ATOM     13  O   UNL     1       0.386  -2.201   0.509  0.00  0.00    -0.491 OA
ATOM     14  C   UNL     1       1.404  -3.127   0.872  0.00  0.00    +0.079 C 
ENDBRANCH   6  13
BRANCH   5  15
ATOM     15  O   UNL     1       2.934  -0.879   0.685  0.00  0.00    -0.503 OA
ATOM     16  H   UNL     1       3.761  -0.442   0.741  0.00  0.00    +0.000 HD
ENDBRANCH   5  15
TORSDOF 4
