REMARK  Name = 
REMARK  4 active torsions:
REMARK  status: ('A' for Active; 'I' for Inactive)
REMARK    1  A    between atoms: C_1  and  C_2
REMARK    2  A    between atoms: C_8  and  C_12
REMARK    3  A    between atoms: C_13  and  C_14
REMARK    4  A    between atoms: C_13  and  C_15
REMARK                            x       y       z     vdW  Elec       q    Type
REMARK                         _______ _______ _______ _____ _____    ______ ____
ROOT
ATOM      1  C   UNL     1      -2.054  -1.622  -1.184  0.00  0.00    -0.062 C 
ATOM      2  C   UNL     1      -1.694  -1.582   0.317  0.00  0.00    -0.037 C 
ATOM      3  C   UNL     1      -0.575  -2.613   0.651  0.00  0.00    -0.050 C 
ATOM      4  C   UNL     1       0.837  -2.033   0.865  0.00  0.00    -0.049 C 
ATOM      5  C   UNL     1       1.370  -1.290  -0.374  0.00  0.00    -0.028 C 
ATOM      6  C   UNL     1       0.742   0.049  -0.796  0.00  0.00    -0.011 C 
ATOM      7  C   UNL     1      -0.404   0.624   0.015  0.00  0.00    -0.063 C 
ATOM      8  C   UNL     1      -0.780   1.899  -0.079  0.00  0.00    -0.073 C 
ATOM      9  C   UNL     1      -2.062   2.166   0.633  0.00  0.00    -0.031 C 
ATOM     10  C   UNL     1      -2.595   0.773   0.969  0.00  0.00    -0.043 C 
ATOM     11  C   UNL     1      -1.376  -0.157   0.852  0.00  0.00    -0.017 C 
ATOM     12  C   UNL     1      -0.030   2.955  -0.840  0.00  0.00    -0.044 C 
ATOM     13  C   UNL     1       2.146   0.029  -0.176  0.00  0.00    -0.025 C 
ATOM     14  C   UNL     1       3.295   0.252  -1.166  0.00  0.00    -0.059 C 
ATOM     15  C   UNL     1       2.349   0.610   1.237  0.00  0.00    -0.059 C 
ENDROOT
TORSDOF 0
