REMARK  Name = 
REMARK  15 active torsions:
REMARK  status: ('A' for Active; 'I' for Inactive)
REMARK    1  A    between atoms: C_1  and  C_2
REMARK    2  A    between atoms: C_2  and  C_3
REMARK    3  A    between atoms: C_3  and  C_4
REMARK    4  A    between atoms: C_4  and  C_5
REMARK    5  A    between atoms: C_5  and  C_6
REMARK    6  A    between atoms: C_6  and  C_7
REMARK    7  A    between atoms: C_7  and  C_8
REMARK    8  A    between atoms: C_8  and  C_9
REMARK    9  A    between atoms: C_9  and  C_10
REMARK   10  A    between atoms: C_10  and  C_11
REMARK   11  A    between atoms: C_11  and  C_12
REMARK   12  A    between atoms: C_12  and  C_13
REMARK   13  A    between atoms: C_13  and  C_14
REMARK   14  A    between atoms: C_14  and  C_15
REMARK   15  A    between atoms: C_15  and  C_16
REMARK                            x       y       z     vdW  Elec       q    Type
REMARK                         _______ _______ _______ _____ _____    ______ ____
ROOT
ATOM      1  C   UNL     1      -0.963  -1.285   0.374  0.00  0.00    -0.053 C 
ENDROOT
BRANCH   1   2
ATOM      2  C   UNL     1       0.101  -1.898  -0.556  0.00  0.00    -0.053 C 
BRANCH   2   3
ATOM      3  C   UNL     1       1.549  -1.508  -0.186  0.00  0.00    -0.053 C 
BRANCH   3   4
ATOM      4  C   UNL     1       2.122  -0.423  -1.114  0.00  0.00    -0.053 C 
BRANCH   4   5
ATOM      5  C   UNL     1       3.600  -0.119  -0.825  0.00  0.00    -0.053 C 
BRANCH   5   6
ATOM      6  C   UNL     1       3.796   0.672   0.478  0.00  0.00    -0.053 C 
BRANCH   6   7
ATOM      7  C   UNL     1       5.266   1.068   0.664  0.00  0.00    -0.053 C 
BRANCH   7   9
ATOM      8  C   UNL     1       6.924   2.248   2.155  0.00  0.00    -0.065 C 
ATOM      9  C   UNL     1       5.463   1.853   1.966  0.00  0.00    -0.056 C 
ENDBRANCH   7   9
ENDBRANCH   6   7
ENDBRANCH   5   6
ENDBRANCH   4   5
ENDBRANCH   3   4
ENDBRANCH   2   3
ENDBRANCH   1   2
BRANCH   1  10
ATOM     10  C   UNL     1      -1.107   0.245   0.271  0.00  0.00    -0.053 C 
BRANCH  10  11
ATOM     11  C   UNL     1      -1.530   0.771  -1.116  0.00  0.00    -0.053 C 
BRANCH  11  12
ATOM     12  C   UNL     1      -2.844   0.188  -1.665  0.00  0.00    -0.053 C 
BRANCH  12  13
ATOM     13  C   UNL     1      -4.054   0.491  -0.768  0.00  0.00    -0.053 C 
BRANCH  13  14
ATOM     14  C   UNL     1      -5.360   0.033  -1.434  0.00  0.00    -0.043 C 
BRANCH  14  15
ATOM     15  C   UNL     1      -6.591   0.352  -0.576  0.00  0.00    +0.045 C 
BRANCH  15  16
ATOM     16  C   UNL     1      -6.631  -0.479   0.669  0.00  0.00    +0.305 C 
ATOM     17  O   UNL     1      -7.018  -1.678   0.617  0.00  0.00    -0.251 OA
ATOM     18  O   UNL     1      -6.209   0.062   1.879  0.00  0.00    -0.481 OA
ENDBRANCH  15  16
ENDBRANCH  14  15
ENDBRANCH  13  14
ENDBRANCH  12  13
ENDBRANCH  11  12
ENDBRANCH  10  11
ENDBRANCH   1  10
TORSDOF 14
