REMARK  Name = 
REMARK  5 active torsions:
REMARK  status: ('A' for Active; 'I' for Inactive)
REMARK    1  A    between atoms: C_1  and  C_2
REMARK    2  A    between atoms: C_2  and  C_4
REMARK    3  A    between atoms: C_7  and  C_16
REMARK    4  A    between atoms: C_10  and  C_11
REMARK    5  A    between atoms: C_10  and  O_12
REMARK                            x       y       z     vdW  Elec       q    Type
REMARK                         _______ _______ _______ _____ _____    ______ ____
ROOT
ATOM      1  C   UNL     1       1.833  -0.523  -0.108  0.00  0.00    -0.020 C 
ATOM      2  C   UNL     1       1.344  -1.272  -1.365  0.00  0.00    -0.046 C 
ATOM      3  C   UNL     1      -0.092  -1.827  -1.217  0.00  0.00    -0.047 C 
ATOM      4  C   UNL     1      -1.015  -1.002  -0.250  0.00  0.00    -0.027 C 
ATOM      5  C   UNL     1      -0.555   0.496  -0.262  0.00  0.00    -0.006 C 
ATOM      6  C   UNL     1       0.889   0.644   0.301  0.00  0.00    -0.041 C 
ATOM      7  C   UNL     1      -1.635   1.544   0.267  0.00  0.00    +0.067 C 
ATOM      8  C   UNL     1      -1.078   2.543   1.312  0.00  0.00    -0.036 C 
ATOM      9  C   UNL     1      -2.862   0.851   0.908  0.00  0.00    -0.024 C 
ATOM     10  C   UNL     1      -3.484  -0.250   0.034  0.00  0.00    -0.050 C 
ATOM     11  C   UNL     1      -2.467  -1.058  -0.795  0.00  0.00    -0.047 C 
ATOM     12  C   UNL     1      -0.954  -1.636   1.179  0.00  0.00    -0.059 C 
ENDROOT
BRANCH   1  14
ATOM     13  C   UNL     1       4.353  -0.565   0.642  0.00  0.00    -0.044 C 
ATOM     14  C   UNL     1       3.272  -0.049  -0.274  0.00  0.00    -0.077 C 
ATOM     15  C   UNL     1       3.609   0.828  -1.236  0.00  0.00    -0.099 C 
ENDBRANCH   1  14
BRANCH   7  16
ATOM     16  O   UNL     1      -2.124   2.289  -0.827  0.00  0.00    -0.389 OA
ATOM     17  H   UNL     1      -1.387   2.745  -1.264  0.00  0.00    +0.000 HD
ENDBRANCH   7  16
TORSDOF 2
