REMARK  Name = 
REMARK  10 active torsions:
REMARK  status: ('A' for Active; 'I' for Inactive)
REMARK    1  A    between atoms: O_1  and  C_2
REMARK    2  A    between atoms: C_5  and  C_8
REMARK    3  A    between atoms: C_12  and  O_13
REMARK    4  A    between atoms: C_15  and  O_31
REMARK    5  A    between atoms: C_19  and  O_20
REMARK    6  A    between atoms: O_20  and  C_21
REMARK    7  A    between atoms: C_23  and  C_24
REMARK    8  A    between atoms: C_25  and  O_30
REMARK    9  A    between atoms: C_26  and  O_29
REMARK   10  A    between atoms: C_27  and  O_28
REMARK                            x       y       z     vdW  Elec       q    Type
REMARK                         _______ _______ _______ _____ _____    ______ ____
ROOT
ATOM      1  C   UNL     1      -2.108  -0.414  -0.408  0.00  0.00    +0.158 C 
ATOM      2  O   UNL     1      -2.680   0.731   0.233  0.00  0.00    -0.480 OA
ATOM      3  C   UNL     1      -2.760   1.982  -0.394  0.00  0.00    +0.139 A 
ATOM      4  C   UNL     1      -3.556   2.978   0.178  0.00  0.00    +0.023 A 
ATOM      5  C   UNL     1      -3.664   4.229  -0.429  0.00  0.00    +0.124 A 
ATOM      6  C   UNL     1      -2.949   4.497  -1.602  0.00  0.00    +0.022 A 
ATOM      7  C   UNL     1      -2.115   3.526  -2.170  0.00  0.00    +0.134 A 
ATOM      8  C   UNL     1      -2.042   2.238  -1.581  0.00  0.00    +0.103 A 
ATOM      9  C   UNL     1      -1.244   1.116  -2.133  0.00  0.00    +0.203 C 
ATOM     10  O   UNL     1      -0.937   1.059  -3.353  0.00  0.00    -0.289 OA
ATOM     11  C   UNL     1      -0.859  -0.016  -1.219  0.00  0.00    +0.165 C 
ENDROOT
BRANCH   1  15
ATOM     12  C   UNL     1      -1.091  -3.494   2.451  0.00  0.00    +0.117 A 
ATOM     13  C   UNL     1      -0.964  -2.147   2.802  0.00  0.00    -0.020 A 
ATOM     14  C   UNL     1      -1.306  -1.146   1.887  0.00  0.00    -0.052 A 
ATOM     15  C   UNL     1      -1.785  -1.485   0.609  0.00  0.00    -0.004 A 
ATOM     16  C   UNL     1      -1.896  -2.841   0.258  0.00  0.00    -0.052 A 
ATOM     17  C   UNL     1      -1.560  -3.839   1.177  0.00  0.00    -0.020 A 
BRANCH  12  18
ATOM     18  O   UNL     1      -0.743  -4.480   3.372  0.00  0.00    -0.507 OA
ATOM     19  H   UNL     1      -0.430  -4.239   4.221  0.00  0.00    +0.000 HD
ENDBRANCH  12  18
ENDBRANCH   1  15
BRANCH   5  20
ATOM     20  O   UNL     1      -4.479   5.203   0.144  0.00  0.00    -0.507 OA
ATOM     21  H   UNL     1      -4.954   5.013   0.929  0.00  0.00    +0.000 HD
ENDBRANCH   5  20
BRANCH   7  22
ATOM     22  O   UNL     1      -1.360   3.898  -3.285  0.00  0.00    -0.506 OA
ATOM     23  H   UNL     1      -1.442   4.761  -3.640  0.00  0.00    +0.000 HD
ENDBRANCH   7  22
BRANCH  11  24
ATOM     24  O   UNL     1       0.158   0.422  -0.334  0.00  0.00    -0.333 OA
BRANCH  24  25
ATOM     25  C   UNL     1       1.448   0.202  -0.881  0.00  0.00    +0.189 C 
ATOM     26  O   UNL     1       1.775  -1.185  -0.833  0.00  0.00    -0.343 OA
ATOM     27  C   UNL     1       2.219  -1.567   0.456  0.00  0.00    +0.087 C 
ATOM     28  C   UNL     1       2.223  -3.093   0.546  0.00  0.00    -0.036 C 
ATOM     29  C   UNL     1       3.631  -0.987   0.735  0.00  0.00    +0.109 C 
ATOM     30  C   UNL     1       3.831   0.370   0.009  0.00  0.00    +0.114 C 
ATOM     31  C   UNL     1       2.479   1.094  -0.129  0.00  0.00    +0.134 C 
BRANCH  31  32
ATOM     32  O   UNL     1       2.624   2.352  -0.744  0.00  0.00    -0.384 OA
ATOM     33  H   UNL     1       2.965   2.234  -1.644  0.00  0.00    +0.000 HD
ENDBRANCH  31  32
BRANCH  30  34
ATOM     34  O   UNL     1       4.381   0.152  -1.267  0.00  0.00    -0.386 OA
ATOM     35  H   UNL     1       3.777  -0.398  -1.790  0.00  0.00    +0.000 HD
ENDBRANCH  30  34
BRANCH  29  36
ATOM     36  O   UNL     1       3.786  -0.818   2.121  0.00  0.00    -0.387 OA
ATOM     37  H   UNL     1       3.115  -0.199   2.448  0.00  0.00    +0.000 HD
ENDBRANCH  29  36
ENDBRANCH  24  25
ENDBRANCH  11  24
TORSDOF 9
