REMARK  Name = 
REMARK  6 active torsions:
REMARK  status: ('A' for Active; 'I' for Inactive)
REMARK    1  A    between atoms: C_4  and  C_22
REMARK    2  A    between atoms: C_8  and  O_9
REMARK    3  A    between atoms: C_10  and  C_14
REMARK    4  A    between atoms: C_11  and  O_13
REMARK    5  A    between atoms: C_14  and  C_15
REMARK    6  A    between atoms: C_20  and  O_21
REMARK                            x       y       z     vdW  Elec       q    Type
REMARK                         _______ _______ _______ _____ _____    ______ ____
ROOT
ATOM      1  O   UNL     1      -0.207   2.827   0.972  0.00  0.00    -0.292 OA
ATOM      2  C   UNL     1      -0.799   1.734   0.774  0.00  0.00    +0.174 C 
ATOM      3  C   UNL     1      -2.232   1.780   0.317  0.00  0.00    +0.052 C 
ATOM      4  C   UNL     1      -2.950   0.454   0.624  0.00  0.00    +0.132 C 
ATOM      5  O   UNL     1      -2.153  -0.631   0.150  0.00  0.00    -0.483 OA
ATOM      6  C   UNL     1      -0.781  -0.708   0.411  0.00  0.00    +0.139 A 
ATOM      7  C   UNL     1      -0.072   0.433   0.831  0.00  0.00    +0.101 A 
ATOM      8  C   UNL     1       1.296   0.298   1.193  0.00  0.00    +0.138 A 
ATOM      9  C   UNL     1       1.959  -0.936   0.993  0.00  0.00    +0.041 A 
ATOM     10  C   UNL     1       1.234  -2.048   0.518  0.00  0.00    +0.127 A 
ATOM     11  C   UNL     1      -0.129  -1.927   0.243  0.00  0.00    +0.023 A 
ENDROOT
BRANCH   4  12
ATOM     12  C   UNL     1      -4.353   0.334   0.050  0.00  0.00    -0.007 A 
ATOM     13  C   UNL     1      -5.018  -0.901   0.167  0.00  0.00    -0.055 A 
ATOM     14  C   UNL     1      -6.319  -1.061  -0.319  0.00  0.00    -0.061 A 
ATOM     15  C   UNL     1      -6.980   0.013  -0.917  0.00  0.00    -0.062 A 
ATOM     16  C   UNL     1      -6.343   1.250  -1.024  0.00  0.00    -0.061 A 
ATOM     17  C   UNL     1      -5.042   1.417  -0.540  0.00  0.00    -0.055 A 
ENDBRANCH   4  12
BRANCH   8  18
ATOM     18  O   UNL     1       2.020   1.344   1.774  0.00  0.00    -0.506 OA
ATOM     19  H   UNL     1       1.609   2.173   1.919  0.00  0.00    +0.000 HD
ENDBRANCH   8  18
BRANCH  10  20
ATOM     20  O   UNL     1       1.865  -3.279   0.335  0.00  0.00    -0.506 OA
ATOM     21  H   UNL     1       2.779  -3.369   0.517  0.00  0.00    +0.000 HD
ENDBRANCH  10  20
BRANCH   9  22
ATOM     22  C   UNL     1       3.438  -1.059   1.303  0.00  0.00    +0.008 C 
BRANCH  22  23
ATOM     23  C   UNL     1       4.274  -0.329   0.278  0.00  0.00    -0.001 A 
ATOM     24  C   UNL     1       4.878   0.897   0.611  0.00  0.00    -0.055 A 
ATOM     25  C   UNL     1       5.638   1.592  -0.333  0.00  0.00    -0.061 A 
ATOM     26  C   UNL     1       5.804   1.073  -1.618  0.00  0.00    -0.058 A 
ATOM     27  C   UNL     1       5.214  -0.145  -1.962  0.00  0.00    -0.020 A 
ATOM     28  C   UNL     1       4.449  -0.851  -1.021  0.00  0.00    +0.120 A 
BRANCH  28  29
ATOM     29  O   UNL     1       3.869  -2.069  -1.373  0.00  0.00    -0.506 OA
ATOM     30  H   UNL     1       3.988  -2.412  -2.237  0.00  0.00    +0.000 HD
ENDBRANCH  28  29
ENDBRANCH  22  23
ENDBRANCH   9  22
TORSDOF 6
