REMARK  Name = 
REMARK  3 active torsions:
REMARK  status: ('A' for Active; 'I' for Inactive)
REMARK    1  A    between atoms: C_1  and  C_2
REMARK    2  A    between atoms: C_12  and  C_14
REMARK    3  A    between atoms: C_12  and  C_15
REMARK                            x       y       z     vdW  Elec       q    Type
REMARK                         _______ _______ _______ _____ _____    ______ ____
ROOT
ATOM      1  C   UNL     1       3.571  -1.795   0.594  0.00  0.00    -0.044 C 
ATOM      2  C   UNL     1       2.537  -0.692   0.539  0.00  0.00    -0.077 C 
ATOM      3  C   UNL     1       2.793   0.335  -0.322  0.00  0.00    -0.085 C 
ATOM      4  C   UNL     1       1.930   1.501  -0.785  0.00  0.00    -0.031 C 
ATOM      5  C   UNL     1       1.131   2.286   0.269  0.00  0.00    -0.028 C 
ATOM      6  C   UNL     1      -0.381   2.143   0.102  0.00  0.00    -0.073 C 
ATOM      7  C   UNL     1      -1.087   3.242  -0.230  0.00  0.00    -0.099 C 
ATOM      8  C   UNL     1      -1.096   0.878   0.584  0.00  0.00    -0.016 C 
ATOM      9  C   UNL     1      -0.605  -0.442  -0.043  0.00  0.00    -0.029 C 
ATOM     10  C   UNL     1       0.095  -1.391   0.943  0.00  0.00    -0.045 C 
ATOM     11  C   UNL     1       1.378  -0.786   1.522  0.00  0.00    -0.032 C 
ATOM     12  C   UNL     1      -2.051  -0.781  -0.478  0.00  0.00    -0.031 C 
ATOM     13  C   UNL     1      -2.506   0.597   0.026  0.00  0.00    -0.041 C 
ATOM     14  C   UNL     1      -2.195  -0.938  -2.004  0.00  0.00    -0.060 C 
ATOM     15  C   UNL     1      -2.747  -1.937   0.269  0.00  0.00    -0.060 C 
ENDROOT
TORSDOF 0
