REMARK  Name = 
REMARK  14 active torsions:
REMARK  status: ('A' for Active; 'I' for Inactive)
REMARK    1  A    between atoms: C_1  and  O_2
REMARK    2  A    between atoms: O_2  and  C_3
REMARK    3  A    between atoms: C_5  and  O_6
REMARK    4  A    between atoms: C_7  and  C_13
REMARK    5  A    between atoms: C_8  and  O_12
REMARK    6  A    between atoms: C_9  and  O_10
REMARK    7  A    between atoms: O_10  and  C_11
REMARK    8  A    between atoms: C_13  and  C_15
REMARK    9  A    between atoms: C_18  and  C_32
REMARK   10  A    between atoms: C_19  and  C_27
REMARK   11  A    between atoms: C_20  and  C_21
REMARK   12  A    between atoms: C_27  and  C_28
REMARK   13  A    between atoms: C_29  and  C_30
REMARK   14  A    between atoms: C_29  and  C_31
REMARK                            x       y       z     vdW  Elec       q    Type
REMARK                         _______ _______ _______ _____ _____    ______ ____
ROOT
ATOM      1  C   UNL     1      -0.311   0.787  -0.877  0.00  0.00    +0.033 C 
ATOM      2  C   UNL     1      -1.255   1.775  -1.575  0.00  0.00    -0.024 C 
ATOM      3  C   UNL     1      -2.296   1.006  -2.332  0.00  0.00    -0.084 C 
ATOM      4  C   UNL     1      -2.823  -0.129  -1.837  0.00  0.00    -0.073 C 
ATOM      5  C   UNL     1      -2.451  -0.647  -0.444  0.00  0.00    -0.009 C 
ATOM      6  C   UNL     1      -1.119  -0.053   0.150  0.00  0.00    +0.001 C 
ATOM      7  C   UNL     1      -3.736  -0.940  -2.718  0.00  0.00    -0.043 C 
ENDROOT
BRANCH   6   8
ATOM      8  C   UNL     1      -0.261  -1.145   0.778  0.00  0.00    -0.043 A 
ATOM      9  C   UNL     1       0.407  -2.096  -0.020  0.00  0.00    -0.058 A 
ATOM     10  C   UNL     1       1.239  -3.051   0.568  0.00  0.00    -0.061 A 
ATOM     11  C   UNL     1       1.389  -3.093   1.956  0.00  0.00    -0.062 A 
ATOM     12  C   UNL     1       0.703  -2.180   2.760  0.00  0.00    -0.061 A 
ATOM     13  C   UNL     1      -0.122  -1.214   2.177  0.00  0.00    -0.058 A 
ENDBRANCH   6   8
BRANCH   1  14
ATOM     14  C   UNL     1       0.837   1.517  -0.208  0.00  0.00    +0.174 C 
ATOM     15  O   UNL     1       0.613   2.578   0.439  0.00  0.00    -0.291 OA
BRANCH  14  19
ATOM     16  C   UNL     1       4.797  -0.177  -0.289  0.00  0.00    +0.169 A 
ATOM     17  C   UNL     1       4.115   0.123  -1.482  0.00  0.00    +0.026 A 
ATOM     18  C   UNL     1       2.837   0.690  -1.456  0.00  0.00    +0.135 A 
ATOM     19  C   UNL     1       2.205   0.950  -0.225  0.00  0.00    +0.104 A 
ATOM     20  C   UNL     1       2.891   0.661   0.980  0.00  0.00    +0.176 A 
ATOM     21  C   UNL     1       4.187   0.123   0.946  0.00  0.00    +0.204 A 
BRANCH  16  23
ATOM     22  C   UNL     1       6.752  -1.199  -1.481  0.00  0.00    +0.079 C 
ATOM     23  O   UNL     1       6.052  -0.807  -0.304  0.00  0.00    -0.491 OA
ENDBRANCH  16  23
BRANCH  18  24
ATOM     24  O   UNL     1       2.195   1.000  -2.658  0.00  0.00    -0.506 OA
ATOM     25  H   UNL     1       2.620   0.825  -3.474  0.00  0.00    +0.000 HD
ENDBRANCH  18  24
BRANCH  21  26
ATOM     26  O   UNL     1       4.824  -0.125   2.172  0.00  0.00    -0.488 OA
ATOM     27  C   UNL     1       6.182   0.213   2.447  0.00  0.00    +0.079 C 
ENDBRANCH  21  26
BRANCH  20  28
ATOM     28  O   UNL     1       2.315   0.899   2.232  0.00  0.00    -0.503 OA
ATOM     29  H   UNL     1       1.452   1.258   2.291  0.00  0.00    +0.000 HD
ENDBRANCH  20  28
ENDBRANCH  14  19
ENDBRANCH   1  14
BRANCH   5  30
ATOM     30  C   UNL     1      -3.643  -0.482   0.537  0.00  0.00    -0.027 C 
BRANCH  30  31
ATOM     31  C   UNL     1      -4.082   0.963   0.684  0.00  0.00    -0.085 C 
ATOM     32  C   UNL     1      -5.278   1.463   0.288  0.00  0.00    -0.080 C 
ATOM     33  C   UNL     1      -5.553   2.941   0.425  0.00  0.00    -0.044 C 
ATOM     34  C   UNL     1      -6.372   0.592  -0.277  0.00  0.00    -0.044 C 
ENDBRANCH  30  31
ENDBRANCH   5  30
TORSDOF 9
