REMARK  Name = 
REMARK  17 active torsions:
REMARK  status: ('A' for Active; 'I' for Inactive)
REMARK    1  A    between atoms: C_1  and  O_2
REMARK    2  A    between atoms: O_2  and  C_3
REMARK    3  A    between atoms: C_4  and  C_5
REMARK    4  A    between atoms: C_5  and  C_6
REMARK    5  A    between atoms: C_11  and  O_12
REMARK    6  A    between atoms: C_13  and  O_14
REMARK    7  A    between atoms: C_15  and  C_29
REMARK    8  A    between atoms: C_16  and  O_28
REMARK    9  A    between atoms: C_17  and  C_18
REMARK   10  A    between atoms: C_18  and  C_20
REMARK   11  A    between atoms: C_20  and  C_21
REMARK   12  A    between atoms: C_21  and  C_22
REMARK   13  A    between atoms: C_29  and  C_30
REMARK   14  A    between atoms: C_32  and  C_37
REMARK   15  A    between atoms: C_35  and  O_36
REMARK   16  A    between atoms: C_37  and  C_38
REMARK   17  A    between atoms: C_43  and  O_44
REMARK                            x       y       z     vdW  Elec       q    Type
REMARK                         _______ _______ _______ _____ _____    ______ ____
ROOT
ATOM      1  C   UNL     1      -2.118   1.232   1.940  0.00  0.00    +0.141 A 
ATOM      2  C   UNL     1      -0.952   1.936   1.577  0.00  0.00    +0.041 A 
ATOM      3  C   UNL     1       0.307   1.286   1.675  0.00  0.00    +0.131 A 
ATOM      4  C   UNL     1       0.377  -0.072   2.054  0.00  0.00    +0.041 A 
ATOM      5  C   UNL     1      -0.796  -0.756   2.435  0.00  0.00    +0.138 A 
ATOM      6  C   UNL     1      -2.045  -0.107   2.366  0.00  0.00    +0.101 A 
ENDROOT
BRANCH   1   8
ATOM      7  C   UNL     1      -4.043   2.326   3.029  0.00  0.00    +0.079 C 
ATOM      8  O   UNL     1      -3.359   1.875   1.866  0.00  0.00    -0.494 OA
ENDBRANCH   1   8
BRANCH   5   9
ATOM      9  O   UNL     1      -0.701  -2.085   2.864  0.00  0.00    -0.506 OA
ATOM     10  H   UNL     1       0.135  -2.505   2.905  0.00  0.00    +0.000 HD
ENDBRANCH   5   9
BRANCH   6  11
ATOM     11  C   UNL     1      -3.287  -0.845   2.669  0.00  0.00    +0.171 C 
ATOM     12  O   UNL     1      -3.498  -1.261   3.840  0.00  0.00    -0.292 OA
BRANCH  11  13
ATOM     13  C   UNL     1      -4.266  -1.168   1.577  0.00  0.00    +0.015 C 
BRANCH  13  14
ATOM     14  C   UNL     1      -3.861  -2.462   0.866  0.00  0.00    -0.021 C 
BRANCH  14  15
ATOM     15  C   UNL     1      -4.795  -2.749  -0.278  0.00  0.00    -0.047 A 
ATOM     16  C   UNL     1      -4.512  -2.257  -1.564  0.00  0.00    -0.059 A 
ATOM     17  C   UNL     1      -5.398  -2.495  -2.619  0.00  0.00    -0.062 A 
ATOM     18  C   UNL     1      -6.576  -3.215  -2.397  0.00  0.00    -0.062 A 
ATOM     19  C   UNL     1      -6.870  -3.695  -1.117  0.00  0.00    -0.062 A 
ATOM     20  C   UNL     1      -5.987  -3.460  -0.059  0.00  0.00    -0.059 A 
ENDBRANCH  14  15
ENDBRANCH  13  14
ENDBRANCH  11  13
ENDBRANCH   6  11
BRANCH   3  21
ATOM     21  O   UNL     1       1.510   1.951   1.411  0.00  0.00    -0.506 OA
ATOM     22  H   UNL     1       1.501   2.853   1.157  0.00  0.00    +0.000 HD
ENDBRANCH   3  21
BRANCH   4  23
ATOM     23  C   UNL     1       1.720  -0.787   2.073  0.00  0.00    +0.008 C 
BRANCH  23  24
ATOM     24  C   UNL     1       2.409  -0.754   0.722  0.00  0.00    -0.001 A 
ATOM     25  C   UNL     1       3.579   0.017   0.573  0.00  0.00    -0.051 A 
ATOM     26  C   UNL     1       4.227   0.118  -0.666  0.00  0.00    -0.042 A 
ATOM     27  C   UNL     1       3.710  -0.578  -1.768  0.00  0.00    -0.055 A 
ATOM     28  C   UNL     1       2.562  -1.357  -1.633  0.00  0.00    -0.020 A 
ATOM     29  C   UNL     1       1.910  -1.462  -0.400  0.00  0.00    +0.120 A 
BRANCH  29  30
ATOM     30  O   UNL     1       0.783  -2.281  -0.327  0.00  0.00    -0.506 OA
ATOM     31  H   UNL     1       0.482  -2.733  -1.090  0.00  0.00    +0.000 HD
ENDBRANCH  29  30
BRANCH  26  32
ATOM     32  C   UNL     1       5.488   0.931  -0.810  0.00  0.00    +0.001 C 
BRANCH  32  33
ATOM     33  C   UNL     1       6.707   0.069  -0.571  0.00  0.00    -0.002 A 
ATOM     34  C   UNL     1       7.214  -0.678  -1.651  0.00  0.00    -0.055 A 
ATOM     35  C   UNL     1       8.311  -1.525  -1.482  0.00  0.00    -0.061 A 
ATOM     36  C   UNL     1       8.914  -1.645  -0.232  0.00  0.00    -0.058 A 
ATOM     37  C   UNL     1       8.423  -0.918   0.853  0.00  0.00    -0.020 A 
ATOM     38  C   UNL     1       7.324  -0.062   0.702  0.00  0.00    +0.120 A 
BRANCH  38  39
ATOM     39  O   UNL     1       6.890   0.634   1.832  0.00  0.00    -0.506 OA
ATOM     40  H   UNL     1       7.329   0.517   2.652  0.00  0.00    +0.000 HD
ENDBRANCH  38  39
ENDBRANCH  32  33
ENDBRANCH  26  32
ENDBRANCH  23  24
ENDBRANCH   4  23
BRANCH   2  41
ATOM     41  C   UNL     1      -1.103   3.334   0.998  0.00  0.00    +0.008 C 
BRANCH  41  42
ATOM     42  C   UNL     1      -1.434   3.259  -0.480  0.00  0.00    -0.001 A 
ATOM     43  C   UNL     1      -0.418   2.837  -1.361  0.00  0.00    -0.055 A 
ATOM     44  C   UNL     1      -0.672   2.667  -2.722  0.00  0.00    -0.061 A 
ATOM     45  C   UNL     1      -1.945   2.916  -3.231  0.00  0.00    -0.058 A 
ATOM     46  C   UNL     1      -2.963   3.348  -2.381  0.00  0.00    -0.020 A 
ATOM     47  C   UNL     1      -2.725   3.533  -1.012  0.00  0.00    +0.120 A 
BRANCH  47  48
ATOM     48  O   UNL     1      -3.795   3.994  -0.240  0.00  0.00    -0.506 OA
ATOM     49  H   UNL     1      -4.626   4.159  -0.641  0.00  0.00    +0.000 HD
ENDBRANCH  47  48
ENDBRANCH  41  42
ENDBRANCH   2  41
TORSDOF 16
