REMARK  Name = 
REMARK  12 active torsions:
REMARK  status: ('A' for Active; 'I' for Inactive)
REMARK    1  A    between atoms: O_1  and  C_2
REMARK    2  A    between atoms: C_5  and  C_36
REMARK    3  A    between atoms: C_7  and  C_8
REMARK    4  A    between atoms: C_8  and  C_9
REMARK    5  A    between atoms: C_10  and  O_11
REMARK    6  A    between atoms: C_12  and  C_13
REMARK    7  A    between atoms: C_13  and  C_14
REMARK    8  A    between atoms: C_19  and  O_20
REMARK    9  A    between atoms: C_21  and  O_35
REMARK   10  A    between atoms: C_25  and  C_29
REMARK   11  A    between atoms: C_36  and  C_37
REMARK   12  A    between atoms: C_42  and  O_43
REMARK                            x       y       z     vdW  Elec       q    Type
REMARK                         _______ _______ _______ _____ _____    ______ ____
ROOT
ATOM      1  C   UNL     1      -1.010   0.274   0.027  0.00  0.00    +0.041 A 
ATOM      2  C   UNL     1      -1.278   1.665   0.066  0.00  0.00    +0.131 A 
ATOM      3  C   UNL     1      -2.482   2.144   0.623  0.00  0.00    +0.041 A 
ATOM      4  C   UNL     1      -3.440   1.235   1.118  0.00  0.00    +0.138 A 
ATOM      5  C   UNL     1      -3.168  -0.153   1.106  0.00  0.00    +0.101 A 
ATOM      6  C   UNL     1      -1.966  -0.623   0.541  0.00  0.00    +0.142 A 
ATOM      7  O   UNL     1      -1.717  -2.004   0.483  0.00  0.00    -0.483 OA
ATOM      8  C   UNL     1      -2.484  -2.974   1.203  0.00  0.00    +0.132 C 
ATOM      9  C   UNL     1      -3.967  -2.587   1.201  0.00  0.00    +0.052 C 
ATOM     10  C   UNL     1      -4.086  -1.172   1.673  0.00  0.00    +0.174 C 
ATOM     11  O   UNL     1      -4.900  -0.892   2.593  0.00  0.00    -0.292 OA
ENDROOT
BRANCH   8  12
ATOM     12  C   UNL     1      -2.286  -4.343   0.598  0.00  0.00    -0.007 A 
ATOM     13  C   UNL     1      -2.206  -5.476   1.426  0.00  0.00    -0.055 A 
ATOM     14  C   UNL     1      -2.040  -6.747   0.869  0.00  0.00    -0.061 A 
ATOM     15  C   UNL     1      -1.963  -6.898  -0.518  0.00  0.00    -0.062 A 
ATOM     16  C   UNL     1      -2.062  -5.781  -1.351  0.00  0.00    -0.061 A 
ATOM     17  C   UNL     1      -2.229  -4.508  -0.798  0.00  0.00    -0.055 A 
ENDBRANCH   8  12
BRANCH   2  18
ATOM     18  O   UNL     1      -0.371   2.596  -0.450  0.00  0.00    -0.506 OA
ATOM     19  H   UNL     1       0.437   2.305  -0.826  0.00  0.00    +0.000 HD
ENDBRANCH   2  18
BRANCH   4  20
ATOM     20  O   UNL     1      -4.661   1.738   1.580  0.00  0.00    -0.506 OA
ATOM     21  H   UNL     1      -4.818   2.662   1.578  0.00  0.00    +0.000 HD
ENDBRANCH   4  20
BRANCH   1  22
ATOM     22  C   UNL     1       0.299  -0.261  -0.534  0.00  0.00    +0.008 C 
BRANCH  22  28
ATOM     23  C   UNL     1       1.519  -0.469   1.698  0.00  0.00    +0.120 A 
ATOM     24  C   UNL     1       2.622  -0.187   2.516  0.00  0.00    -0.020 A 
ATOM     25  C   UNL     1       3.689   0.567   2.026  0.00  0.00    -0.055 A 
ATOM     26  C   UNL     1       3.672   1.044   0.709  0.00  0.00    -0.042 A 
ATOM     27  C   UNL     1       2.570   0.761  -0.113  0.00  0.00    -0.051 A 
ATOM     28  C   UNL     1       1.472   0.031   0.379  0.00  0.00    -0.001 A 
BRANCH  23  29
ATOM     29  O   UNL     1       0.478  -1.252   2.194  0.00  0.00    -0.506 OA
ATOM     30  H   UNL     1       0.515  -1.581   3.070  0.00  0.00    +0.000 HD
ENDBRANCH  23  29
BRANCH  26  31
ATOM     31  C   UNL     1       4.854   1.803   0.167  0.00  0.00    +0.001 C 
BRANCH  31  32
ATOM     32  C   UNL     1       5.965   0.852  -0.202  0.00  0.00    -0.002 A 
ATOM     33  C   UNL     1       6.961   0.542   0.742  0.00  0.00    -0.055 A 
ATOM     34  C   UNL     1       7.978  -0.364   0.428  0.00  0.00    -0.061 A 
ATOM     35  C   UNL     1       8.006  -0.977  -0.826  0.00  0.00    -0.058 A 
ATOM     36  C   UNL     1       7.016  -0.687  -1.768  0.00  0.00    -0.020 A 
ATOM     37  C   UNL     1       5.991   0.222  -1.464  0.00  0.00    +0.120 A 
BRANCH  37  38
ATOM     38  O   UNL     1       5.002   0.497  -2.408  0.00  0.00    -0.506 OA
ATOM     39  H   UNL     1       5.023   0.077  -3.245  0.00  0.00    +0.000 HD
ENDBRANCH  37  38
ENDBRANCH  31  32
ENDBRANCH  26  31
ENDBRANCH  22  28
ENDBRANCH   1  22
BRANCH   3  40
ATOM     40  C   UNL     1      -2.767   3.636   0.629  0.00  0.00    +0.008 C 
BRANCH  40  41
ATOM     41  C   UNL     1      -3.240   4.110  -0.731  0.00  0.00    -0.001 A 
ATOM     42  C   UNL     1      -4.545   3.762  -1.131  0.00  0.00    -0.055 A 
ATOM     43  C   UNL     1      -5.035   4.137  -2.383  0.00  0.00    -0.061 A 
ATOM     44  C   UNL     1      -4.232   4.865  -3.258  0.00  0.00    -0.058 A 
ATOM     45  C   UNL     1      -2.939   5.226  -2.883  0.00  0.00    -0.020 A 
ATOM     46  C   UNL     1      -2.432   4.868  -1.627  0.00  0.00    +0.120 A 
BRANCH  46  47
ATOM     47  O   UNL     1      -1.137   5.296  -1.323  0.00  0.00    -0.506 OA
ATOM     48  H   UNL     1      -0.649   5.792  -1.949  0.00  0.00    +0.000 HD
ENDBRANCH  46  47
ENDBRANCH  40  41
ENDBRANCH   3  40
TORSDOF 12
