REMARK  Name = 
REMARK  6 active torsions:
REMARK  status: ('A' for Active; 'I' for Inactive)
REMARK    1  A    between atoms: C_1  and  C_2
REMARK    2  A    between atoms: C_2  and  C_3
REMARK    3  A    between atoms: C_2  and  C_16
REMARK    4  A    between atoms: C_6  and  C_14
REMARK    5  A    between atoms: C_6  and  O_15
REMARK    6  A    between atoms: C_10  and  C_13
REMARK                            x       y       z     vdW  Elec       q    Type
REMARK                         _______ _______ _______ _____ _____    ______ ____
ROOT
ATOM      1  C   UNL     1       1.596   0.072   0.387  0.00  0.00    -0.038 C 
ATOM      2  C   UNL     1       1.338  -1.409  -0.026  0.00  0.00    -0.047 C 
ATOM      3  C   UNL     1       0.205  -1.598  -1.051  0.00  0.00    -0.024 C 
ATOM      4  C   UNL     1      -1.263  -1.540  -0.488  0.00  0.00    +0.067 C 
ATOM      5  C   UNL     1      -1.376  -0.922   0.962  0.00  0.00    -0.002 C 
ATOM      6  C   UNL     1      -0.810   0.506   1.192  0.00  0.00    -0.014 C 
ATOM      7  C   UNL     1       0.341   0.977   0.283  0.00  0.00    -0.043 C 
ATOM      8  C   UNL     1      -2.031   1.372   1.127  0.00  0.00    -0.073 C 
ATOM      9  C   UNL     1      -3.137   0.656   1.296  0.00  0.00    -0.084 C 
ATOM     10  C   UNL     1      -2.841  -0.796   1.436  0.00  0.00    -0.029 C 
ATOM     11  C   UNL     1      -2.015   2.875   1.135  0.00  0.00    -0.044 C 
ATOM     12  C   UNL     1      -2.157  -0.782  -1.512  0.00  0.00    -0.036 C 
ENDROOT
BRANCH   1  14
ATOM     13  C   UNL     1       4.157   0.140   0.139  0.00  0.00    -0.062 C 
ATOM     14  C   UNL     1       2.818   0.728  -0.338  0.00  0.00    -0.044 C 
ATOM     15  C   UNL     1       2.729   0.678  -1.872  0.00  0.00    -0.062 C 
ENDBRANCH   1  14
BRANCH   4  16
ATOM     16  O   UNL     1      -1.740  -2.865  -0.381  0.00  0.00    -0.389 OA
ATOM     17  H   UNL     1      -1.194  -3.355   0.254  0.00  0.00    +0.000 HD
ENDBRANCH   4  16
TORSDOF 2
