REMARK  Name = 
REMARK  9 active torsions:
REMARK  status: ('A' for Active; 'I' for Inactive)
REMARK    1  A    between atoms: C_1  and  O_2
REMARK    2  A    between atoms: O_2  and  C_3
REMARK    3  A    between atoms: C_4  and  O_5
REMARK    4  A    between atoms: C_7  and  C_11
REMARK    5  A    between atoms: C_9  and  O_10
REMARK    6  A    between atoms: C_17  and  C_18
REMARK    7  A    between atoms: C_17  and  C_19
REMARK    8  A    between atoms: C_23  and  O_29
REMARK    9  A    between atoms: C_27  and  O_28
REMARK                            x       y       z     vdW  Elec       q    Type
REMARK                         _______ _______ _______ _____ _____    ______ ____
ROOT
ATOM      1  C   UNL     1       1.497  -0.701  -0.182  0.00  0.00    +0.181 A 
ATOM      2  O   UNL     1       0.515   0.114   0.185  0.00  0.00    -0.451 OA
ATOM      3  C   UNL     1      -0.764  -0.111  -0.090  0.00  0.00    +0.147 A 
ATOM      4  C   UNL     1      -1.715   0.799   0.372  0.00  0.00    +0.024 A 
ATOM      5  C   UNL     1      -3.068   0.588   0.128  0.00  0.00    +0.136 A 
ATOM      6  O   UNL     1      -4.013   1.496   0.618  0.00  0.00    -0.481 OA
ATOM      7  C   UNL     1      -5.418   1.214   0.668  0.00  0.00    +0.124 C 
ATOM      8  C   UNL     1      -5.759   0.662   2.058  0.00  0.00    -0.021 C 
ATOM      9  C   UNL     1      -6.180   2.522   0.425  0.00  0.00    -0.021 C 
ATOM     10  C   UNL     1      -5.819   0.194  -0.380  0.00  0.00    -0.041 C 
ATOM     11  C   UNL     1      -4.927  -0.634  -0.932  0.00  0.00    -0.048 C 
ATOM     12  C   UNL     1      -3.486  -0.510  -0.631  0.00  0.00    +0.059 A 
ATOM     13  C   UNL     1      -2.542  -1.418  -1.151  0.00  0.00    +0.142 A 
ATOM     14  C   UNL     1      -1.160  -1.254  -0.830  0.00  0.00    +0.110 A 
ATOM     15  C   UNL     1      -0.145  -2.182  -1.167  0.00  0.00    +0.238 A 
ATOM     16  O   UNL     1      -0.418  -3.286  -1.708  0.00  0.00    -0.283 OA
ATOM     17  C   UNL     1       1.194  -1.899  -0.850  0.00  0.00    +0.208 A 
ENDROOT
BRANCH   1  21
ATOM     18  C   UNL     1       5.514   0.473   0.843  0.00  0.00    +0.203 A 
ATOM     19  C   UNL     1       5.242  -0.087  -0.430  0.00  0.00    +0.163 A 
ATOM     20  C   UNL     1       3.934  -0.471  -0.759  0.00  0.00    -0.005 A 
ATOM     21  C   UNL     1       2.886  -0.321   0.162  0.00  0.00    +0.028 A 
ATOM     22  C   UNL     1       3.155   0.256   1.409  0.00  0.00    -0.005 A 
ATOM     23  C   UNL     1       4.453   0.643   1.754  0.00  0.00    +0.163 A 
BRANCH  18  25
ATOM     24  C   UNL     1       7.997   0.789   0.497  0.00  0.00    +0.079 C 
ATOM     25  O   UNL     1       6.797   0.879   1.256  0.00  0.00    -0.489 OA
ENDBRANCH  18  25
BRANCH  19  26
ATOM     26  O   UNL     1       6.252  -0.261  -1.375  0.00  0.00    -0.503 OA
ATOM     27  H   UNL     1       7.131  -0.009  -1.172  0.00  0.00    +0.000 HD
ENDBRANCH  19  26
BRANCH  23  28
ATOM     28  O   UNL     1       4.669   1.198   3.015  0.00  0.00    -0.503 OA
ATOM     29  H   UNL     1       3.952   1.304   3.610  0.00  0.00    +0.000 HD
ENDBRANCH  23  28
ENDBRANCH   1  21
BRANCH  17  30
ATOM     30  O   UNL     1       2.209  -2.810  -1.157  0.00  0.00    -0.501 OA
ATOM     31  H   UNL     1       2.003  -3.608  -1.603  0.00  0.00    +0.000 HD
ENDBRANCH  17  30
BRANCH  13  32
ATOM     32  O   UNL     1      -3.014  -2.430  -1.995  0.00  0.00    -0.505 OA
ATOM     33  H   UNL     1      -3.930  -2.499  -2.178  0.00  0.00    +0.000 HD
ENDBRANCH  13  32
TORSDOF 6
