REMARK  Name = 
REMARK  5 active torsions:
REMARK  status: ('A' for Active; 'I' for Inactive)
REMARK    1  A    between atoms: C_2  and  C_3
REMARK    2  A    between atoms: C_6  and  C_17
REMARK    3  A    between atoms: C_11  and  O_16
REMARK    4  A    between atoms: C_12  and  C_15
REMARK    5  A    between atoms: C_13  and  O_14
REMARK                            x       y       z     vdW  Elec       q    Type
REMARK                         _______ _______ _______ _____ _____    ______ ____
ROOT
ATOM      1  C   UNL     1      -1.632  -1.433  -0.700  0.00  0.00    +0.098 A 
ATOM      2  C   UNL     1      -0.830  -0.322  -0.384  0.00  0.00    +0.149 A 
ATOM      3  O   UNL     1       0.565  -0.477  -0.305  0.00  0.00    -0.482 OA
ATOM      4  C   UNL     1       1.475   0.625  -0.260  0.00  0.00    +0.132 C 
ATOM      5  C   UNL     1       0.907   1.754   0.606  0.00  0.00    +0.052 C 
ATOM      6  C   UNL     1      -0.482   2.063   0.141  0.00  0.00    +0.174 C 
ATOM      7  O   UNL     1      -0.809   3.259  -0.081  0.00  0.00    -0.292 OA
ATOM      8  C   UNL     1      -1.411   0.937  -0.134  0.00  0.00    +0.102 A 
ATOM      9  C   UNL     1      -2.818   1.077  -0.161  0.00  0.00    +0.137 A 
ATOM     10  C   UNL     1      -3.625  -0.017  -0.541  0.00  0.00    +0.034 A 
ATOM     11  C   UNL     1      -3.032  -1.275  -0.798  0.00  0.00    +0.137 A 
ATOM     12  C   UNL     1      -5.125   0.142  -0.630  0.00  0.00    -0.033 C 
ENDROOT
BRANCH   4  13
ATOM     13  C   UNL     1       2.813   0.168   0.268  0.00  0.00    -0.007 A 
ATOM     14  C   UNL     1       4.002   0.643  -0.311  0.00  0.00    -0.055 A 
ATOM     15  C   UNL     1       5.243   0.244   0.195  0.00  0.00    -0.061 A 
ATOM     16  C   UNL     1       5.307  -0.623   1.289  0.00  0.00    -0.062 A 
ATOM     17  C   UNL     1       4.131  -1.089   1.882  0.00  0.00    -0.061 A 
ATOM     18  C   UNL     1       2.888  -0.692   1.379  0.00  0.00    -0.055 A 
ENDBRANCH   4  13
BRANCH   1  20
ATOM     19  O   UNL     1      -1.639  -3.782  -1.207  0.00  0.00    -0.295 OA
ATOM     20  C   UNL     1      -0.976  -2.744  -0.942  0.00  0.00    +0.157 C 
ENDBRANCH   1  20
BRANCH  11  21
ATOM     21  O   UNL     1      -3.818  -2.380  -1.144  0.00  0.00    -0.506 OA
ATOM     22  H   UNL     1      -4.749  -2.290  -1.213  0.00  0.00    +0.000 HD
ENDBRANCH  11  21
BRANCH   9  23
ATOM     23  O   UNL     1      -3.444   2.270   0.218  0.00  0.00    -0.506 OA
ATOM     24  H   UNL     1      -2.928   3.009   0.474  0.00  0.00    +0.000 HD
ENDBRANCH   9  23
TORSDOF 4
