REMARK  Name = 
REMARK  0 active torsions:
REMARK  status: ('A' for Active; 'I' for Inactive)
REMARK                            x       y       z     vdW  Elec       q    Type
REMARK                         _______ _______ _______ _____ _____    ______ ____
ROOT
ATOM      1  O   UNL     1       4.307   2.367  -0.710  0.00  0.00    -0.266 OA
ATOM      2  C   UNL     1       3.137   1.982  -0.449  0.00  0.00    +0.291 C 
ATOM      3  C   UNL     1       1.920   2.773  -0.605  0.00  0.00    +0.250 C 
ATOM      4  O   UNL     1       1.853   3.971  -0.984  0.00  0.00    -0.282 OA
ATOM      5  C   UNL     1       0.808   1.867  -0.286  0.00  0.00    +0.057 A 
ATOM      6  C   UNL     1       1.385   0.664   0.042  0.00  0.00    +0.056 A 
ATOM      7  N   UNL     1       2.803   0.674   0.005  0.00  0.00    -0.263 N 
ATOM      8  C   UNL     1       3.558  -0.562  -0.165  0.00  0.00    +0.024 C 
ATOM      9  C   UNL     1       2.871  -1.709   0.614  0.00  0.00    -0.011 C 
ATOM     10  C   UNL     1       1.352  -1.699   0.479  0.00  0.00    -0.033 A 
ATOM     11  C   UNL     1       0.652  -0.485   0.244  0.00  0.00    +0.012 A 
ATOM     12  C   UNL     1      -0.772  -0.419   0.172  0.00  0.00    +0.037 A 
ATOM     13  C   UNL     1      -1.404   0.845  -0.115  0.00  0.00    -0.006 A 
ATOM     14  C   UNL     1      -0.587   2.002  -0.364  0.00  0.00    -0.004 A 
ATOM     15  C   UNL     1      -1.183   3.234  -0.679  0.00  0.00    -0.053 A 
ATOM     16  C   UNL     1      -2.570   3.350  -0.741  0.00  0.00    -0.061 A 
ATOM     17  C   UNL     1      -3.376   2.245  -0.488  0.00  0.00    -0.061 A 
ATOM     18  C   UNL     1      -2.807   1.008  -0.178  0.00  0.00    -0.053 A 
ATOM     19  C   UNL     1      -1.442  -1.648   0.375  0.00  0.00    +0.175 A 
ATOM     20  C   UNL     1      -0.768  -2.811   0.622  0.00  0.00    +0.167 A 
ATOM     21  C   UNL     1       0.619  -2.878   0.688  0.00  0.00    -0.012 A 
ATOM     22  O   UNL     1      -1.663  -3.851   0.782  0.00  0.00    -0.453 OA
ATOM     23  C   UNL     1      -2.984  -3.327   0.624  0.00  0.00    +0.233 C 
ATOM     24  O   UNL     1      -2.796  -1.932   0.367  0.00  0.00    -0.452 OA
ENDROOT
TORSDOF 0
