REMARK  Name = 
REMARK  0 active torsions:
REMARK  status: ('A' for Active; 'I' for Inactive)
REMARK                            x       y       z     vdW  Elec       q    Type
REMARK                         _______ _______ _______ _____ _____    ______ ____
ROOT
ATOM      1  O   UNL     1       0.967  -3.684   0.544  0.00  0.00    -0.285 OA
ATOM      2  C   UNL     1       0.677  -2.470   0.364  0.00  0.00    +0.212 C 
ATOM      3  C   UNL     1       1.739  -1.460   0.184  0.00  0.00    +0.032 A 
ATOM      4  C   UNL     1       3.090  -1.853   0.213  0.00  0.00    -0.050 A 
ATOM      5  C   UNL     1       4.103  -0.913   0.045  0.00  0.00    -0.061 A 
ATOM      6  C   UNL     1       3.781   0.426  -0.153  0.00  0.00    -0.061 A 
ATOM      7  C   UNL     1       2.446   0.834  -0.185  0.00  0.00    -0.053 A 
ATOM      8  C   UNL     1       1.395  -0.099  -0.017  0.00  0.00    -0.003 A 
ATOM      9  C   UNL     1      -0.062   0.293  -0.044  0.00  0.00    +0.038 A 
ATOM     10  C   UNL     1      -1.070  -0.705   0.133  0.00  0.00    +0.023 A 
ATOM     11  C   UNL     1      -0.730  -2.056   0.333  0.00  0.00    +0.119 A 
ATOM     12  N   UNL     1      -1.706  -2.990   0.499  0.00  0.00    -0.251 NA
ATOM     13  C   UNL     1      -3.025  -2.672   0.481  0.00  0.00    +0.029 A 
ATOM     14  C   UNL     1      -3.424  -1.351   0.287  0.00  0.00    -0.036 A 
ATOM     15  C   UNL     1      -2.455  -0.357   0.112  0.00  0.00    -0.010 A 
ATOM     16  C   UNL     1      -2.845   0.978  -0.084  0.00  0.00    -0.008 A 
ATOM     17  C   UNL     1      -1.852   1.928  -0.254  0.00  0.00    +0.167 A 
ATOM     18  C   UNL     1      -0.525   1.614  -0.236  0.00  0.00    +0.175 A 
ATOM     19  O   UNL     1       0.191   2.783  -0.432  0.00  0.00    -0.452 OA
ATOM     20  C   UNL     1      -0.723   3.875  -0.579  0.00  0.00    +0.233 C 
ATOM     21  O   UNL     1      -2.018   3.284  -0.458  0.00  0.00    -0.453 OA
ENDROOT
TORSDOF 0
