REMARK  Name = 
REMARK  9 active torsions:
REMARK  status: ('A' for Active; 'I' for Inactive)
REMARK    1  A    between atoms: C_1  and  C_2
REMARK    2  A    between atoms: C_2  and  C_4
REMARK    3  A    between atoms: C_7  and  C_31
REMARK    4  A    between atoms: C_13  and  C_18
REMARK    5  A    between atoms: C_14  and  C_15
REMARK    6  A    between atoms: C_22  and  C_23
REMARK    7  A    between atoms: C_26  and  O_30
REMARK    8  A    between atoms: C_27  and  C_28
REMARK    9  A    between atoms: C_27  and  C_29
REMARK                            x       y       z     vdW  Elec       q    Type
REMARK                         _______ _______ _______ _____ _____    ______ ____
ROOT
ATOM      1  C   UNL     1      -4.484   0.136  -0.881  0.00  0.00    -0.017 C 
ATOM      2  C   UNL     1      -5.799  -0.122  -0.102  0.00  0.00    -0.046 C 
ATOM      3  C   UNL     1      -5.396  -0.509   1.332  0.00  0.00    -0.047 C 
ATOM      4  C   UNL     1      -3.933  -0.951   1.217  0.00  0.00    -0.028 C 
ATOM      5  C   UNL     1      -3.392   0.072   0.204  0.00  0.00    -0.026 C 
ATOM      6  C   UNL     1      -1.913  -0.234  -0.163  0.00  0.00    -0.031 C 
ATOM      7  C   UNL     1      -1.368   0.641  -1.305  0.00  0.00    -0.049 C 
ATOM      8  C   UNL     1       0.036   0.184  -1.716  0.00  0.00    -0.049 C 
ATOM      9  C   UNL     1       1.033   0.213  -0.524  0.00  0.00    -0.029 C 
ATOM     10  C   UNL     1       0.519  -0.670   0.698  0.00  0.00    -0.023 C 
ATOM     11  C   UNL     1      -0.973  -0.177   1.122  0.00  0.00    -0.023 C 
ATOM     12  C   UNL     1      -0.937   1.283   1.719  0.00  0.00    -0.059 C 
ATOM     13  C   UNL     1      -1.603  -1.070   2.265  0.00  0.00    -0.046 C 
ATOM     14  C   UNL     1      -3.116  -0.829   2.524  0.00  0.00    -0.047 C 
ATOM     15  C   UNL     1       0.508  -2.194   0.332  0.00  0.00    -0.059 C 
ATOM     16  C   UNL     1       1.528  -0.504   1.880  0.00  0.00    -0.047 C 
ATOM     17  C   UNL     1       2.990  -0.753   1.485  0.00  0.00    -0.049 C 
ATOM     18  C   UNL     1       3.439   0.219   0.366  0.00  0.00    -0.028 C 
ATOM     19  C   UNL     1       2.569   0.073  -0.944  0.00  0.00    -0.025 C 
ATOM     20  C   UNL     1       2.829  -1.272  -1.700  0.00  0.00    -0.059 C 
ATOM     21  C   UNL     1       2.934   1.264  -1.917  0.00  0.00    -0.045 C 
ATOM     22  C   UNL     1       4.330   1.895  -1.737  0.00  0.00    -0.026 C 
ATOM     23  C   UNL     1       5.405   0.928  -1.224  0.00  0.00    +0.061 C 
ATOM     24  C   UNL     1       5.018   0.313   0.183  0.00  0.00    -0.006 C 
ATOM     25  C   UNL     1       5.563   1.292   1.268  0.00  0.00    -0.057 C 
ATOM     26  C   UNL     1       5.751  -1.035   0.447  0.00  0.00    -0.057 C 
ATOM     27  C   UNL     1      -3.926  -2.436   0.725  0.00  0.00    -0.059 C 
ENDROOT
BRANCH   1  29
ATOM     28  C   UNL     1      -4.730   2.778  -0.924  0.00  0.00    -0.044 C 
ATOM     29  C   UNL     1      -4.536   1.462  -1.640  0.00  0.00    -0.076 C 
ATOM     30  C   UNL     1      -4.463   1.471  -2.981  0.00  0.00    -0.099 C 
ENDBRANCH   1  29
BRANCH  23  31
ATOM     31  O   UNL     1       5.754   0.017  -2.244  0.00  0.00    -0.391 OA
ATOM     32  H   UNL     1       4.973  -0.500  -2.496  0.00  0.00    +0.000 HD
ENDBRANCH  23  31
TORSDOF 2
