REMARK  Name = 
REMARK  22 active torsions:
REMARK  status: ('A' for Active; 'I' for Inactive)
REMARK    1  A    between atoms: C_1  and  C_2
REMARK    2  A    between atoms: C_2  and  C_26
REMARK    3  A    between atoms: C_3  and  C_4
REMARK    4  A    between atoms: C_5  and  C_6
REMARK    5  A    between atoms: C_7  and  C_8
REMARK    6  A    between atoms: C_7  and  C_25
REMARK    7  A    between atoms: C_9  and  C_10
REMARK    8  A    between atoms: C_11  and  C_12
REMARK    9  A    between atoms: C_11  and  C_24
REMARK   10  A    between atoms: C_13  and  C_14
REMARK   11  A    between atoms: C_15  and  C_16
REMARK   12  A    between atoms: C_18  and  O_23
REMARK   13  A    between atoms: C_20  and  C_21
REMARK   14  A    between atoms: C_20  and  C_22
REMARK   15  A    between atoms: C_27  and  C_28
REMARK   16  A    between atoms: C_29  and  C_30
REMARK   17  A    between atoms: C_29  and  C_42
REMARK   18  A    between atoms: C_31  and  C_32
REMARK   19  A    between atoms: C_33  and  C_41
REMARK   20  A    between atoms: C_35  and  O_40
REMARK   21  A    between atoms: C_37  and  C_38
REMARK   22  A    between atoms: C_37  and  C_39
REMARK                            x       y       z     vdW  Elec       q    Type
REMARK                         _______ _______ _______ _____ _____    ______ ____
ROOT
ATOM      1  C   UNL     1      -0.603  -0.721  -0.448  0.00  0.00    -0.062 C 
ATOM      2  C   UNL     1       0.388   0.078  -0.851  0.00  0.00    -0.062 C 
ENDROOT
BRANCH   1   5
ATOM      3  C   UNL     1      -3.137  -2.383  -0.577  0.00  0.00    -0.040 C 
ATOM      4  C   UNL     1      -3.077  -0.932  -0.163  0.00  0.00    -0.050 C 
ATOM      5  C   UNL     1      -1.961  -0.179  -0.200  0.00  0.00    -0.059 C 
BRANCH   4   6
ATOM      6  C   UNL     1      -4.366  -0.283   0.126  0.00  0.00    -0.059 C 
ATOM      7  C   UNL     1      -5.170  -0.804   1.037  0.00  0.00    -0.061 C 
BRANCH   7   8
ATOM      8  C   UNL     1      -6.607  -0.479   1.073  0.00  0.00    -0.059 C 
ATOM      9  C   UNL     1      -7.553  -1.442   1.112  0.00  0.00    -0.051 C 
ATOM     10  C   UNL     1      -7.205  -2.895   0.996  0.00  0.00    -0.040 C 
BRANCH   9  11
ATOM     11  C   UNL     1      -8.966  -1.077   1.339  0.00  0.00    -0.062 C 
ATOM     12  C   UNL     1      -9.547  -0.107   0.677  0.00  0.00    -0.076 C 
BRANCH  12  13
ATOM     13  C   UNL     1     -11.026   0.187   0.826  0.00  0.00    +0.003 C 
ATOM     14  C   UNL     1     -11.314   1.680   1.017  0.00  0.00    -0.067 C 
ATOM     15  C   UNL     1     -12.604   2.051   1.036  0.00  0.00    -0.056 C 
ATOM     16  C   UNL     1     -13.691   1.052   0.725  0.00  0.00    +0.074 C 
ATOM     17  C   UNL     1     -13.249   0.268  -0.517  0.00  0.00    -0.017 C 
ATOM     18  C   UNL     1     -11.879  -0.471  -0.343  0.00  0.00    -0.022 C 
ATOM     19  C   UNL     1     -12.162  -1.955   0.008  0.00  0.00    -0.059 C 
ATOM     20  C   UNL     1     -11.114  -0.430  -1.710  0.00  0.00    -0.059 C 
ATOM     21  C   UNL     1     -10.226   2.726   1.158  0.00  0.00    -0.043 C 
BRANCH  16  22
ATOM     22  O   UNL     1     -13.889   0.171   1.808  0.00  0.00    -0.388 OA
ATOM     23  H   UNL     1     -13.064  -0.305   1.992  0.00  0.00    +0.000 HD
ENDBRANCH  16  22
ENDBRANCH  12  13
ENDBRANCH   9  11
ENDBRANCH   7   8
ENDBRANCH   4   6
ENDBRANCH   1   5
BRANCH   2  24
ATOM     24  C   UNL     1       1.742  -0.424  -1.126  0.00  0.00    -0.059 C 
ATOM     25  C   UNL     1       2.842   0.349  -1.073  0.00  0.00    -0.050 C 
ATOM     26  C   UNL     1       2.776   1.812  -0.612  0.00  0.00    -0.040 C 
BRANCH  25  27
ATOM     27  C   UNL     1       4.142  -0.269  -1.395  0.00  0.00    -0.059 C 
ATOM     28  C   UNL     1       5.250   0.453  -1.561  0.00  0.00    -0.061 C 
BRANCH  28  29
ATOM     29  C   UNL     1       6.576  -0.165  -1.441  0.00  0.00    -0.059 C 
ATOM     30  C   UNL     1       7.305   0.035  -0.322  0.00  0.00    -0.050 C 
ATOM     31  C   UNL     1       6.662   0.646   0.905  0.00  0.00    -0.040 C 
BRANCH  30  32
ATOM     32  C   UNL     1       8.761  -0.259  -0.341  0.00  0.00    -0.059 C 
ATOM     33  C   UNL     1       9.642   0.729  -0.156  0.00  0.00    -0.058 C 
BRANCH  33  34
ATOM     34  C   UNL     1      11.091   0.504   0.048  0.00  0.00    -0.043 C 
ATOM     35  C   UNL     1      11.863  -0.012  -0.946  0.00  0.00    -0.067 C 
ATOM     36  C   UNL     1      11.282  -0.384  -2.301  0.00  0.00    -0.043 C 
ATOM     37  C   UNL     1      13.340  -0.243  -0.728  0.00  0.00    -0.005 C 
ATOM     38  C   UNL     1      13.636  -0.558   0.736  0.00  0.00    +0.060 C 
ATOM     39  C   UNL     1      13.193   0.662   1.556  0.00  0.00    -0.017 C 
ATOM     40  C   UNL     1      11.662   0.940   1.409  0.00  0.00    -0.008 C 
ATOM     41  C   UNL     1      10.898   0.171   2.516  0.00  0.00    -0.056 C 
ATOM     42  C   UNL     1      11.454   2.462   1.591  0.00  0.00    -0.056 C 
BRANCH  38  43
ATOM     43  O   UNL     1      15.015  -0.748   0.907  0.00  0.00    -0.391 OA
ATOM     44  H   UNL     1      15.489   0.051   0.628  0.00  0.00    +0.000 HD
ENDBRANCH  38  43
ENDBRANCH  33  34
ENDBRANCH  30  32
ENDBRANCH  28  29
ENDBRANCH  25  27
ENDBRANCH   2  24
TORSDOF 12
