REMARK  Name = 
REMARK  13 active torsions:
REMARK  status: ('A' for Active; 'I' for Inactive)
REMARK    1  A    between atoms: C_1  and  C_2
REMARK    2  A    between atoms: C_2  and  C_26
REMARK    3  A    between atoms: C_3  and  C_4
REMARK    4  A    between atoms: C_4  and  C_5
REMARK    5  A    between atoms: C_6  and  O_7
REMARK    6  A    between atoms: C_11  and  O_12
REMARK    7  A    between atoms: C_15  and  O_25
REMARK    8  A    between atoms: C_16  and  C_18
REMARK    9  A    between atoms: C_21  and  O_24
REMARK   10  A    between atoms: C_26  and  C_27
REMARK   11  A    between atoms: C_27  and  C_28
REMARK   12  A    between atoms: C_29  and  C_30
REMARK   13  A    between atoms: C_29  and  C_31
REMARK                            x       y       z     vdW  Elec       q    Type
REMARK                         _______ _______ _______ _____ _____    ______ ____
ROOT
ATOM      1  C   UNL     1      -0.119  -1.013   0.404  0.00  0.00    +0.040 A 
ATOM      2  C   UNL     1      -0.760  -1.772  -0.598  0.00  0.00    +0.127 A 
ATOM      3  C   UNL     1      -2.109  -1.557  -0.890  0.00  0.00    +0.023 A 
ATOM      4  C   UNL     1      -2.837  -0.583  -0.211  0.00  0.00    +0.147 A 
ATOM      5  C   UNL     1      -2.214   0.217   0.773  0.00  0.00    +0.109 A 
ATOM      6  C   UNL     1      -0.842   0.012   1.073  0.00  0.00    +0.138 A 
ATOM      7  C   UNL     1      -3.005   1.202   1.408  0.00  0.00    +0.238 A 
ATOM      8  O   UNL     1      -2.514   1.963   2.287  0.00  0.00    -0.283 OA
ATOM      9  C   UNL     1      -4.357   1.344   1.057  0.00  0.00    +0.208 A 
ATOM     10  C   UNL     1      -4.901   0.482   0.087  0.00  0.00    +0.181 A 
ATOM     11  O   UNL     1      -4.122  -0.420  -0.505  0.00  0.00    -0.451 OA
ENDROOT
BRANCH  10  12
ATOM     12  C   UNL     1      -6.324   0.550  -0.321  0.00  0.00    +0.021 A 
ATOM     13  C   UNL     1      -6.664   0.402  -1.677  0.00  0.00    -0.048 A 
ATOM     14  C   UNL     1      -8.003   0.434  -2.080  0.00  0.00    -0.020 A 
ATOM     15  C   UNL     1      -9.019   0.603  -1.134  0.00  0.00    +0.117 A 
ATOM     16  C   UNL     1      -8.692   0.735   0.223  0.00  0.00    -0.020 A 
ATOM     17  C   UNL     1      -7.353   0.701   0.629  0.00  0.00    -0.048 A 
BRANCH  15  18
ATOM     18  O   UNL     1     -10.349   0.635  -1.551  0.00  0.00    -0.507 OA
ATOM     19  H   UNL     1     -10.557   0.546  -2.460  0.00  0.00    +0.000 HD
ENDBRANCH  15  18
ENDBRANCH  10  12
BRANCH   2  20
ATOM     20  O   UNL     1      -0.052  -2.744  -1.308  0.00  0.00    -0.506 OA
ATOM     21  H   UNL     1       0.853  -2.896  -1.119  0.00  0.00    +0.000 HD
ENDBRANCH   2  20
BRANCH   6  22
ATOM     22  O   UNL     1      -0.220   0.833   2.022  0.00  0.00    -0.506 OA
ATOM     23  H   UNL     1      -0.711   1.504   2.454  0.00  0.00    +0.000 HD
ENDBRANCH   6  22
BRANCH   9  24
ATOM     24  O   UNL     1      -5.147   2.343   1.637  0.00  0.00    -0.501 OA
ATOM     25  H   UNL     1      -4.780   2.915   2.282  0.00  0.00    +0.000 HD
ENDBRANCH   9  24
BRANCH   1  26
ATOM     26  C   UNL     1       1.338  -1.286   0.718  0.00  0.00    -0.002 C 
BRANCH  26  29
ATOM     27  C   UNL     1       4.022  -2.015  -0.436  0.00  0.00    -0.044 C 
ATOM     28  C   UNL     1       3.447  -0.619  -0.524  0.00  0.00    -0.076 C 
ATOM     29  C   UNL     1       2.225  -0.313  -0.025  0.00  0.00    -0.080 C 
BRANCH  28  30
ATOM     30  C   UNL     1       4.269   0.470  -1.183  0.00  0.00    -0.029 C 
BRANCH  30  31
ATOM     31  C   UNL     1       4.914   1.409  -0.146  0.00  0.00    -0.031 C 
BRANCH  31  32
ATOM     32  C   UNL     1       5.834   0.664   0.800  0.00  0.00    -0.085 C 
ATOM     33  C   UNL     1       7.127   0.365   0.535  0.00  0.00    -0.080 C 
ATOM     34  C   UNL     1       7.822   0.842  -0.718  0.00  0.00    -0.044 C 
ATOM     35  C   UNL     1       7.935  -0.422   1.539  0.00  0.00    -0.044 C 
ENDBRANCH  31  32
ENDBRANCH  30  31
ENDBRANCH  28  30
ENDBRANCH  26  29
ENDBRANCH   1  26
TORSDOF 10
