REMARK  Name = 
REMARK  11 active torsions:
REMARK  status: ('A' for Active; 'I' for Inactive)
REMARK    1  A    between atoms: C_1  and  O_2
REMARK    2  A    between atoms: O_2  and  C_3
REMARK    3  A    between atoms: C_3  and  C_5
REMARK    4  A    between atoms: C_5  and  C_6
REMARK    5  A    between atoms: C_8  and  O_9
REMARK    6  A    between atoms: C_14  and  C_15
REMARK    7  A    between atoms: C_14  and  C_16
REMARK    8  A    between atoms: C_16  and  C_17
REMARK    9  A    between atoms: C_17  and  C_18
REMARK   10  A    between atoms: C_19  and  C_20
REMARK   11  A    between atoms: C_19  and  C_21
REMARK                            x       y       z     vdW  Elec       q    Type
REMARK                         _______ _______ _______ _____ _____    ______ ____
ROOT
ATOM      1  C   UNL     1       2.574   1.786   0.417  0.00  0.00    +0.009 A 
ATOM      2  C   UNL     1       2.643   3.185   0.521  0.00  0.00    -0.013 A 
ATOM      3  C   UNL     1       1.536   3.978   0.197  0.00  0.00    +0.118 A 
ATOM      4  C   UNL     1       0.351   3.375  -0.247  0.00  0.00    -0.010 A 
ATOM      5  C   UNL     1       0.275   1.982  -0.361  0.00  0.00    +0.020 A 
ATOM      6  C   UNL     1       1.380   1.189  -0.029  0.00  0.00    +0.133 A 
ATOM      7  O   UNL     1       1.288  -0.201  -0.175  0.00  0.00    -0.481 OA
ATOM      8  C   UNL     1       0.039  -0.898  -0.297  0.00  0.00    +0.127 C 
ATOM      9  C   UNL     1       0.287  -2.114  -1.204  0.00  0.00    -0.021 C 
ATOM     10  C   UNL     1      -1.016  -0.006  -0.934  0.00  0.00    -0.041 C 
ATOM     11  C   UNL     1      -0.929   1.326  -0.892  0.00  0.00    -0.051 C 
ENDROOT
BRANCH   3  12
ATOM     12  O   UNL     1       1.627   5.363   0.312  0.00  0.00    -0.507 OA
ATOM     13  H   UNL     1       2.423   5.757   0.610  0.00  0.00    +0.000 HD
ENDBRANCH   3  12
BRANCH   1  14
ATOM     14  C   UNL     1       3.780   0.944   0.738  0.00  0.00    +0.074 C 
BRANCH  14  15
ATOM     15  C   UNL     1       4.476   0.541  -0.522  0.00  0.00    +0.311 C 
ATOM     16  O   UNL     1       5.352   1.296  -1.024  0.00  0.00    -0.250 OA
BRANCH  15  18
ATOM     17  C   UNL     1       4.687  -1.071  -2.387  0.00  0.00    +0.082 C 
ATOM     18  O   UNL     1       4.112  -0.650  -1.157  0.00  0.00    -0.468 OA
ENDBRANCH  15  18
ENDBRANCH  14  15
ENDBRANCH   1  14
BRANCH   8  19
ATOM     19  C   UNL     1      -0.389  -1.335   1.131  0.00  0.00    -0.006 C 
BRANCH  19  20
ATOM     20  C   UNL     1      -1.777  -2.001   1.251  0.00  0.00    -0.031 C 
BRANCH  20  21
ATOM     21  C   UNL     1      -2.900  -0.992   1.337  0.00  0.00    -0.085 C 
ATOM     22  C   UNL     1      -4.202  -1.341   1.393  0.00  0.00    -0.080 C 
ATOM     23  C   UNL     1      -4.635  -2.787   1.373  0.00  0.00    -0.044 C 
ATOM     24  C   UNL     1      -5.240  -0.251   1.477  0.00  0.00    -0.044 C 
ENDBRANCH  20  21
ENDBRANCH  19  20
ENDBRANCH   8  19
TORSDOF 7
