REMARK  Name = 
REMARK  9 active torsions:
REMARK  status: ('A' for Active; 'I' for Inactive)
REMARK    1  A    between atoms: C_1  and  O_2
REMARK    2  A    between atoms: O_2  and  C_3
REMARK    3  A    between atoms: C_3  and  C_5
REMARK    4  A    between atoms: C_5  and  C_6
REMARK    5  A    between atoms: C_6  and  C_7
REMARK    6  A    between atoms: C_7  and  C_8
REMARK    7  A    between atoms: C_8  and  C_9
REMARK    8  A    between atoms: C_9  and  C_10
REMARK    9  A    between atoms: C_10  and  C_11
REMARK                            x       y       z     vdW  Elec       q    Type
REMARK                         _______ _______ _______ _____ _____    ______ ____
ROOT
ATOM      1  C   UNL     1      -0.417  -0.633  -0.203  0.00  0.00    -0.053 C 
ENDROOT
BRANCH   1   2
ATOM      2  C   UNL     1       0.852  -0.189  -0.947  0.00  0.00    -0.053 C 
BRANCH   2   3
ATOM      3  C   UNL     1       2.135  -0.467  -0.151  0.00  0.00    -0.043 C 
BRANCH   3   4
ATOM      4  C   UNL     1       3.378  -0.135  -0.982  0.00  0.00    +0.045 C 
BRANCH   4   5
ATOM      5  C   UNL     1       4.621  -0.393  -0.190  0.00  0.00    +0.307 C 
ATOM      6  O   UNL     1       5.178  -1.523  -0.249  0.00  0.00    -0.251 OA
BRANCH   5   8
ATOM      7  C   UNL     1       6.286   0.425   1.445  0.00  0.00    +0.082 C 
ATOM      8  O   UNL     1       5.126   0.609   0.643  0.00  0.00    -0.468 OA
ENDBRANCH   5   8
ENDBRANCH   4   5
ENDBRANCH   3   4
ENDBRANCH   2   3
ENDBRANCH   1   2
BRANCH   1   9
ATOM      9  C   UNL     1      -0.761   0.287   0.981  0.00  0.00    -0.049 C 
BRANCH   9  10
ATOM     10  C   UNL     1      -2.051  -0.142   1.696  0.00  0.00    -0.028 C 
BRANCH  10  11
ATOM     11  C   UNL     1      -3.273   0.076   0.841  0.00  0.00    -0.047 A 
ATOM     12  C   UNL     1      -3.805   1.367   0.684  0.00  0.00    -0.059 A 
ATOM     13  C   UNL     1      -4.926   1.574  -0.126  0.00  0.00    -0.062 A 
ATOM     14  C   UNL     1      -5.521   0.496  -0.788  0.00  0.00    -0.062 A 
ATOM     15  C   UNL     1      -4.994  -0.790  -0.642  0.00  0.00    -0.062 A 
ATOM     16  C   UNL     1      -3.874  -1.002   0.168  0.00  0.00    -0.059 A 
ENDBRANCH  10  11
ENDBRANCH   9  10
ENDBRANCH   1   9
TORSDOF 8
