REMARK  Name = 
REMARK  17 active torsions:
REMARK  status: ('A' for Active; 'I' for Inactive)
REMARK    1  A    between atoms: C_1  and  O_2
REMARK    2  A    between atoms: O_2  and  C_3
REMARK    3  A    between atoms: C_3  and  C_5
REMARK    4  A    between atoms: C_5  and  C_6
REMARK    5  A    between atoms: C_9  and  C_24
REMARK    6  A    between atoms: C_16  and  C_23
REMARK    7  A    between atoms: C_17  and  C_18
REMARK    8  A    between atoms: C_18  and  C_19
REMARK    9  A    between atoms: C_20  and  C_21
REMARK   10  A    between atoms: C_20  and  C_22
REMARK   11  A    between atoms: C_24  and  C_25
REMARK   12  A    between atoms: C_26  and  C_27
REMARK   13  A    between atoms: C_26  and  C_33
REMARK   14  A    between atoms: C_27  and  C_28
REMARK   15  A    between atoms: C_28  and  C_29
REMARK   16  A    between atoms: C_30  and  C_31
REMARK   17  A    between atoms: C_30  and  C_32
REMARK                            x       y       z     vdW  Elec       q    Type
REMARK                         _______ _______ _______ _____ _____    ______ ____
ROOT
ATOM      1  C   UNL     1      -1.127   0.614  -0.606  0.00  0.00    +0.060 C 
ATOM      2  C   UNL     1      -0.481  -0.334  -1.633  0.00  0.00    +0.168 C 
ATOM      3  O   UNL     1      -0.828  -1.548  -1.660  0.00  0.00    -0.292 OA
ATOM      4  C   UNL     1       0.607   0.102  -2.544  0.00  0.00    +0.003 C 
ATOM      5  C   UNL     1       0.892   1.398  -2.685  0.00  0.00    -0.012 C 
ATOM      6  C   UNL     1       0.143   2.433  -1.974  0.00  0.00    +0.161 C 
ATOM      7  O   UNL     1       0.507   3.635  -2.090  0.00  0.00    -0.292 OA
ATOM      8  C   UNL     1      -1.075   2.105  -1.151  0.00  0.00    +0.039 C 
ATOM      9  C   UNL     1      -2.352   2.479  -1.918  0.00  0.00    -0.024 C 
ATOM     10  C   UNL     1      -3.509   2.374  -0.968  0.00  0.00    -0.084 C 
ATOM     11  C   UNL     1      -3.608   1.308  -0.150  0.00  0.00    -0.072 C 
ATOM     12  C   UNL     1      -2.642   0.137  -0.383  0.00  0.00    -0.003 C 
ATOM     13  C   UNL     1      -4.716   1.271   0.879  0.00  0.00    -0.043 C 
ENDROOT
BRANCH   1  14
ATOM     14  C   UNL     1      -0.249   0.523   0.692  0.00  0.00    +0.059 C 
BRANCH  14  15
ATOM     15  C   UNL     1      -0.852   1.087   1.955  0.00  0.00    +0.308 C 
ATOM     16  O   UNL     1      -0.681   0.467   3.041  0.00  0.00    -0.251 OA
BRANCH  15  18
ATOM     17  C   UNL     1      -2.102   2.873   3.124  0.00  0.00    +0.082 C 
ATOM     18  O   UNL     1      -1.546   2.299   1.947  0.00  0.00    -0.468 OA
ENDBRANCH  15  18
ENDBRANCH  14  15
ENDBRANCH   1  14
BRANCH  12  19
ATOM     19  C   UNL     1      -2.807  -1.039   0.629  0.00  0.00    -0.027 C 
BRANCH  19  20
ATOM     20  C   UNL     1      -4.065  -1.843   0.391  0.00  0.00    -0.085 C 
ATOM     21  C   UNL     1      -4.451  -2.862   1.190  0.00  0.00    -0.080 C 
ATOM     22  C   UNL     1      -3.625  -3.288   2.381  0.00  0.00    -0.044 C 
ATOM     23  C   UNL     1      -5.727  -3.593   0.865  0.00  0.00    -0.044 C 
ENDBRANCH  19  20
ENDBRANCH  12  19
BRANCH   4  24
ATOM     24  C   UNL     1       1.385  -0.912  -3.358  0.00  0.00    -0.006 C 
BRANCH  24  25
ATOM     25  C   UNL     1       2.860  -0.861  -3.044  0.00  0.00    -0.081 C 
ATOM     26  C   UNL     1       3.419  -1.331  -1.905  0.00  0.00    -0.076 C 
ATOM     27  C   UNL     1       2.597  -2.009  -0.835  0.00  0.00    -0.044 C 
BRANCH  26  28
ATOM     28  C   UNL     1       4.909  -1.159  -1.695  0.00  0.00    -0.029 C 
BRANCH  28  29
ATOM     29  C   UNL     1       5.269   0.298  -1.373  0.00  0.00    -0.031 C 
BRANCH  29  30
ATOM     30  C   UNL     1       4.682   0.730  -0.048  0.00  0.00    -0.085 C 
ATOM     31  C   UNL     1       5.294   0.563   1.147  0.00  0.00    -0.080 C 
ATOM     32  C   UNL     1       6.686  -0.016   1.259  0.00  0.00    -0.044 C 
ATOM     33  C   UNL     1       4.562   0.980   2.398  0.00  0.00    -0.044 C 
ENDBRANCH  29  30
ENDBRANCH  28  29
ENDBRANCH  26  28
ENDBRANCH  24  25
ENDBRANCH   4  24
TORSDOF 10
