REMARK  Name = 
REMARK  16 active torsions:
REMARK  status: ('A' for Active; 'I' for Inactive)
REMARK    1  A    between atoms: C_1  and  O_2
REMARK    2  A    between atoms: O_2  and  C_3
REMARK    3  A    between atoms: C_3  and  C_5
REMARK    4  A    between atoms: C_6  and  C_7
REMARK    5  A    between atoms: C_6  and  C_20
REMARK    6  A    between atoms: C_7  and  C_8
REMARK    7  A    between atoms: C_8  and  C_9
REMARK    8  A    between atoms: C_10  and  C_11
REMARK    9  A    between atoms: C_10  and  C_19
REMARK   10  A    between atoms: C_11  and  C_12
REMARK   11  A    between atoms: C_12  and  C_13
REMARK   12  A    between atoms: C_13  and  C_14
REMARK   13  A    between atoms: C_13  and  O_18
REMARK   14  A    between atoms: C_14  and  O_15
REMARK   15  A    between atoms: C_14  and  C_16
REMARK   16  A    between atoms: C_14  and  C_17
REMARK                            x       y       z     vdW  Elec       q    Type
REMARK                         _______ _______ _______ _____ _____    ______ ____
ROOT
ATOM      1  C   UNL     1      -0.196   1.097  -0.698  0.00  0.00    -0.085 C 
ATOM      2  C   UNL     1      -0.715   1.153   0.550  0.00  0.00    -0.076 C 
ATOM      3  C   UNL     1      -0.008   0.535   1.734  0.00  0.00    -0.044 C 
ENDROOT
BRANCH   1   4
ATOM      4  C   UNL     1       1.125   0.457  -1.044  0.00  0.00    -0.031 C 
BRANCH   4   5
ATOM      5  C   UNL     1       2.270   1.467  -0.910  0.00  0.00    -0.028 C 
BRANCH   5   7
ATOM      6  C   UNL     1       4.166   0.020  -0.296  0.00  0.00    +0.021 C 
ATOM      7  C   UNL     1       3.599   0.819  -1.226  0.00  0.00    -0.066 C 
ATOM      8  C   UNL     1       4.237   1.094  -2.564  0.00  0.00    -0.043 C 
BRANCH   6   9
ATOM      9  C   UNL     1       5.455  -0.694  -0.419  0.00  0.00    +0.332 C 
ATOM     10  O   UNL     1       6.174  -0.592  -1.450  0.00  0.00    -0.246 OA
BRANCH   9  12
ATOM     11  C   UNL     1       7.095  -2.224   0.628  0.00  0.00    +0.082 C 
ATOM     12  O   UNL     1       5.872  -1.496   0.647  0.00  0.00    -0.465 OA
ENDBRANCH   9  12
ENDBRANCH   6   9
ENDBRANCH   5   7
ENDBRANCH   4   5
ENDBRANCH   1   4
BRANCH   2  13
ATOM     13  C   UNL     1      -2.038   1.860   0.767  0.00  0.00    -0.030 C 
BRANCH  13  14
ATOM     14  C   UNL     1      -3.225   1.085   0.168  0.00  0.00    -0.020 C 
BRANCH  14  15
ATOM     15  C   UNL     1      -3.473  -0.275   0.865  0.00  0.00    +0.084 C 
BRANCH  15  16
ATOM     16  C   UNL     1      -4.502  -1.167   0.098  0.00  0.00    +0.086 C 
ATOM     17  C   UNL     1      -5.896  -0.511   0.054  0.00  0.00    -0.034 C 
ATOM     18  C   UNL     1      -4.626  -2.539   0.794  0.00  0.00    -0.034 C 
BRANCH  16  19
ATOM     19  O   UNL     1      -4.079  -1.367  -1.231  0.00  0.00    -0.387 OA
ATOM     20  H   UNL     1      -3.998  -0.509  -1.677  0.00  0.00    +0.000 HD
ENDBRANCH  16  19
ENDBRANCH  15  16
BRANCH  15  21
ATOM     21  O   UNL     1      -3.921  -0.055   2.181  0.00  0.00    -0.389 OA
ATOM     22  H   UNL     1      -4.763   0.425   2.160  0.00  0.00    +0.000 HD
ENDBRANCH  15  21
ENDBRANCH  14  15
ENDBRANCH  13  14
ENDBRANCH   2  13
TORSDOF 11
