REMARK  Name = 
REMARK  11 active torsions:
REMARK  status: ('A' for Active; 'I' for Inactive)
REMARK    1  A    between atoms: C_1  and  O_2
REMARK    2  A    between atoms: O_2  and  C_3
REMARK    3  A    between atoms: C_5  and  C_6
REMARK    4  A    between atoms: C_8  and  C_30
REMARK    5  A    between atoms: C_12  and  O_29
REMARK    6  A    between atoms: C_13  and  C_14
REMARK    7  A    between atoms: C_15  and  C_16
REMARK    8  A    between atoms: C_18  and  O_27
REMARK    9  A    between atoms: C_24  and  O_25
REMARK   10  A    between atoms: O_25  and  C_26
REMARK   11  A    between atoms: O_27  and  C_28
REMARK                            x       y       z     vdW  Elec       q    Type
REMARK                         _______ _______ _______ _____ _____    ______ ____
ROOT
ATOM      1  C   UNL     1      -1.204   0.131   0.405  0.00  0.00    +0.136 A 
ATOM      2  C   UNL     1      -2.599   0.030   0.230  0.00  0.00    +0.015 A 
ATOM      3  C   UNL     1      -3.506  -0.447   1.338  0.00  0.00    +0.034 C 
ATOM      4  C   UNL     1      -3.742  -1.962   1.262  0.00  0.00    -0.045 C 
ATOM      5  N   UNL     1      -4.765   0.317   1.334  0.00  0.00    -0.307 N 
ATOM      6  C   UNL     1      -5.495   0.418   0.044  0.00  0.00    +0.009 C 
ATOM      7  C   UNL     1      -4.641   0.117  -1.217  0.00  0.00    -0.012 C 
ATOM      8  C   UNL     1      -3.175   0.358  -1.003  0.00  0.00    -0.034 A 
ATOM      9  C   UNL     1      -2.363   0.770  -2.067  0.00  0.00    -0.016 A 
ATOM     10  C   UNL     1      -0.980   0.875  -1.909  0.00  0.00    +0.128 A 
ATOM     11  C   UNL     1      -0.390   0.566  -0.664  0.00  0.00    +0.066 A 
ATOM     12  C   UNL     1      -6.769  -0.441   0.052  0.00  0.00    -0.049 C 
ATOM     13  H   UNL     1      -4.550   1.266   1.639  0.00  0.00    +0.000 HD
ATOM     14  H   UNL     1      -5.390  -0.204   1.949  0.00  0.00    +0.000 HD
ENDROOT
BRANCH  11  15
ATOM     15  C   UNL     1       1.084   0.651  -0.489  0.00  0.00    +0.000 A 
ATOM     16  C   UNL     1       1.683   1.913  -0.292  0.00  0.00    -0.038 A 
ATOM     17  C   UNL     1       0.860   3.179  -0.268  0.00  0.00    -0.039 C 
ATOM     18  C   UNL     1       3.069   2.005  -0.135  0.00  0.00    -0.016 A 
ATOM     19  C   UNL     1       3.886   0.863  -0.144  0.00  0.00    +0.132 A 
ATOM     20  C   UNL     1       3.301  -0.416  -0.330  0.00  0.00    +0.066 A 
ATOM     21  C   UNL     1       1.890  -0.516  -0.513  0.00  0.00    -0.003 A 
ATOM     22  C   UNL     1       1.313  -1.786  -0.727  0.00  0.00    -0.053 A 
ATOM     23  C   UNL     1       2.098  -2.932  -0.743  0.00  0.00    -0.058 A 
ATOM     24  C   UNL     1       3.471  -2.845  -0.552  0.00  0.00    -0.019 A 
ATOM     25  C   UNL     1       4.092  -1.600  -0.346  0.00  0.00    +0.131 A 
BRANCH  25  26
ATOM     26  O   UNL     1       5.483  -1.520  -0.158  0.00  0.00    -0.494 OA
ATOM     27  C   UNL     1       6.374  -2.631  -0.153  0.00  0.00    +0.079 C 
ENDBRANCH  25  26
BRANCH  19  28
ATOM     28  O   UNL     1       5.277   0.980   0.029  0.00  0.00    -0.494 OA
ATOM     29  C   UNL     1       5.982   2.202   0.226  0.00  0.00    +0.079 C 
ENDBRANCH  19  28
ENDBRANCH  11  15
BRANCH   1  31
ATOM     30  C   UNL     1      -0.205   0.717   2.585  0.00  0.00    +0.079 C 
ATOM     31  O   UNL     1      -0.633  -0.243   1.627  0.00  0.00    -0.494 OA
ENDBRANCH   1  31
BRANCH  10  32
ATOM     32  O   UNL     1      -0.216   1.268  -3.010  0.00  0.00    -0.506 OA
ATOM     33  H   UNL     1      -0.635   1.468  -3.824  0.00  0.00    +0.000 HD
ENDBRANCH  10  32
TORSDOF 5
