REMARK  Name = 
REMARK  13 active torsions:
REMARK  status: ('A' for Active; 'I' for Inactive)
REMARK    1  A    between atoms: C_1  and  O_2
REMARK    2  A    between atoms: O_2  and  C_3
REMARK    3  A    between atoms: C_3  and  C_5
REMARK    4  A    between atoms: C_6  and  C_7
REMARK    5  A    between atoms: C_6  and  C_19
REMARK    6  A    between atoms: C_7  and  C_8
REMARK    7  A    between atoms: C_8  and  C_9
REMARK    8  A    between atoms: C_10  and  C_11
REMARK    9  A    between atoms: C_10  and  C_18
REMARK   10  A    between atoms: C_11  and  C_12
REMARK   11  A    between atoms: C_12  and  C_13
REMARK   12  A    between atoms: C_15  and  C_16
REMARK   13  A    between atoms: C_15  and  C_17
REMARK                            x       y       z     vdW  Elec       q    Type
REMARK                         _______ _______ _______ _____ _____    ______ ____
ROOT
ATOM      1  C   UNL     1      -0.373   0.399  -1.024  0.00  0.00    -0.085 C 
ATOM      2  C   UNL     1      -1.053  -0.765  -1.136  0.00  0.00    -0.076 C 
ATOM      3  C   UNL     1      -0.566  -2.038  -0.486  0.00  0.00    -0.044 C 
ENDROOT
BRANCH   1   4
ATOM      4  C   UNL     1       0.943   0.550  -0.303  0.00  0.00    -0.031 C 
BRANCH   4   5
ATOM      5  C   UNL     1       2.117   0.249  -1.242  0.00  0.00    -0.028 C 
BRANCH   5   7
ATOM      6  C   UNL     1       3.809  -0.612   0.325  0.00  0.00    +0.021 C 
ATOM      7  C   UNL     1       3.435   0.377  -0.514  0.00  0.00    -0.066 C 
ATOM      8  C   UNL     1       4.273   1.607  -0.749  0.00  0.00    -0.043 C 
BRANCH   6   9
ATOM      9  C   UNL     1       5.056  -0.663   1.119  0.00  0.00    +0.332 C 
ATOM     10  O   UNL     1       5.228  -1.633   1.905  0.00  0.00    -0.246 OA
BRANCH   9  12
ATOM     11  C   UNL     1       7.245   0.298   1.761  0.00  0.00    +0.082 C 
ATOM     12  O   UNL     1       6.040   0.324   1.006  0.00  0.00    -0.465 OA
ENDBRANCH   9  12
ENDBRANCH   6   9
ENDBRANCH   5   7
ENDBRANCH   4   5
ENDBRANCH   1   4
BRANCH   2  13
ATOM     13  C   UNL     1      -2.365  -0.793  -1.893  0.00  0.00    -0.030 C 
BRANCH  13  14
ATOM     14  C   UNL     1      -3.574  -0.881  -0.952  0.00  0.00    -0.020 C 
BRANCH  14  15
ATOM     15  C   UNL     1      -3.753   0.407  -0.131  0.00  0.00    +0.088 C 
ATOM     16  O   UNL     1      -4.903   1.130  -0.522  0.00  0.00    -0.365 OA
ATOM     17  C   UNL     1      -4.947   0.528   0.752  0.00  0.00    +0.090 C 
ATOM     18  C   UNL     1      -5.984  -0.598   0.836  0.00  0.00    -0.034 C 
ATOM     19  C   UNL     1      -4.885   1.555   1.881  0.00  0.00    -0.034 C 
ENDBRANCH  14  15
ENDBRANCH  13  14
ENDBRANCH   2  13
TORSDOF 8
