REMARK  Name = 
REMARK  9 active torsions:
REMARK  status: ('A' for Active; 'I' for Inactive)
REMARK    1  A    between atoms: C_1  and  O_2
REMARK    2  A    between atoms: O_2  and  C_3
REMARK    3  A    between atoms: C_4  and  O_5
REMARK    4  A    between atoms: O_5  and  C_6
REMARK    5  A    between atoms: C_6  and  C_8
REMARK    6  A    between atoms: C_18  and  C_19
REMARK    7  A    between atoms: C_19  and  O_20
REMARK    8  A    between atoms: O_20  and  C_21
REMARK    9  A    between atoms: C_21  and  C_23
REMARK                            x       y       z     vdW  Elec       q    Type
REMARK                         _______ _______ _______ _____ _____    ______ ____
ROOT
ATOM      1  C   UNL     1       0.696   0.256  -0.167  0.00  0.00    +0.132 C 
ATOM      2  C   UNL     1       1.431  -1.006   0.322  0.00  0.00    +0.161 C 
ATOM      3  C   UNL     1       1.056  -2.230  -0.528  0.00  0.00    +0.127 C 
ATOM      4  O   UNL     1       0.119  -3.050   0.139  0.00  0.00    -0.362 OA
ATOM      5  C   UNL     1      -0.348  -2.361  -0.996  0.00  0.00    +0.118 C 
ATOM      6  C   UNL     1      -1.366  -1.262  -0.645  0.00  0.00    +0.123 C 
ATOM      7  C   UNL     1      -0.836   0.061  -0.220  0.00  0.00    +0.162 C 
ATOM      8  O   UNL     1      -1.333  -0.870   0.717  0.00  0.00    -0.356 OA
ENDROOT
BRANCH   1  10
ATOM      9  C   UNL     1       1.700   2.346   0.073  0.00  0.00    +0.037 C 
ATOM     10  O   UNL     1       0.991   1.318   0.728  0.00  0.00    -0.373 OA
ENDBRANCH   1  10
BRANCH   2  11
ATOM     11  O   UNL     1       2.837  -0.777   0.237  0.00  0.00    -0.452 OA
BRANCH  11  12
ATOM     12  C   UNL     1       3.793  -1.599   0.847  0.00  0.00    +0.340 C 
ATOM     13  O   UNL     1       3.428  -2.599   1.525  0.00  0.00    -0.245 OA
BRANCH  12  14
ATOM     14  C   UNL     1       5.232  -1.289   0.695  0.00  0.00    +0.059 A 
ATOM     15  C   UNL     1       5.641  -0.172  -0.057  0.00  0.00    -0.048 A 
ATOM     16  C   UNL     1       7.000   0.123  -0.201  0.00  0.00    -0.061 A 
ATOM     17  C   UNL     1       7.963  -0.690   0.401  0.00  0.00    -0.062 A 
ATOM     18  C   UNL     1       7.568  -1.801   1.149  0.00  0.00    -0.061 A 
ATOM     19  C   UNL     1       6.210  -2.102   1.297  0.00  0.00    -0.048 A 
ENDBRANCH  12  14
ENDBRANCH  11  12
ENDBRANCH   2  11
BRANCH   7  20
ATOM     20  C   UNL     1      -1.744   1.284  -0.424  0.00  0.00    +0.127 C 
BRANCH  20  21
ATOM     21  O   UNL     1      -3.114   0.961  -0.193  0.00  0.00    -0.458 OA
BRANCH  21  22
ATOM     22  C   UNL     1      -4.147   1.895  -0.326  0.00  0.00    +0.339 C 
ATOM     23  O   UNL     1      -3.884   3.085  -0.653  0.00  0.00    -0.245 OA
BRANCH  22  24
ATOM     24  C   UNL     1      -5.546   1.482  -0.081  0.00  0.00    +0.059 A 
ATOM     25  C   UNL     1      -6.600   2.407  -0.202  0.00  0.00    -0.048 A 
ATOM     26  C   UNL     1      -7.920   2.008   0.030  0.00  0.00    -0.061 A 
ATOM     27  C   UNL     1      -8.202   0.686   0.383  0.00  0.00    -0.062 A 
ATOM     28  C   UNL     1      -7.163  -0.240   0.505  0.00  0.00    -0.061 A 
ATOM     29  C   UNL     1      -5.841   0.153   0.275  0.00  0.00    -0.048 A 
ENDBRANCH  22  24
ENDBRANCH  21  22
ENDBRANCH  20  21
ENDBRANCH   7  20
TORSDOF 8
