REMARK  Name = 
REMARK  12 active torsions:
REMARK  status: ('A' for Active; 'I' for Inactive)
REMARK    1  A    between atoms: O_1  and  C_2
REMARK    2  A    between atoms: C_2  and  C_3
REMARK    3  A    between atoms: C_5  and  O_10
REMARK    4  A    between atoms: C_6  and  O_9
REMARK    5  A    between atoms: C_7  and  O_8
REMARK    6  A    between atoms: O_10  and  C_11
REMARK    7  A    between atoms: C_12  and  C_24
REMARK    8  A    between atoms: C_18  and  O_19
REMARK    9  A    between atoms: C_21  and  O_23
REMARK   10  A    between atoms: C_26  and  O_27
REMARK   11  A    between atoms: C_28  and  O_32
REMARK   12  A    between atoms: C_29  and  O_31
REMARK                            x       y       z     vdW  Elec       q    Type
REMARK                         _______ _______ _______ _____ _____    ______ ____
ROOT
ATOM      1  C   UNL     1       0.010  -0.446   1.417  0.00  0.00    +0.214 A 
ATOM      2  C   UNL     1      -1.321  -0.389   0.962  0.00  0.00    +0.181 A 
ATOM      3  O   UNL     1      -2.145  -1.398   1.217  0.00  0.00    -0.451 OA
ATOM      4  C   UNL     1      -1.788  -2.479   1.902  0.00  0.00    +0.147 A 
ATOM      5  C   UNL     1      -0.465  -2.625   2.397  0.00  0.00    +0.109 A 
ATOM      6  C   UNL     1       0.426  -1.548   2.170  0.00  0.00    +0.238 A 
ATOM      7  O   UNL     1       1.593  -1.543   2.642  0.00  0.00    -0.283 OA
ATOM      8  C   UNL     1      -0.130  -3.821   3.101  0.00  0.00    +0.135 A 
ATOM      9  C   UNL     1      -1.124  -4.775   3.353  0.00  0.00    +0.022 A 
ATOM     10  C   UNL     1      -2.423  -4.606   2.874  0.00  0.00    +0.124 A 
ATOM     11  C   UNL     1      -2.748  -3.465   2.139  0.00  0.00    +0.023 A 
ENDROOT
BRANCH   2  12
ATOM     12  C   UNL     1      -1.852   0.770   0.210  0.00  0.00    +0.028 A 
ATOM     13  C   UNL     1      -1.567   2.087   0.604  0.00  0.00    -0.006 A 
ATOM     14  C   UNL     1      -2.067   3.178  -0.116  0.00  0.00    +0.163 A 
ATOM     15  C   UNL     1      -2.886   2.951  -1.249  0.00  0.00    +0.201 A 
ATOM     16  C   UNL     1      -3.195   1.631  -1.625  0.00  0.00    +0.163 A 
ATOM     17  C   UNL     1      -2.686   0.554  -0.894  0.00  0.00    -0.006 A 
BRANCH  14  18
ATOM     18  O   UNL     1      -1.731   4.457   0.330  0.00  0.00    -0.503 OA
ATOM     19  H   UNL     1      -1.186   4.563   1.084  0.00  0.00    +0.000 HD
ENDBRANCH  14  18
BRANCH  16  20
ATOM     20  O   UNL     1      -4.008   1.367  -2.728  0.00  0.00    -0.503 OA
ATOM     21  H   UNL     1      -4.360   2.075  -3.231  0.00  0.00    +0.000 HD
ENDBRANCH  16  20
BRANCH  15  22
ATOM     22  O   UNL     1      -3.405   3.999  -2.014  0.00  0.00    -0.501 OA
ATOM     23  H   UNL     1      -3.214   4.887  -1.783  0.00  0.00    +0.000 HD
ENDBRANCH  15  22
ENDBRANCH   2  12
BRANCH   8  24
ATOM     24  O   UNL     1       1.158  -4.132   3.547  0.00  0.00    -0.506 OA
ATOM     25  H   UNL     1       1.861  -3.530   3.405  0.00  0.00    +0.000 HD
ENDBRANCH   8  24
BRANCH  10  26
ATOM     26  O   UNL     1      -3.382  -5.584   3.130  0.00  0.00    -0.507 OA
ATOM     27  H   UNL     1      -3.154  -6.346   3.625  0.00  0.00    +0.000 HD
ENDBRANCH  10  26
BRANCH   1  28
ATOM     28  O   UNL     1       0.926   0.573   1.133  0.00  0.00    -0.453 OA
BRANCH  28  31
ATOM     29  C   UNL     1       3.531   0.250  -0.964  0.00  0.00    +0.114 C 
ATOM     30  O   UNL     1       2.312  -0.298  -0.512  0.00  0.00    -0.331 OA
ATOM     31  C   UNL     1       1.456   0.773  -0.176  0.00  0.00    +0.231 C 
ATOM     32  C   UNL     1       2.241   2.074  -0.222  0.00  0.00    +0.145 C 
ATOM     33  C   UNL     1       3.349   1.748  -1.186  0.00  0.00    +0.115 C 
BRANCH  33  34
ATOM     34  O   UNL     1       4.526   2.446  -0.871  0.00  0.00    -0.386 OA
ATOM     35  H   UNL     1       4.785   2.246   0.042  0.00  0.00    +0.000 HD
ENDBRANCH  33  34
BRANCH  32  36
ATOM     36  O   UNL     1       1.438   3.124  -0.695  0.00  0.00    -0.383 OA
ATOM     37  H   UNL     1       1.081   2.892  -1.566  0.00  0.00    +0.000 HD
ENDBRANCH  32  36
BRANCH  29  38
ATOM     38  C   UNL     1       4.001  -0.479  -2.228  0.00  0.00    +0.073 C 
BRANCH  38  39
ATOM     39  O   UNL     1       3.005  -0.440  -3.213  0.00  0.00    -0.392 OA
ATOM     40  H   UNL     1       3.317  -0.905  -4.006  0.00  0.00    +0.000 HD
ENDBRANCH  38  39
ENDBRANCH  29  38
ENDBRANCH  28  31
ENDBRANCH   1  28
TORSDOF 12
