REMARK  Name = 
REMARK  12 active torsions:
REMARK  status: ('A' for Active; 'I' for Inactive)
REMARK    1  A    between atoms: O_1  and  C_2
REMARK    2  A    between atoms: C_4  and  O_5
REMARK    3  A    between atoms: C_10  and  C_25
REMARK    4  A    between atoms: C_11  and  O_14
REMARK    5  A    between atoms: O_14  and  C_15
REMARK    6  A    between atoms: C_17  and  C_18
REMARK    7  A    between atoms: C_19  and  O_24
REMARK    8  A    between atoms: C_20  and  O_23
REMARK    9  A    between atoms: C_21  and  O_22
REMARK   10  A    between atoms: C_27  and  O_28
REMARK   11  A    between atoms: C_29  and  O_33
REMARK   12  A    between atoms: C_30  and  O_32
REMARK                            x       y       z     vdW  Elec       q    Type
REMARK                         _______ _______ _______ _____ _____    ______ ____
ROOT
ATOM      1  C   UNL     1      -4.011   4.257  -1.363  0.00  0.00    +0.124 A 
ATOM      2  C   UNL     1      -2.875   5.061  -1.271  0.00  0.00    +0.022 A 
ATOM      3  C   UNL     1      -1.665   4.551  -0.782  0.00  0.00    +0.135 A 
ATOM      4  C   UNL     1      -1.574   3.171  -0.429  0.00  0.00    +0.109 A 
ATOM      5  C   UNL     1      -2.748   2.375  -0.505  0.00  0.00    +0.147 A 
ATOM      6  C   UNL     1      -3.948   2.920  -0.967  0.00  0.00    +0.023 A 
ATOM      7  O   UNL     1      -2.730   1.098  -0.141  0.00  0.00    -0.451 OA
ATOM      8  C   UNL     1      -1.639   0.474   0.288  0.00  0.00    +0.181 A 
ATOM      9  C   UNL     1      -0.410   1.162   0.310  0.00  0.00    +0.214 A 
ATOM     10  C   UNL     1      -0.381   2.516  -0.041  0.00  0.00    +0.238 A 
ATOM     11  O   UNL     1       0.730   3.109  -0.044  0.00  0.00    -0.283 OA
ENDROOT
BRANCH   8  12
ATOM     12  C   UNL     1      -1.769  -0.936   0.723  0.00  0.00    +0.028 A 
ATOM     13  C   UNL     1      -2.611  -1.805   0.012  0.00  0.00    -0.006 A 
ATOM     14  C   UNL     1      -2.755  -3.142   0.407  0.00  0.00    +0.163 A 
ATOM     15  C   UNL     1      -2.057  -3.620   1.530  0.00  0.00    +0.201 A 
ATOM     16  C   UNL     1      -1.228  -2.749   2.258  0.00  0.00    +0.163 A 
ATOM     17  C   UNL     1      -1.097  -1.415   1.861  0.00  0.00    -0.006 A 
BRANCH  14  18
ATOM     18  O   UNL     1      -3.588  -3.998  -0.312  0.00  0.00    -0.503 OA
ATOM     19  H   UNL     1      -4.053  -3.680  -1.061  0.00  0.00    +0.000 HD
ENDBRANCH  14  18
BRANCH  16  20
ATOM     20  O   UNL     1      -0.529  -3.190   3.381  0.00  0.00    -0.503 OA
ATOM     21  H   UNL     1      -0.606  -4.081   3.661  0.00  0.00    +0.000 HD
ENDBRANCH  16  20
BRANCH  15  22
ATOM     22  O   UNL     1      -2.183  -4.950   1.934  0.00  0.00    -0.501 OA
ATOM     23  H   UNL     1      -2.734  -5.536   1.452  0.00  0.00    +0.000 HD
ENDBRANCH  15  22
ENDBRANCH   8  12
BRANCH   1  24
ATOM     24  O   UNL     1      -5.201   4.800  -1.843  0.00  0.00    -0.507 OA
ATOM     25  H   UNL     1      -5.233   5.698  -2.107  0.00  0.00    +0.000 HD
ENDBRANCH   1  24
BRANCH   3  26
ATOM     26  O   UNL     1      -0.614   5.463  -0.650  0.00  0.00    -0.506 OA
ATOM     27  H   UNL     1      -0.736   6.358  -0.900  0.00  0.00    +0.000 HD
ENDBRANCH   3  26
BRANCH   9  28
ATOM     28  O   UNL     1       0.784   0.518   0.655  0.00  0.00    -0.453 OA
BRANCH  28  29
ATOM     29  C   UNL     1       1.381  -0.485  -0.170  0.00  0.00    +0.231 C 
ATOM     30  O   UNL     1       2.079  -1.416   0.649  0.00  0.00    -0.334 OA
ATOM     31  C   UNL     1       3.364  -0.935   0.998  0.00  0.00    +0.088 C 
ATOM     32  C   UNL     1       3.923  -1.797   2.130  0.00  0.00    -0.036 C 
ATOM     33  C   UNL     1       4.302  -0.960  -0.239  0.00  0.00    +0.110 C 
ATOM     34  C   UNL     1       3.513  -0.703  -1.549  0.00  0.00    +0.115 C 
ATOM     35  C   UNL     1       2.281   0.177  -1.255  0.00  0.00    +0.145 C 
BRANCH  35  36
ATOM     36  O   UNL     1       1.557   0.469  -2.426  0.00  0.00    -0.383 OA
ATOM     37  H   UNL     1       1.221  -0.355  -2.812  0.00  0.00    +0.000 HD
ENDBRANCH  35  36
BRANCH  34  38
ATOM     38  O   UNL     1       3.107  -1.938  -2.087  0.00  0.00    -0.386 OA
ATOM     39  H   UNL     1       2.540  -2.399  -1.449  0.00  0.00    +0.000 HD
ENDBRANCH  34  38
BRANCH  33  40
ATOM     40  O   UNL     1       5.296   0.021  -0.076  0.00  0.00    -0.387 OA
ATOM     41  H   UNL     1       4.880   0.895  -0.009  0.00  0.00    +0.000 HD
ENDBRANCH  33  40
ENDBRANCH  28  29
ENDBRANCH   9  28
TORSDOF 11
