REMARK  Name = 
REMARK  9 active torsions:
REMARK  status: ('A' for Active; 'I' for Inactive)
REMARK    1  A    between atoms: C_1  and  O_2
REMARK    2  A    between atoms: O_2  and  C_3
REMARK    3  A    between atoms: C_8  and  O_9
REMARK    4  A    between atoms: O_9  and  C_10
REMARK    5  A    between atoms: C_11  and  O_12
REMARK    6  A    between atoms: C_16  and  O_17
REMARK    7  A    between atoms: O_17  and  C_18
REMARK    8  A    between atoms: C_19  and  O_20
REMARK    9  A    between atoms: O_20  and  C_21
REMARK                            x       y       z     vdW  Elec       q    Type
REMARK                         _______ _______ _______ _____ _____    ______ ____
ROOT
ATOM      1  C   UNL     1       2.389   1.949  -0.856  0.00  0.00    +0.162 A 
ATOM      2  C   UNL     1       1.088   1.631  -0.433  0.00  0.00    -0.008 A 
ATOM      3  C   UNL     1       0.715   0.303  -0.116  0.00  0.00    +0.001 A 
ATOM      4  C   UNL     1       1.746  -0.674  -0.032  0.00  0.00    +0.030 A 
ATOM      5  C   UNL     1       3.035  -0.354  -0.512  0.00  0.00    -0.005 A 
ATOM      6  C   UNL     1       3.355   0.947  -0.931  0.00  0.00    +0.162 A 
ATOM      7  C   UNL     1       1.476  -1.941   0.541  0.00  0.00    +0.147 A 
ATOM      8  C   UNL     1       0.160  -2.287   0.903  0.00  0.00    +0.091 A 
ATOM      9  C   UNL     1      -0.863  -1.318   0.822  0.00  0.00    +0.019 A 
ATOM     10  C   UNL     1      -0.630  -0.056   0.216  0.00  0.00    +0.038 A 
ATOM     11  C   UNL     1      -1.764   0.756  -0.096  0.00  0.00    +0.170 A 
ATOM     12  C   UNL     1      -3.019   0.467   0.492  0.00  0.00    +0.163 A 
ATOM     13  C   UNL     1      -3.177  -0.709   1.237  0.00  0.00    -0.008 A 
ATOM     14  C   UNL     1      -2.128  -1.617   1.363  0.00  0.00    -0.011 A 
ATOM     15  C   UNL     1      -2.342  -2.870   2.110  0.00  0.00    -0.039 C 
ATOM     16  C   UNL     1      -1.393  -3.802   2.135  0.00  0.00    +0.005 C 
ATOM     17  N   UNL     1      -0.169  -3.614   1.401  0.00  0.00    -0.246 N 
ATOM     18  C   UNL     1       0.536  -4.786   0.955  0.00  0.00    +0.211 C 
ATOM     19  O   UNL     1       0.405  -5.887   1.555  0.00  0.00    -0.279 OA
ENDROOT
BRANCH   1  21
ATOM     20  C   UNL     1       1.887   4.381  -1.206  0.00  0.00    +0.079 C 
ATOM     21  O   UNL     1       2.762   3.257  -1.212  0.00  0.00    -0.491 OA
ENDBRANCH   1  21
BRANCH   6  22
ATOM     22  O   UNL     1       4.633   1.288  -1.405  0.00  0.00    -0.491 OA
ATOM     23  C   UNL     1       5.714   0.375  -1.553  0.00  0.00    +0.079 C 
ENDBRANCH   6  22
BRANCH   7  24
ATOM     24  O   UNL     1       2.504  -2.842   0.846  0.00  0.00    -0.504 OA
ATOM     25  H   UNL     1       3.389  -2.638   0.617  0.00  0.00    +0.000 HD
ENDBRANCH   7  24
BRANCH  11  26
ATOM     26  O   UNL     1      -1.627   1.788  -1.045  0.00  0.00    -0.491 OA
ATOM     27  C   UNL     1      -2.674   2.347  -1.836  0.00  0.00    +0.079 C 
ENDBRANCH  11  26
BRANCH  12  28
ATOM     28  O   UNL     1      -4.084   1.369   0.333  0.00  0.00    -0.491 OA
ATOM     29  C   UNL     1      -5.391   1.194   0.871  0.00  0.00    +0.079 C 
ENDBRANCH  12  28
TORSDOF 5
