REMARK  Name = 
REMARK  2 active torsions:
REMARK  status: ('A' for Active; 'I' for Inactive)
REMARK    1  A    between atoms: C_1  and  O_2
REMARK    2  A    between atoms: O_2  and  C_3
REMARK                            x       y       z     vdW  Elec       q    Type
REMARK                         _______ _______ _______ _____ _____    ______ ____
ROOT
ATOM      1  C   UNL     1       2.735  -0.251  -0.261  0.00  0.00    +0.123 C 
ATOM      2  C   UNL     1       2.660  -1.289  -1.340  0.00  0.00    +0.167 C 
ATOM      3  O   UNL     1       3.270  -1.162  -2.392  0.00  0.00    -0.294 OA
ATOM      4  C   UNL     1       1.848  -2.516  -1.071  0.00  0.00    +0.034 C 
ATOM      5  C   UNL     1       0.471  -2.128  -0.608  0.00  0.00    -0.032 A 
ATOM      6  C   UNL     1       0.201  -0.831  -0.069  0.00  0.00    -0.026 A 
ATOM      7  C   UNL     1       1.303   0.201   0.172  0.00  0.00    +0.022 C 
ATOM      8  C   UNL     1       0.849   1.547  -0.435  0.00  0.00    -0.017 C 
ATOM      9  C   UNL     1      -0.469   1.965   0.181  0.00  0.00    -0.039 A 
ATOM     10  C   UNL     1      -0.740   3.323   0.406  0.00  0.00    -0.058 A 
ATOM     11  C   UNL     1      -1.935   3.711   1.013  0.00  0.00    -0.061 A 
ATOM     12  C   UNL     1      -2.864   2.748   1.407  0.00  0.00    -0.061 A 
ATOM     13  C   UNL     1      -2.616   1.393   1.172  0.00  0.00    -0.054 A 
ATOM     14  C   UNL     1      -1.431   0.985   0.528  0.00  0.00    -0.011 A 
ATOM     15  C   UNL     1      -1.141  -0.444   0.208  0.00  0.00    +0.032 A 
ATOM     16  C   UNL     1      -2.143  -1.407   0.014  0.00  0.00    +0.174 A 
ATOM     17  C   UNL     1      -1.862  -2.662  -0.424  0.00  0.00    +0.167 A 
ATOM     18  C   UNL     1      -0.574  -3.063  -0.745  0.00  0.00    -0.012 A 
ATOM     19  O   UNL     1      -3.030  -3.391  -0.541  0.00  0.00    -0.453 OA
ATOM     20  C   UNL     1      -4.120  -2.542  -0.167  0.00  0.00    +0.233 C 
ATOM     21  O   UNL     1      -3.514  -1.289   0.166  0.00  0.00    -0.452 OA
ENDROOT
BRANCH   1  23
ATOM     22  C   UNL     1       4.264   1.384   0.376  0.00  0.00    +0.037 C 
ATOM     23  O   UNL     1       3.530   0.841  -0.700  0.00  0.00    -0.372 OA
ENDBRANCH   1  23
TORSDOF 1
