REMARK  Name = 
REMARK  13 active torsions:
REMARK  status: ('A' for Active; 'I' for Inactive)
REMARK    1  A    between atoms: C_1  and  O_2
REMARK    2  A    between atoms: O_2  and  C_3
REMARK    3  A    between atoms: C_5  and  O_6
REMARK    4  A    between atoms: O_6  and  C_7
REMARK    5  A    between atoms: C_10  and  C_11
REMARK    6  A    between atoms: C_12  and  C_13
REMARK    7  A    between atoms: C_15  and  O_24
REMARK    8  A    between atoms: C_21  and  O_22
REMARK    9  A    between atoms: O_22  and  C_23
REMARK   10  A    between atoms: O_24  and  C_25
REMARK   11  A    between atoms: C_27  and  C_32
REMARK   12  A    between atoms: N_28  and  C_31
REMARK   13  A    between atoms: C_29  and  C_30
REMARK                            x       y       z     vdW  Elec       q    Type
REMARK                         _______ _______ _______ _____ _____    ______ ____
ROOT
ATOM      1  C   UNL     1      -0.630  -2.215  -0.078  0.00  0.00    +0.132 A 
ATOM      2  C   UNL     1      -1.974  -2.616  -0.061  0.00  0.00    +0.023 A 
ATOM      3  C   UNL     1      -2.993  -1.741   0.358  0.00  0.00    +0.129 A 
ATOM      4  C   UNL     1      -2.654  -0.419   0.744  0.00  0.00    +0.015 A 
ATOM      5  C   UNL     1      -1.299  -0.026   0.764  0.00  0.00    -0.027 A 
ATOM      6  C   UNL     1      -0.290  -0.924   0.352  0.00  0.00    +0.028 A 
ATOM      7  C   UNL     1      -0.970   1.337   1.341  0.00  0.00    -0.011 C 
ATOM      8  C   UNL     1      -1.935   2.441   0.827  0.00  0.00    +0.012 C 
ATOM      9  N   UNL     1      -3.300   1.951   0.479  0.00  0.00    -0.296 N 
ATOM     10  C   UNL     1      -3.648   0.672   1.154  0.00  0.00    +0.037 C 
ATOM     11  C   UNL     1      -5.149   0.365   1.006  0.00  0.00    -0.045 C 
ATOM     12  C   UNL     1      -3.488   1.901  -0.987  0.00  0.00    -0.012 C 
ATOM     13  C   UNL     1      -2.059   3.564   1.858  0.00  0.00    -0.049 C 
ATOM     14  H   UNL     1      -3.967   2.630   0.845  0.00  0.00    +0.000 HD
ENDROOT
BRANCH   6  15
ATOM     15  C   UNL     1       1.141  -0.521   0.344  0.00  0.00    -0.003 A 
ATOM     16  C   UNL     1       1.953  -0.830   1.454  0.00  0.00    -0.039 A 
ATOM     17  C   UNL     1       1.392  -1.563   2.647  0.00  0.00    -0.039 C 
ATOM     18  C   UNL     1       3.299  -0.457   1.452  0.00  0.00    -0.016 A 
ATOM     19  C   UNL     1       3.868   0.234   0.369  0.00  0.00    +0.132 A 
ATOM     20  C   UNL     1       3.065   0.562  -0.753  0.00  0.00    +0.066 A 
ATOM     21  C   UNL     1       1.692   0.177  -0.762  0.00  0.00    -0.003 A 
ATOM     22  C   UNL     1       0.892   0.502  -1.878  0.00  0.00    -0.053 A 
ATOM     23  C   UNL     1       1.425   1.191  -2.960  0.00  0.00    -0.058 A 
ATOM     24  C   UNL     1       2.761   1.570  -2.961  0.00  0.00    -0.019 A 
ATOM     25  C   UNL     1       3.597   1.266  -1.871  0.00  0.00    +0.131 A 
BRANCH  25  26
ATOM     26  O   UNL     1       4.949   1.653  -1.879  0.00  0.00    -0.494 OA
ATOM     27  C   UNL     1       5.593   2.357  -2.937  0.00  0.00    +0.079 C 
ENDBRANCH  25  26
BRANCH  19  28
ATOM     28  O   UNL     1       5.225   0.604   0.392  0.00  0.00    -0.494 OA
ATOM     29  C   UNL     1       6.131   0.343   1.460  0.00  0.00    +0.079 C 
ENDBRANCH  19  28
ENDBRANCH   6  15
BRANCH   1  31
ATOM     30  C   UNL     1       0.201  -4.408  -0.966  0.00  0.00    +0.079 C 
ATOM     31  O   UNL     1       0.396  -3.074  -0.508  0.00  0.00    -0.494 OA
ENDBRANCH   1  31
BRANCH   3  32
ATOM     32  O   UNL     1      -4.329  -2.170   0.402  0.00  0.00    -0.495 OA
ATOM     33  C   UNL     1      -4.789  -3.468   0.037  0.00  0.00    +0.079 C 
ENDBRANCH   3  32
TORSDOF 5
