REMARK  Name = 
REMARK  4 active torsions:
REMARK  status: ('A' for Active; 'I' for Inactive)
REMARK    1  A    between atoms: O_1  and  C_2
REMARK    2  A    between atoms: C_9  and  C_15
REMARK    3  A    between atoms: C_9  and  C_16
REMARK    4  A    between atoms: C_13  and  C_14
REMARK                            x       y       z     vdW  Elec       q    Type
REMARK                         _______ _______ _______ _____ _____    ______ ____
ROOT
ATOM      1  C   UNL     1      -1.233   1.782   0.973  0.00  0.00    +0.077 C 
ATOM      2  C   UNL     1       0.296   1.733   0.660  0.00  0.00    -0.017 C 
ATOM      3  C   UNL     1       0.722   0.542  -0.254  0.00  0.00    -0.020 C 
ATOM      4  C   UNL     1      -0.191   0.570  -1.483  0.00  0.00    -0.040 C 
ATOM      5  C   UNL     1      -1.461  -0.059  -0.930  0.00  0.00    -0.012 C 
ATOM      6  C   UNL     1      -2.097   0.966   0.010  0.00  0.00    -0.045 C 
ATOM      7  C   UNL     1      -3.431   1.105   0.041  0.00  0.00    -0.097 C 
ATOM      8  C   UNL     1      -0.940  -1.317  -0.173  0.00  0.00    -0.025 C 
ATOM      9  C   UNL     1       0.410  -0.808   0.439  0.00  0.00    -0.029 C 
ATOM     10  C   UNL     1       1.672  -1.670   0.287  0.00  0.00    -0.049 C 
ATOM     11  C   UNL     1       2.807  -0.666   0.202  0.00  0.00    -0.050 C 
ATOM     12  C   UNL     1       2.238   0.488  -0.619  0.00  0.00    -0.038 C 
ATOM     13  C   UNL     1       3.040   1.782  -0.411  0.00  0.00    -0.062 C 
ATOM     14  C   UNL     1      -0.787  -2.490  -1.179  0.00  0.00    -0.059 C 
ATOM     15  C   UNL     1      -1.910  -1.804   0.932  0.00  0.00    -0.059 C 
ENDROOT
BRANCH   1  16
ATOM     16  O   UNL     1      -1.470   1.342   2.285  0.00  0.00    -0.387 OA
ATOM     17  H   UNL     1      -0.925   1.856   2.902  0.00  0.00    +0.000 HD
ENDBRANCH   1  16
TORSDOF 1
