REMARK  Name = 
REMARK  16 active torsions:
REMARK  status: ('A' for Active; 'I' for Inactive)
REMARK    1  A    between atoms: C_1  and  C_2
REMARK    2  A    between atoms: C_2  and  C_3
REMARK    3  A    between atoms: C_3  and  C_4
REMARK    4  A    between atoms: C_4  and  C_5
REMARK    5  A    between atoms: C_5  and  C_6
REMARK    6  A    between atoms: C_6  and  C_7
REMARK    7  A    between atoms: C_7  and  C_8
REMARK    8  A    between atoms: C_8  and  C_9
REMARK    9  A    between atoms: C_10  and  C_11
REMARK   10  A    between atoms: C_11  and  C_12
REMARK   11  A    between atoms: C_12  and  C_13
REMARK   12  A    between atoms: C_13  and  C_14
REMARK   13  A    between atoms: C_14  and  C_15
REMARK   14  A    between atoms: C_15  and  C_16
REMARK   15  A    between atoms: C_16  and  C_17
REMARK   16  A    between atoms: C_17  and  C_18
REMARK                            x       y       z     vdW  Elec       q    Type
REMARK                         _______ _______ _______ _____ _____    ______ ____
ROOT
ATOM      1  C   UNL     1       0.391  -0.177  -1.959  0.00  0.00    -0.088 C 
ATOM      2  C   UNL     1      -0.567   0.715  -1.646  0.00  0.00    -0.088 C 
ENDROOT
BRANCH   1   3
ATOM      3  C   UNL     1       0.728  -1.398  -1.138  0.00  0.00    -0.035 C 
BRANCH   3   4
ATOM      4  C   UNL     1       1.707  -1.072  -0.001  0.00  0.00    -0.050 C 
BRANCH   4   5
ATOM      5  C   UNL     1       3.102  -0.701  -0.526  0.00  0.00    -0.053 C 
BRANCH   5   6
ATOM      6  C   UNL     1       4.070  -0.426   0.631  0.00  0.00    -0.053 C 
BRANCH   6   7
ATOM      7  C   UNL     1       5.462  -0.052   0.108  0.00  0.00    -0.053 C 
BRANCH   7   8
ATOM      8  C   UNL     1       6.433   0.213   1.268  0.00  0.00    -0.053 C 
BRANCH   8  10
ATOM      9  C   UNL     1       8.618  -0.381   0.091  0.00  0.00    -0.065 C 
ATOM     10  C   UNL     1       7.805   0.710   0.789  0.00  0.00    -0.056 C 
ENDBRANCH   8  10
ENDBRANCH   7   8
ENDBRANCH   6   7
ENDBRANCH   5   6
ENDBRANCH   4   5
ENDBRANCH   3   4
ENDBRANCH   1   3
BRANCH   2  11
ATOM     11  C   UNL     1      -1.512   0.581  -0.479  0.00  0.00    -0.035 C 
BRANCH  11  12
ATOM     12  C   UNL     1      -2.746  -0.243  -0.874  0.00  0.00    -0.050 C 
BRANCH  12  13
ATOM     13  C   UNL     1      -3.659  -0.545   0.323  0.00  0.00    -0.053 C 
BRANCH  13  14
ATOM     14  C   UNL     1      -4.333   0.717   0.889  0.00  0.00    -0.053 C 
BRANCH  14  15
ATOM     15  C   UNL     1      -5.468   0.373   1.875  0.00  0.00    -0.053 C 
BRANCH  15  16
ATOM     16  C   UNL     1      -6.880   0.619   1.310  0.00  0.00    -0.043 C 
BRANCH  16  17
ATOM     17  C   UNL     1      -7.301  -0.376   0.212  0.00  0.00    +0.045 C 
BRANCH  17  18
ATOM     18  C   UNL     1      -6.829   0.028  -1.154  0.00  0.00    +0.305 C 
ATOM     19  O   UNL     1      -7.092   1.176  -1.603  0.00  0.00    -0.251 OA
ATOM     20  O   UNL     1      -6.145  -0.885  -1.950  0.00  0.00    -0.481 OA
ENDBRANCH  17  18
ENDBRANCH  16  17
ENDBRANCH  15  16
ENDBRANCH  14  15
ENDBRANCH  13  14
ENDBRANCH  12  13
ENDBRANCH  11  12
ENDBRANCH   2  11
TORSDOF 15
