REMARK  Name = 
REMARK  30 active torsions:
REMARK  status: ('A' for Active; 'I' for Inactive)
REMARK    1  A    between atoms: C_1  and  C_2
REMARK    2  A    between atoms: C_2  and  C_3
REMARK    3  A    between atoms: C_3  and  C_4
REMARK    4  A    between atoms: C_4  and  C_5
REMARK    5  A    between atoms: C_5  and  C_6
REMARK    6  A    between atoms: C_6  and  C_7
REMARK    7  A    between atoms: C_7  and  C_8
REMARK    8  A    between atoms: C_7  and  O_44
REMARK    9  A    between atoms: C_8  and  C_9
REMARK   10  A    between atoms: C_9  and  C_10
REMARK   11  A    between atoms: C_10  and  C_11
REMARK   12  A    between atoms: C_11  and  C_12
REMARK   13  A    between atoms: C_11  and  O_43
REMARK   14  A    between atoms: C_15  and  C_17
REMARK   15  A    between atoms: C_20  and  C_22
REMARK   16  A    between atoms: C_22  and  C_23
REMARK   17  A    between atoms: C_22  and  O_42
REMARK   18  A    between atoms: C_23  and  C_24
REMARK   19  A    between atoms: C_24  and  C_25
REMARK   20  A    between atoms: C_25  and  C_26
REMARK   21  A    between atoms: C_26  and  C_27
REMARK   22  A    between atoms: C_27  and  C_28
REMARK   23  A    between atoms: C_28  and  C_29
REMARK   24  A    between atoms: C_29  and  C_30
REMARK   25  A    between atoms: C_30  and  C_31
REMARK   26  A    between atoms: C_31  and  C_32
REMARK   27  A    between atoms: C_32  and  C_33
REMARK   28  A    between atoms: C_33  and  C_34
REMARK   29  A    between atoms: C_34  and  C_35
REMARK   30  A    between atoms: C_37  and  C_41
REMARK                            x       y       z     vdW  Elec       q    Type
REMARK                         _______ _______ _______ _____ _____    ______ ____
ROOT
ATOM      1  C   UNL     1      -0.942  -0.121  -0.919  0.00  0.00    +0.085 C 
ATOM      2  C   UNL     1       0.426   0.255  -1.495  0.00  0.00    -0.022 C 
ATOM      3  C   UNL     1       1.255   0.546  -0.281  0.00  0.00    -0.022 C 
ATOM      4  C   UNL     1       0.542  -0.231   0.817  0.00  0.00    +0.085 C 
ATOM      5  O   UNL     1      -0.826  -0.288   0.479  0.00  0.00    -0.368 OA
ENDROOT
BRANCH   1   9
ATOM      6  C   UNL     1      -4.196   0.246  -1.192  0.00  0.00    +0.085 C 
ATOM      7  C   UNL     1      -3.711   0.093  -2.636  0.00  0.00    -0.022 C 
ATOM      8  C   UNL     1      -2.461   0.918  -2.679  0.00  0.00    -0.022 C 
ATOM      9  C   UNL     1      -2.012   0.952  -1.224  0.00  0.00    +0.085 C 
ATOM     10  O   UNL     1      -3.140   0.748  -0.399  0.00  0.00    -0.368 OA
BRANCH   6  11
ATOM     11  C   UNL     1      -5.417   1.187  -1.050  0.00  0.00    +0.081 C 
BRANCH  11  12
ATOM     12  O   UNL     1      -5.152   2.397  -1.715  0.00  0.00    -0.389 OA
ATOM     13  H   UNL     1      -5.023   2.225  -2.660  0.00  0.00    +0.000 HD
ENDBRANCH  11  12
BRANCH  11  14
ATOM     14  C   UNL     1      -6.734   0.575  -1.594  0.00  0.00    -0.024 C 
BRANCH  14  15
ATOM     15  C   UNL     1      -7.296  -0.612  -0.782  0.00  0.00    -0.048 C 
BRANCH  15  16
ATOM     16  C   UNL     1      -7.635  -0.315   0.696  0.00  0.00    -0.027 C 
BRANCH  16  17
ATOM     17  C   UNL     1      -8.678   0.804   0.952  0.00  0.00    +0.055 C 
BRANCH  17  18
ATOM     18  O   UNL     1      -8.116   2.065   0.690  0.00  0.00    -0.392 OA
ATOM     19  H   UNL     1      -7.885   2.127  -0.250  0.00  0.00    +0.000 HD
ENDBRANCH  17  18
BRANCH  17  20
ATOM     20  C   UNL     1      -9.984   0.664   0.143  0.00  0.00    -0.027 C 
BRANCH  20  21
ATOM     21  C   UNL     1     -10.774  -0.609   0.498  0.00  0.00    -0.051 C 
BRANCH  21  22
ATOM     22  C   UNL     1     -12.050  -0.781  -0.347  0.00  0.00    -0.053 C 
BRANCH  22  23
ATOM     23  C   UNL     1     -13.093   0.342  -0.196  0.00  0.00    -0.053 C 
BRANCH  23  25
ATOM     24  C   UNL     1     -14.749   1.502   1.313  0.00  0.00    -0.065 C 
ATOM     25  C   UNL     1     -13.596   0.505   1.246  0.00  0.00    -0.056 C 
ENDBRANCH  23  25
ENDBRANCH  22  23
ENDBRANCH  21  22
ENDBRANCH  20  21
ENDBRANCH  17  20
ENDBRANCH  16  17
ENDBRANCH  15  16
ENDBRANCH  14  15
ENDBRANCH  11  14
ENDBRANCH   6  11
ENDBRANCH   1   9
BRANCH   4  26
ATOM     26  C   UNL     1       1.103  -1.669   0.994  0.00  0.00    +0.081 C 
BRANCH  26  27
ATOM     27  O   UNL     1       0.161  -2.495   1.633  0.00  0.00    -0.389 OA
ATOM     28  H   UNL     1      -0.021  -2.151   2.521  0.00  0.00    +0.000 HD
ENDBRANCH  26  27
BRANCH  26  29
ATOM     29  C   UNL     1       2.433  -1.675   1.781  0.00  0.00    -0.024 C 
BRANCH  29  30
ATOM     30  C   UNL     1       3.134  -3.040   1.685  0.00  0.00    -0.051 C 
BRANCH  30  31
ATOM     31  C   UNL     1       4.454  -3.088   2.483  0.00  0.00    -0.053 C 
BRANCH  31  32
ATOM     32  C   UNL     1       5.716  -2.900   1.616  0.00  0.00    -0.053 C 
BRANCH  32  33
ATOM     33  C   UNL     1       5.891  -1.497   1.010  0.00  0.00    -0.053 C 
BRANCH  33  34
ATOM     34  C   UNL     1       6.050  -0.402   2.081  0.00  0.00    -0.053 C 
BRANCH  34  35
ATOM     35  C   UNL     1       6.431   0.964   1.476  0.00  0.00    -0.053 C 
BRANCH  35  36
ATOM     36  C   UNL     1       7.934   1.295   1.571  0.00  0.00    -0.053 C 
BRANCH  36  37
ATOM     37  C   UNL     1       8.808   0.548   0.544  0.00  0.00    -0.053 C 
BRANCH  37  38
ATOM     38  C   UNL     1       9.504  -0.685   1.147  0.00  0.00    -0.053 C 
BRANCH  38  39
ATOM     39  C   UNL     1      10.156  -1.585   0.079  0.00  0.00    -0.049 C 
BRANCH  39  40
ATOM     40  C   UNL     1      11.572  -1.146  -0.330  0.00  0.00    -0.021 C 
BRANCH  40  41
ATOM     41  C   UNL     1      11.581   0.098  -1.171  0.00  0.00    +0.036 C 
ATOM     42  C   UNL     1      12.157   1.250  -0.848  0.00  0.00    -0.034 C 
ATOM     43  C   UNL     1      12.000   2.253  -1.963  0.00  0.00    +0.120 C 
ATOM     44  O   UNL     1      11.265   1.540  -2.956  0.00  0.00    -0.454 OA
ATOM     45  C   UNL     1      11.022   0.261  -2.494  0.00  0.00    +0.336 C 
ATOM     46  O   UNL     1      10.406  -0.619  -3.150  0.00  0.00    -0.245 OA
ATOM     47  C   UNL     1      11.223   3.483  -1.505  0.00  0.00    -0.024 C 
ENDBRANCH  40  41
ENDBRANCH  39  40
ENDBRANCH  38  39
ENDBRANCH  37  38
ENDBRANCH  36  37
ENDBRANCH  35  36
ENDBRANCH  34  35
ENDBRANCH  33  34
ENDBRANCH  32  33
ENDBRANCH  31  32
ENDBRANCH  30  31
ENDBRANCH  29  30
ENDBRANCH  26  29
ENDBRANCH   4  26
TORSDOF 28
