REMARK  Name = 
REMARK  7 active torsions:
REMARK  status: ('A' for Active; 'I' for Inactive)
REMARK    1  A    between atoms: C_1  and  O_2
REMARK    2  A    between atoms: O_2  and  C_3
REMARK    3  A    between atoms: C_6  and  C_7
REMARK    4  A    between atoms: C_24  and  O_28
REMARK    5  A    between atoms: C_25  and  O_26
REMARK    6  A    between atoms: O_26  and  C_27
REMARK    7  A    between atoms: O_28  and  C_29
REMARK                            x       y       z     vdW  Elec       q    Type
REMARK                         _______ _______ _______ _____ _____    ______ ____
ROOT
ATOM      1  C   UNL     1      -1.358   1.641  -0.275  0.00  0.00    +0.165 A 
ATOM      2  C   UNL     1      -0.233   0.862   0.042  0.00  0.00    -0.012 A 
ATOM      3  C   UNL     1      -0.130  -0.467  -0.386  0.00  0.00    -0.029 A 
ATOM      4  C   UNL     1       1.054  -1.371  -0.054  0.00  0.00    +0.023 C 
ATOM      5  C   UNL     1       0.504  -2.607   0.715  0.00  0.00    +0.073 C 
ATOM      6  C   UNL     1      -0.221  -2.256   1.974  0.00  0.00    +0.312 C 
ATOM      7  O   UNL     1       0.230  -1.508   2.881  0.00  0.00    -0.250 OA
ATOM      8  O   UNL     1      -1.470  -2.824   2.052  0.00  0.00    -0.464 OA
ATOM      9  C   UNL     1      -1.754  -3.622   0.921  0.00  0.00    +0.096 C 
ATOM     10  C   UNL     1      -0.613  -3.349  -0.092  0.00  0.00    +0.011 C 
ATOM     11  C   UNL     1      -1.135  -2.555  -1.326  0.00  0.00    -0.017 C 
ATOM     12  C   UNL     1      -1.222  -1.067  -1.034  0.00  0.00    +0.002 A 
ATOM     13  C   UNL     1      -2.361  -0.310  -1.375  0.00  0.00    +0.169 A 
ATOM     14  C   UNL     1      -2.427   1.064  -1.012  0.00  0.00    +0.204 A 
ENDROOT
BRANCH   4  15
ATOM     15  C   UNL     1       2.291  -0.677   0.523  0.00  0.00    -0.035 A 
ATOM     16  C   UNL     1       2.949  -1.114   1.710  0.00  0.00    -0.054 A 
ATOM     17  C   UNL     1       4.113  -0.471   2.170  0.00  0.00    -0.016 A 
ATOM     18  C   UNL     1       4.619   0.578   1.413  0.00  0.00    +0.166 A 
ATOM     19  C   UNL     1       4.033   0.976   0.260  0.00  0.00    +0.167 A 
ATOM     20  C   UNL     1       2.883   0.369  -0.231  0.00  0.00    -0.012 A 
ATOM     21  O   UNL     1       4.755   2.019  -0.288  0.00  0.00    -0.453 OA
ATOM     22  C   UNL     1       5.863   2.294   0.580  0.00  0.00    +0.233 C 
ATOM     23  O   UNL     1       5.740   1.350   1.653  0.00  0.00    -0.453 OA
ENDBRANCH   4  15
BRANCH   1  25
ATOM     24  C   UNL     1      -0.425   3.677   0.865  0.00  0.00    +0.079 C 
ATOM     25  O   UNL     1      -1.434   2.982   0.138  0.00  0.00    -0.491 OA
ENDBRANCH   1  25
BRANCH  14  26
ATOM     26  O   UNL     1      -3.563   1.802  -1.396  0.00  0.00    -0.488 OA
ATOM     27  C   UNL     1      -3.808   3.188  -1.181  0.00  0.00    +0.079 C 
ENDBRANCH  14  26
BRANCH  13  28
ATOM     28  O   UNL     1      -3.390  -0.979  -2.070  0.00  0.00    -0.491 OA
ATOM     29  C   UNL     1      -4.654  -0.451  -2.457  0.00  0.00    +0.079 C 
ENDBRANCH  13  28
TORSDOF 4
