REMARK  Name = 
REMARK  8 active torsions:
REMARK  status: ('A' for Active; 'I' for Inactive)
REMARK    1  A    between atoms: C_2  and  C_3
REMARK    2  A    between atoms: C_2  and  O_9
REMARK    3  A    between atoms: O_9  and  C_10
REMARK    4  A    between atoms: C_10  and  C_11
REMARK    5  A    between atoms: C_16  and  O_19
REMARK    6  A    between atoms: C_17  and  O_18
REMARK    7  A    between atoms: O_19  and  C_20
REMARK    8  A    between atoms: C_20  and  C_22
REMARK                            x       y       z     vdW  Elec       q    Type
REMARK                         _______ _______ _______ _____ _____    ______ ____
ROOT
ATOM      1  C   UNL     1      -0.647  -1.131   1.549  0.00  0.00    +0.163 C 
ATOM      2  O   UNL     1      -0.463  -2.481   1.929  0.00  0.00    -0.354 OA
ATOM      3  C   UNL     1      -1.210  -2.255   0.750  0.00  0.00    +0.113 C 
ATOM      4  C   UNL     1      -0.447  -2.654  -0.485  0.00  0.00    -0.053 C 
ATOM      5  C   UNL     1       0.798  -2.219  -0.737  0.00  0.00    -0.043 C 
ATOM      6  C   UNL     1       1.579  -1.416   0.271  0.00  0.00    +0.150 C 
ATOM      7  C   UNL     1       0.654  -0.451   1.054  0.00  0.00    +0.130 C 
ENDROOT
BRANCH   7   8
ATOM      8  O   UNL     1       1.345   0.128   2.133  0.00  0.00    -0.385 OA
ATOM      9  H   UNL     1       1.611  -0.567   2.756  0.00  0.00    +0.000 HD
ENDBRANCH   7   8
BRANCH   1  10
ATOM     10  C   UNL     1      -1.604  -0.378   2.491  0.00  0.00    +0.127 C 
BRANCH  10  11
ATOM     11  O   UNL     1      -2.874  -0.171   1.878  0.00  0.00    -0.458 OA
BRANCH  11  13
ATOM     12  O   UNL     1      -2.138   1.415   0.370  0.00  0.00    -0.245 OA
ATOM     13  C   UNL     1      -3.087   0.709   0.809  0.00  0.00    +0.339 C 
BRANCH  13  14
ATOM     14  C   UNL     1      -4.431   0.806   0.198  0.00  0.00    +0.059 A 
ATOM     15  C   UNL     1      -4.666   1.659  -0.898  0.00  0.00    -0.048 A 
ATOM     16  C   UNL     1      -5.940   1.743  -1.470  0.00  0.00    -0.061 A 
ATOM     17  C   UNL     1      -6.989   0.978  -0.957  0.00  0.00    -0.062 A 
ATOM     18  C   UNL     1      -6.767   0.128   0.130  0.00  0.00    -0.061 A 
ATOM     19  C   UNL     1      -5.495   0.039   0.704  0.00  0.00    -0.048 A 
ENDBRANCH  13  14
ENDBRANCH  11  13
ENDBRANCH  10  11
ENDBRANCH   1  10
BRANCH   6  20
ATOM     20  O   UNL     1       2.588  -0.678  -0.419  0.00  0.00    -0.451 OA
BRANCH  20  21
ATOM     21  C   UNL     1       3.779  -0.240   0.176  0.00  0.00    +0.340 C 
ATOM     22  O   UNL     1       4.043  -0.552   1.370  0.00  0.00    -0.245 OA
BRANCH  21  23
ATOM     23  C   UNL     1       4.735   0.577  -0.605  0.00  0.00    +0.059 A 
ATOM     24  C   UNL     1       5.949   1.003  -0.033  0.00  0.00    -0.048 A 
ATOM     25  C   UNL     1       6.850   1.774  -0.776  0.00  0.00    -0.061 A 
ATOM     26  C   UNL     1       6.550   2.127  -2.095  0.00  0.00    -0.062 A 
ATOM     27  C   UNL     1       5.350   1.707  -2.673  0.00  0.00    -0.061 A 
ATOM     28  C   UNL     1       4.445   0.936  -1.934  0.00  0.00    -0.048 A 
ENDBRANCH  21  23
ENDBRANCH  20  21
ENDBRANCH   6  20
TORSDOF 8
