REMARK  Name = 
REMARK  9 active torsions:
REMARK  status: ('A' for Active; 'I' for Inactive)
REMARK    1  A    between atoms: C_1  and  O_2
REMARK    2  A    between atoms: O_2  and  C_3
REMARK    3  A    between atoms: C_4  and  O_20
REMARK    4  A    between atoms: C_8  and  C_9
REMARK    5  A    between atoms: C_9  and  O_10
REMARK    6  A    between atoms: O_10  and  C_11
REMARK    7  A    between atoms: C_11  and  C_13
REMARK    8  A    between atoms: O_20  and  C_21
REMARK    9  A    between atoms: C_21  and  C_23
REMARK                            x       y       z     vdW  Elec       q    Type
REMARK                         _______ _______ _______ _____ _____    ______ ____
ROOT
ATOM      1  C   UNL     1       0.588  -0.512   0.507  0.00  0.00    +0.134 C 
ATOM      2  C   UNL     1       1.339   0.756   0.050  0.00  0.00    +0.151 C 
ATOM      3  C   UNL     1       1.218   1.859   1.074  0.00  0.00    -0.043 C 
ATOM      4  C   UNL     1       0.086   2.045   1.768  0.00  0.00    -0.053 C 
ATOM      5  C   UNL     1      -1.080   1.097   1.674  0.00  0.00    +0.113 C 
ATOM      6  C   UNL     1      -0.849  -0.200   0.985  0.00  0.00    +0.163 C 
ATOM      7  O   UNL     1      -1.472   0.885   0.331  0.00  0.00    -0.354 OA
ENDROOT
BRANCH   1   9
ATOM      8  C   UNL     1       1.327  -2.544  -0.363  0.00  0.00    +0.037 C 
ATOM      9  O   UNL     1       0.513  -1.414  -0.586  0.00  0.00    -0.373 OA
ENDBRANCH   1   9
BRANCH   6  10
ATOM     10  C   UNL     1      -1.788  -1.351   1.387  0.00  0.00    +0.127 C 
BRANCH  10  11
ATOM     11  O   UNL     1      -3.165  -0.989   1.273  0.00  0.00    -0.458 OA
BRANCH  11  12
ATOM     12  C   UNL     1      -3.849  -0.940   0.051  0.00  0.00    +0.339 C 
ATOM     13  O   UNL     1      -3.263  -1.273  -1.016  0.00  0.00    -0.245 OA
BRANCH  12  14
ATOM     14  C   UNL     1      -5.259  -0.493   0.016  0.00  0.00    +0.059 A 
ATOM     15  C   UNL     1      -5.970  -0.451  -1.199  0.00  0.00    -0.048 A 
ATOM     16  C   UNL     1      -7.301  -0.023  -1.224  0.00  0.00    -0.061 A 
ATOM     17  C   UNL     1      -7.935   0.367  -0.043  0.00  0.00    -0.062 A 
ATOM     18  C   UNL     1      -7.239   0.331   1.167  0.00  0.00    -0.061 A 
ATOM     19  C   UNL     1      -5.907  -0.096   1.200  0.00  0.00    -0.048 A 
ENDBRANCH  12  14
ENDBRANCH  11  12
ENDBRANCH  10  11
ENDBRANCH   6  10
BRANCH   2  20
ATOM     20  O   UNL     1       2.713   0.433  -0.161  0.00  0.00    -0.451 OA
BRANCH  20  21
ATOM     21  C   UNL     1       3.600   1.246  -0.880  0.00  0.00    +0.340 C 
ATOM     22  O   UNL     1       3.194   2.324  -1.396  0.00  0.00    -0.245 OA
BRANCH  21  23
ATOM     23  C   UNL     1       5.012   0.833  -1.034  0.00  0.00    +0.059 A 
ATOM     24  C   UNL     1       5.921   1.633  -1.752  0.00  0.00    -0.048 A 
ATOM     25  C   UNL     1       7.254   1.235  -1.893  0.00  0.00    -0.061 A 
ATOM     26  C   UNL     1       7.694   0.039  -1.321  0.00  0.00    -0.062 A 
ATOM     27  C   UNL     1       6.800  -0.763  -0.608  0.00  0.00    -0.061 A 
ATOM     28  C   UNL     1       5.465  -0.371  -0.463  0.00  0.00    -0.048 A 
ENDBRANCH  21  23
ENDBRANCH  20  21
ENDBRANCH   2  20
TORSDOF 8
