REMARK  Name = 
REMARK  4 active torsions:
REMARK  status: ('A' for Active; 'I' for Inactive)
REMARK    1  A    between atoms: C_1  and  C_2
REMARK    2  A    between atoms: C_2  and  C_3
REMARK    3  A    between atoms: C_2  and  C_17
REMARK    4  A    between atoms: C_6  and  C_16
REMARK                            x       y       z     vdW  Elec       q    Type
REMARK                         _______ _______ _______ _____ _____    ______ ____
ROOT
ATOM      1  C   UNL     1      -1.693  -0.104   0.836  0.00  0.00    +0.020 C 
ATOM      2  C   UNL     1      -1.103   1.189   1.478  0.00  0.00    -0.042 C 
ATOM      3  C   UNL     1       0.070   1.856   0.708  0.00  0.00    -0.039 C 
ATOM      4  C   UNL     1       1.124   0.875   0.063  0.00  0.00    +0.039 C 
ATOM      5  C   UNL     1       0.833  -0.589   0.517  0.00  0.00    +0.051 C 
ATOM      6  C   UNL     1      -0.603  -0.910   0.152  0.00  0.00    +0.145 C 
ATOM      7  O   UNL     1      -0.872  -1.739  -0.705  0.00  0.00    -0.296 OA
ATOM      8  C   UNL     1       1.915  -1.577   0.077  0.00  0.00    -0.065 C 
ATOM      9  C   UNL     1       1.691  -2.902   0.019  0.00  0.00    -0.099 C 
ATOM     10  C   UNL     1       3.344  -1.081  -0.032  0.00  0.00    -0.025 C 
ATOM     11  C   UNL     1       3.568   0.197   0.791  0.00  0.00    +0.010 C 
ATOM     12  C   UNL     1       2.546   1.255   0.463  0.00  0.00    +0.140 C 
ATOM     13  O   UNL     1       2.885   2.430   0.483  0.00  0.00    -0.297 OA
ATOM     14  C   UNL     1       1.058   0.998  -1.482  0.00  0.00    -0.052 C 
ENDROOT
BRANCH   1  16
ATOM     15  C   UNL     1      -2.700   0.810  -1.387  0.00  0.00    -0.062 C 
ATOM     16  C   UNL     1      -2.975   0.174  -0.018  0.00  0.00    -0.037 C 
ATOM     17  C   UNL     1      -3.844  -1.084  -0.185  0.00  0.00    -0.062 C 
ENDBRANCH   1  16
TORSDOF 1
