REMARK  Name = 
REMARK  14 active torsions:
REMARK  status: ('A' for Active; 'I' for Inactive)
REMARK    1  A    between atoms: C_1  and  C_2
REMARK    2  A    between atoms: C_2  and  C_32
REMARK    3  A    between atoms: C_3  and  C_4
REMARK    4  A    between atoms: C_4  and  C_5
REMARK    5  A    between atoms: C_5  and  C_6
REMARK    6  A    between atoms: C_6  and  C_7
REMARK    7  A    between atoms: C_6  and  C_31
REMARK    8  A    between atoms: C_9  and  O_30
REMARK    9  A    between atoms: C_10  and  C_29
REMARK   10  A    between atoms: C_11  and  C_12
REMARK   11  A    between atoms: C_20  and  C_21
REMARK   12  A    between atoms: C_24  and  O_28
REMARK   13  A    between atoms: C_25  and  C_26
REMARK   14  A    between atoms: C_25  and  C_27
REMARK                            x       y       z     vdW  Elec       q    Type
REMARK                         _______ _______ _______ _____ _____    ______ ____
ROOT
ATOM      1  C   UNL     1       2.320   0.462   0.463  0.00  0.00    -0.030 C 
ATOM      2  C   UNL     1       2.498   0.536  -1.083  0.00  0.00    -0.022 C 
ATOM      3  C   UNL     1       1.085   0.505  -1.718  0.00  0.00    +0.065 C 
ATOM      4  C   UNL     1       0.121   0.764  -0.536  0.00  0.00    +0.025 C 
ATOM      5  C   UNL     1       0.839  -0.005   0.624  0.00  0.00    -0.014 C 
ATOM      6  C   UNL     1       0.760  -1.566   0.443  0.00  0.00    -0.058 C 
ATOM      7  C   UNL     1       0.124   0.358   1.950  0.00  0.00    -0.028 C 
ATOM      8  C   UNL     1      -1.376   0.134   1.841  0.00  0.00    -0.079 C 
ATOM      9  C   UNL     1      -2.063   0.097   0.663  0.00  0.00    -0.042 C 
ATOM     10  C   UNL     1      -1.305   0.246  -0.633  0.00  0.00    -0.039 C 
ATOM     11  C   UNL     1      -1.915   0.088  -1.820  0.00  0.00    -0.080 C 
ATOM     12  C   UNL     1      -3.358  -0.299  -1.937  0.00  0.00    -0.030 C 
ATOM     13  C   UNL     1      -4.160   0.246  -0.732  0.00  0.00    -0.021 C 
ATOM     14  C   UNL     1      -3.558  -0.287   0.626  0.00  0.00    -0.003 C 
ATOM     15  C   UNL     1      -3.599  -1.831   0.777  0.00  0.00    -0.055 C 
ATOM     16  C   UNL     1      -4.337   0.376   1.802  0.00  0.00    -0.041 C 
ATOM     17  C   UNL     1      -5.857   0.222   1.690  0.00  0.00    -0.026 C 
ATOM     18  C   UNL     1      -6.390   0.820   0.377  0.00  0.00    +0.061 C 
ATOM     19  C   UNL     1      -5.735   0.196  -0.898  0.00  0.00    -0.005 C 
ATOM     20  C   UNL     1      -6.285  -1.230  -1.177  0.00  0.00    -0.057 C 
ATOM     21  C   UNL     1      -6.151   1.084  -2.104  0.00  0.00    -0.057 C 
ATOM     22  C   UNL     1      -0.008   2.308  -0.304  0.00  0.00    -0.053 C 
ENDROOT
BRANCH   1  23
ATOM     23  C   UNL     1       3.456  -0.374   1.154  0.00  0.00    -0.040 C 
ATOM     24  C   UNL     1       3.249  -0.466   2.679  0.00  0.00    -0.062 C 
BRANCH  23  25
ATOM     25  C   UNL     1       4.854   0.248   0.863  0.00  0.00    -0.047 C 
BRANCH  25  26
ATOM     26  C   UNL     1       6.011  -0.740   1.095  0.00  0.00    -0.034 C 
BRANCH  26  29
ATOM     27  C   UNL     1       6.937  -1.163  -1.731  0.00  0.00    -0.044 C 
ATOM     28  C   UNL     1       7.722  -0.349  -0.728  0.00  0.00    -0.080 C 
ATOM     29  C   UNL     1       7.304  -0.189   0.548  0.00  0.00    -0.085 C 
ATOM     30  C   UNL     1       9.018   0.295  -1.146  0.00  0.00    -0.044 C 
ENDBRANCH  26  29
ENDBRANCH  25  26
ENDBRANCH  23  25
ENDBRANCH   1  23
BRANCH  18  31
ATOM     31  O   UNL     1      -7.797   0.755   0.332  0.00  0.00    -0.391 OA
ATOM     32  H   UNL     1      -8.078  -0.174   0.338  0.00  0.00    +0.000 HD
ENDBRANCH  18  31
BRANCH   3  33
ATOM     33  O   UNL     1       0.937   1.408  -2.792  0.00  0.00    -0.391 OA
ATOM     34  H   UNL     1       1.105   2.311  -2.480  0.00  0.00    +0.000 HD
ENDBRANCH   3  33
TORSDOF 6
