REMARK  Name = 
REMARK  3 active torsions:
REMARK  status: ('A' for Active; 'I' for Inactive)
REMARK    1  A    between atoms: C_1  and  O_2
REMARK    2  A    between atoms: O_2  and  C_3
REMARK    3  A    between atoms: C_19  and  O_20
REMARK                            x       y       z     vdW  Elec       q    Type
REMARK                         _______ _______ _______ _____ _____    ______ ____
ROOT
ATOM      1  C   UNL     1      -2.387  -0.367  -0.147  0.00  0.00    +0.163 A 
ATOM      2  C   UNL     1      -2.809   0.955  -0.396  0.00  0.00    -0.016 A 
ATOM      3  C   UNL     1      -1.876   1.992  -0.498  0.00  0.00    -0.050 A 
ATOM      4  C   UNL     1      -0.507   1.726  -0.358  0.00  0.00    -0.014 A 
ATOM      5  C   UNL     1      -0.081   0.403  -0.118  0.00  0.00    +0.037 A 
ATOM      6  C   UNL     1      -1.018  -0.636  -0.006  0.00  0.00    +0.182 A 
ATOM      7  O   UNL     1      -0.607  -1.873   0.246  0.00  0.00    -0.418 OA
ATOM      8  C   UNL     1       0.674  -2.208   0.387  0.00  0.00    +0.349 A 
ATOM      9  O   UNL     1       0.937  -3.402   0.678  0.00  0.00    -0.244 OA
ATOM     10  C   UNL     1       1.698  -1.233   0.244  0.00  0.00    +0.109 A 
ATOM     11  C   UNL     1       1.286   0.105   0.018  0.00  0.00    +0.011 A 
ATOM     12  C   UNL     1       2.233   1.151  -0.067  0.00  0.00    -0.016 A 
ATOM     13  C   UNL     1       1.803   2.468  -0.300  0.00  0.00    -0.053 A 
ATOM     14  C   UNL     1       0.442   2.753  -0.449  0.00  0.00    -0.053 A 
ATOM     15  C   UNL     1       3.591   0.866   0.087  0.00  0.00    -0.051 A 
ATOM     16  C   UNL     1       4.012  -0.447   0.291  0.00  0.00    -0.019 A 
ATOM     17  C   UNL     1       3.096  -1.505   0.341  0.00  0.00    +0.131 A 
ENDROOT
BRANCH   1  19
ATOM     18  C   UNL     1      -4.708  -1.302  -0.151  0.00  0.00    +0.079 C 
ATOM     19  O   UNL     1      -3.295  -1.432  -0.031  0.00  0.00    -0.491 OA
ENDBRANCH   1  19
BRANCH  17  20
ATOM     20  O   UNL     1       3.637  -2.789   0.459  0.00  0.00    -0.506 OA
ATOM     21  H   UNL     1       4.565  -2.903   0.518  0.00  0.00    +0.000 HD
ENDBRANCH  17  20
TORSDOF 2
