REMARK  Name = 
REMARK  7 active torsions:
REMARK  status: ('A' for Active; 'I' for Inactive)
REMARK    1  A    between atoms: C_1  and  O_2
REMARK    2  A    between atoms: O_2  and  C_3
REMARK    3  A    between atoms: C_4  and  O_5
REMARK    4  A    between atoms: C_6  and  O_7
REMARK    5  A    between atoms: C_8  and  O_13
REMARK    6  A    between atoms: C_9  and  O_12
REMARK    7  A    between atoms: C_10  and  O_11
REMARK                            x       y       z     vdW  Elec       q    Type
REMARK                         _______ _______ _______ _____ _____    ______ ____
ROOT
ATOM      1  C   UNL     1       1.041   0.096  -0.001  0.00  0.00    +0.115 C 
ATOM      2  C   UNL     1       0.290  -1.165   0.509  0.00  0.00    +0.112 C 
ATOM      3  C   UNL     1      -1.121  -1.260  -0.113  0.00  0.00    +0.112 C 
ATOM      4  C   UNL     1      -2.008  -0.039   0.272  0.00  0.00    +0.112 C 
ATOM      5  C   UNL     1      -1.176   1.224   0.614  0.00  0.00    +0.112 C 
ATOM      6  C   UNL     1       0.092   1.302  -0.258  0.00  0.00    +0.112 C 
ENDROOT
BRANCH   1   8
ATOM      7  C   UNL     1       3.106  -0.084  -1.075  0.00  0.00    +0.037 C 
ATOM      8  O   UNL     1       1.708  -0.210  -1.218  0.00  0.00    -0.374 OA
ENDBRANCH   1   8
BRANCH   2   9
ATOM      9  O   UNL     1       1.035  -2.318   0.204  0.00  0.00    -0.386 OA
ATOM     10  H   UNL     1       1.139  -2.391  -0.758  0.00  0.00    +0.000 HD
ENDBRANCH   2   9
BRANCH   3  11
ATOM     11  O   UNL     1      -1.756  -2.462   0.247  0.00  0.00    -0.386 OA
ATOM     12  H   UNL     1      -1.879  -2.487   1.208  0.00  0.00    +0.000 HD
ENDBRANCH   3  11
BRANCH   6  13
ATOM     13  O   UNL     1       0.770   2.503   0.005  0.00  0.00    -0.386 OA
ATOM     14  H   UNL     1       1.040   2.525   0.937  0.00  0.00    +0.000 HD
ENDBRANCH   6  13
BRANCH   5  15
ATOM     15  O   UNL     1      -1.965   2.374   0.433  0.00  0.00    -0.386 OA
ATOM     16  H   UNL     1      -2.246   2.431  -0.494  0.00  0.00    +0.000 HD
ENDBRANCH   5  15
BRANCH   4  17
ATOM     17  O   UNL     1      -2.892   0.244  -0.785  0.00  0.00    -0.386 OA
ATOM     18  H   UNL     1      -2.384   0.480  -1.576  0.00  0.00    +0.000 HD
ENDBRANCH   4  17
TORSDOF 6
