REMARK  Name = 
REMARK  6 active torsions:
REMARK  status: ('A' for Active; 'I' for Inactive)
REMARK    1  A    between atoms: C_1  and  C_2
REMARK    2  A    between atoms: C_2  and  C_3
REMARK    3  A    between atoms: C_12  and  C_16
REMARK    4  A    between atoms: C_16  and  C_17
REMARK    5  A    between atoms: C_19  and  C_20
REMARK    6  A    between atoms: C_19  and  C_21
REMARK                            x       y       z     vdW  Elec       q    Type
REMARK                         _______ _______ _______ _____ _____    ______ ____
ROOT
ATOM      1  C   UNL     1       5.363  -0.767  -1.319  0.00  0.00    -0.021 C 
ATOM      2  C   UNL     1       4.510  -0.325  -0.124  0.00  0.00    +0.124 C 
ATOM      3  C   UNL     1       5.074  -0.922   1.171  0.00  0.00    -0.021 C 
ATOM      4  C   UNL     1       4.538   1.193  -0.020  0.00  0.00    -0.041 C 
ATOM      5  C   UNL     1       3.446   1.905   0.273  0.00  0.00    -0.051 C 
ATOM      6  C   UNL     1       2.133   1.254   0.386  0.00  0.00    +0.019 A 
ATOM      7  C   UNL     1       2.037  -0.114   0.069  0.00  0.00    +0.153 A 
ATOM      8  O   UNL     1       3.177  -0.826  -0.315  0.00  0.00    -0.480 OA
ATOM      9  C   UNL     1       0.783  -0.718   0.128  0.00  0.00    +0.090 A 
ATOM     10  N   UNL     1       0.474  -1.995  -0.160  0.00  0.00    -0.358 N 
ATOM     11  C   UNL     1      -0.862  -2.106   0.024  0.00  0.00    +0.006 A 
ATOM     12  C   UNL     1      -1.397  -0.892   0.444  0.00  0.00    -0.020 A 
ATOM     13  C   UNL     1      -0.334  -0.012   0.494  0.00  0.00    +0.007 A 
ATOM     14  C   UNL     1      -0.276   1.346   0.814  0.00  0.00    -0.052 A 
ATOM     15  C   UNL     1       0.978   1.983   0.756  0.00  0.00    -0.050 A 
ATOM     16  H   UNL     1       1.094  -2.705  -0.445  0.00  0.00    +0.000 HD
ENDROOT
BRANCH  12  17
ATOM     17  C   UNL     1      -2.844  -0.588   0.682  0.00  0.00    +0.003 C 
BRANCH  17  18
ATOM     18  C   UNL     1      -3.454   0.064  -0.565  0.00  0.00    +0.092 C 
ATOM     19  O   UNL     1      -4.395  -0.781  -1.199  0.00  0.00    -0.365 OA
ATOM     20  C   UNL     1      -4.913   0.370  -0.569  0.00  0.00    +0.091 C 
ATOM     21  C   UNL     1      -5.791   0.035   0.642  0.00  0.00    -0.034 C 
ATOM     22  C   UNL     1      -5.413   1.406  -1.575  0.00  0.00    -0.034 C 
ENDBRANCH  17  18
ENDBRANCH  12  17
TORSDOF 2
