REMARK  Name = 
REMARK  16 active torsions:
REMARK  status: ('A' for Active; 'I' for Inactive)
REMARK    1  A    between atoms: C_1  and  O_2
REMARK    2  A    between atoms: O_2  and  C_3
REMARK    3  A    between atoms: C_3  and  C_5
REMARK    4  A    between atoms: C_6  and  C_7
REMARK    5  A    between atoms: C_7  and  C_8
REMARK    6  A    between atoms: C_8  and  C_9
REMARK    7  A    between atoms: C_10  and  C_11
REMARK    8  A    between atoms: C_10  and  C_20
REMARK    9  A    between atoms: C_11  and  C_12
REMARK   10  A    between atoms: C_12  and  C_13
REMARK   11  A    between atoms: C_12  and  C_19
REMARK   12  A    between atoms: C_13  and  C_14
REMARK   13  A    between atoms: C_13  and  O_18
REMARK   14  A    between atoms: C_14  and  O_15
REMARK   15  A    between atoms: C_14  and  C_16
REMARK   16  A    between atoms: C_14  and  C_17
REMARK                            x       y       z     vdW  Elec       q    Type
REMARK                         _______ _______ _______ _____ _____    ______ ____
ROOT
ATOM      1  C   UNL     1       0.654   0.140   0.953  0.00  0.00    -0.085 C 
ATOM      2  C   UNL     1      -0.131  -0.953   1.092  0.00  0.00    -0.076 C 
ATOM      3  C   UNL     1       0.180  -2.256   0.393  0.00  0.00    -0.044 C 
ENDROOT
BRANCH   1   4
ATOM      4  C   UNL     1       1.888   0.210   0.088  0.00  0.00    -0.031 C 
BRANCH   4   5
ATOM      5  C   UNL     1       3.127  -0.292   0.837  0.00  0.00    -0.031 C 
BRANCH   5   7
ATOM      6  C   UNL     1       4.926   1.036  -0.229  0.00  0.00    +0.019 C 
ATOM      7  C   UNL     1       4.355  -0.154  -0.017  0.00  0.00    -0.077 C 
BRANCH   6   8
ATOM      8  C   UNL     1       6.106   1.193  -1.092  0.00  0.00    +0.331 C 
ATOM      9  O   UNL     1       6.609   2.339  -1.236  0.00  0.00    -0.246 OA
BRANCH   8  11
ATOM     10  C   UNL     1       7.759   0.199  -2.643  0.00  0.00    +0.082 C 
ATOM     11  O   UNL     1       6.654   0.089  -1.755  0.00  0.00    -0.465 OA
ENDBRANCH   8  11
ENDBRANCH   6   8
ENDBRANCH   5   7
ENDBRANCH   4   5
ENDBRANCH   1   4
BRANCH   2  12
ATOM     12  C   UNL     1      -1.370  -0.861   1.963  0.00  0.00    -0.027 C 
BRANCH  12  13
ATOM     13  C   UNL     1      -2.495  -0.014   1.310  0.00  0.00    -0.011 C 
ATOM     14  C   UNL     1      -3.605   0.236   2.347  0.00  0.00    -0.060 C 
BRANCH  13  15
ATOM     15  C   UNL     1      -2.984  -0.662  -0.039  0.00  0.00    +0.086 C 
BRANCH  15  16
ATOM     16  C   UNL     1      -4.034   0.105  -0.921  0.00  0.00    +0.086 C 
ATOM     17  C   UNL     1      -3.722   1.619  -0.969  0.00  0.00    -0.034 C 
ATOM     18  C   UNL     1      -5.492  -0.120  -0.453  0.00  0.00    -0.034 C 
BRANCH  16  19
ATOM     19  O   UNL     1      -3.914  -0.412  -2.230  0.00  0.00    -0.387 OA
ATOM     20  H   UNL     1      -3.007  -0.283  -2.547  0.00  0.00    +0.000 HD
ENDBRANCH  16  19
ENDBRANCH  15  16
BRANCH  15  21
ATOM     21  O   UNL     1      -3.346  -2.014   0.120  0.00  0.00    -0.389 OA
ATOM     22  H   UNL     1      -4.152  -2.072   0.657  0.00  0.00    +0.000 HD
ENDBRANCH  15  21
ENDBRANCH  13  15
ENDBRANCH  12  13
ENDBRANCH   2  12
TORSDOF 11
