REMARK  Name = 
REMARK  30 active torsions:
REMARK  status: ('A' for Active; 'I' for Inactive)
REMARK    1  A    between atoms: C_1  and  C_2
REMARK    2  A    between atoms: C_2  and  C_3
REMARK    3  A    between atoms: C_3  and  C_4
REMARK    4  A    between atoms: C_4  and  C_5
REMARK    5  A    between atoms: C_5  and  C_6
REMARK    6  A    between atoms: C_6  and  C_7
REMARK    7  A    between atoms: C_7  and  C_8
REMARK    8  A    between atoms: C_8  and  C_9
REMARK    9  A    between atoms: C_9  and  C_10
REMARK   10  A    between atoms: C_10  and  C_11
REMARK   11  A    between atoms: C_11  and  C_12
REMARK   12  A    between atoms: C_11  and  O_44
REMARK   13  A    between atoms: C_15  and  C_17
REMARK   14  A    between atoms: C_20  and  C_22
REMARK   15  A    between atoms: C_22  and  C_23
REMARK   16  A    between atoms: C_22  and  O_43
REMARK   17  A    between atoms: C_23  and  C_24
REMARK   18  A    between atoms: C_24  and  C_25
REMARK   19  A    between atoms: C_25  and  C_26
REMARK   20  A    between atoms: C_26  and  C_27
REMARK   21  A    between atoms: C_27  and  C_28
REMARK   22  A    between atoms: C_28  and  C_29
REMARK   23  A    between atoms: C_29  and  C_30
REMARK   24  A    between atoms: C_30  and  C_31
REMARK   25  A    between atoms: C_31  and  C_32
REMARK   26  A    between atoms: C_32  and  C_33
REMARK   27  A    between atoms: C_33  and  C_34
REMARK   28  A    between atoms: C_33  and  O_42
REMARK   29  A    between atoms: C_34  and  C_35
REMARK   30  A    between atoms: C_37  and  C_41
REMARK                            x       y       z     vdW  Elec       q    Type
REMARK                         _______ _______ _______ _____ _____    ______ ____
ROOT
ATOM      1  C   UNL     1       1.893  -0.926   2.412  0.00  0.00    +0.081 C 
ENDROOT
BRANCH   1   5
ATOM      2  C   UNL     1      -0.195   1.970   2.561  0.00  0.00    +0.085 C 
ATOM      3  C   UNL     1       0.514   2.185   1.234  0.00  0.00    -0.022 C 
ATOM      4  C   UNL     1       1.837   1.500   1.450  0.00  0.00    -0.022 C 
ATOM      5  C   UNL     1       1.589   0.578   2.651  0.00  0.00    +0.085 C 
ATOM      6  O   UNL     1       0.264   0.755   3.105  0.00  0.00    -0.368 OA
BRANCH   2  10
ATOM      7  C   UNL     1      -3.372   0.382   2.233  0.00  0.00    +0.085 C 
ATOM      8  C   UNL     1      -3.725   1.274   3.428  0.00  0.00    -0.022 C 
ATOM      9  C   UNL     1      -2.427   1.938   3.756  0.00  0.00    -0.022 C 
ATOM     10  C   UNL     1      -1.728   1.956   2.410  0.00  0.00    +0.085 C 
ATOM     11  O   UNL     1      -2.147   0.824   1.679  0.00  0.00    -0.368 OA
BRANCH   7  12
ATOM     12  C   UNL     1      -4.471   0.375   1.147  0.00  0.00    +0.081 C 
BRANCH  12  13
ATOM     13  O   UNL     1      -4.046  -0.403   0.058  0.00  0.00    -0.389 OA
ATOM     14  H   UNL     1      -3.896  -1.315   0.352  0.00  0.00    +0.000 HD
ENDBRANCH  12  13
BRANCH  12  15
ATOM     15  C   UNL     1      -5.795  -0.208   1.688  0.00  0.00    -0.024 C 
BRANCH  15  16
ATOM     16  C   UNL     1      -6.952  -0.150   0.676  0.00  0.00    -0.051 C 
BRANCH  16  17
ATOM     17  C   UNL     1      -7.392   1.289   0.355  0.00  0.00    -0.053 C 
BRANCH  17  18
ATOM     18  C   UNL     1      -8.752   1.351  -0.360  0.00  0.00    -0.053 C 
BRANCH  18  19
ATOM     19  C   UNL     1      -8.734   0.746  -1.783  0.00  0.00    -0.053 C 
BRANCH  19  20
ATOM     20  C   UNL     1      -9.203  -0.730  -1.834  0.00  0.00    -0.053 C 
BRANCH  20  21
ATOM     21  C   UNL     1     -10.573  -0.911  -2.516  0.00  0.00    -0.053 C 
BRANCH  21  22
ATOM     22  C   UNL     1     -11.753  -0.334  -1.704  0.00  0.00    -0.053 C 
BRANCH  22  24
ATOM     23  C   UNL     1     -11.709  -2.013   0.225  0.00  0.00    -0.065 C 
ATOM     24  C   UNL     1     -12.529  -1.395  -0.905  0.00  0.00    -0.056 C 
ENDBRANCH  22  24
ENDBRANCH  21  22
ENDBRANCH  20  21
ENDBRANCH  19  20
ENDBRANCH  18  19
ENDBRANCH  17  18
ENDBRANCH  16  17
ENDBRANCH  15  16
ENDBRANCH  12  15
ENDBRANCH   7  12
ENDBRANCH   2  10
ENDBRANCH   1   5
BRANCH   1  25
ATOM     25  O   UNL     1       3.123  -1.098   1.755  0.00  0.00    -0.389 OA
ATOM     26  H   UNL     1       3.069  -0.718   0.864  0.00  0.00    +0.000 HD
ENDBRANCH   1  25
BRANCH   1  27
ATOM     27  C   UNL     1       0.769  -1.732   1.708  0.00  0.00    -0.024 C 
BRANCH  27  28
ATOM     28  C   UNL     1       0.645  -1.550   0.183  0.00  0.00    -0.051 C 
BRANCH  28  29
ATOM     29  C   UNL     1       1.723  -2.312  -0.622  0.00  0.00    -0.053 C 
BRANCH  29  30
ATOM     30  C   UNL     1       2.496  -1.386  -1.575  0.00  0.00    -0.053 C 
BRANCH  30  31
ATOM     31  C   UNL     1       3.364  -2.152  -2.588  0.00  0.00    -0.053 C 
BRANCH  31  32
ATOM     32  C   UNL     1       4.433  -3.069  -1.959  0.00  0.00    -0.053 C 
BRANCH  32  33
ATOM     33  C   UNL     1       5.429  -2.364  -1.018  0.00  0.00    -0.053 C 
BRANCH  33  34
ATOM     34  C   UNL     1       6.234  -1.222  -1.662  0.00  0.00    -0.053 C 
BRANCH  34  35
ATOM     35  C   UNL     1       7.141  -1.712  -2.804  0.00  0.00    -0.051 C 
BRANCH  35  36
ATOM     36  C   UNL     1       8.107  -0.627  -3.311  0.00  0.00    -0.027 C 
BRANCH  36  37
ATOM     37  C   UNL     1       9.204  -0.251  -2.277  0.00  0.00    +0.059 C 
BRANCH  37  38
ATOM     38  O   UNL     1      10.479  -0.356  -2.864  0.00  0.00    -0.391 OA
ATOM     39  H   UNL     1      10.547   0.267  -3.604  0.00  0.00    +0.000 HD
ENDBRANCH  37  38
BRANCH  37  40
ATOM     40  C   UNL     1       8.987   1.167  -1.701  0.00  0.00    +0.005 C 
BRANCH  40  41
ATOM     41  C   UNL     1       9.805   1.388  -0.457  0.00  0.00    +0.039 C 
ATOM     42  C   UNL     1      11.130   1.499  -0.399  0.00  0.00    -0.034 C 
ATOM     43  C   UNL     1      11.582   1.670   1.028  0.00  0.00    +0.120 C 
ATOM     44  O   UNL     1      10.363   1.664   1.768  0.00  0.00    -0.454 OA
ATOM     45  C   UNL     1       9.307   1.484   0.896  0.00  0.00    +0.336 C 
ATOM     46  O   UNL     1       8.094   1.455   1.247  0.00  0.00    -0.245 OA
ATOM     47  C   UNL     1      12.319   2.992   1.222  0.00  0.00    -0.024 C 
ENDBRANCH  40  41
ENDBRANCH  37  40
ENDBRANCH  36  37
ENDBRANCH  35  36
ENDBRANCH  34  35
ENDBRANCH  33  34
ENDBRANCH  32  33
ENDBRANCH  31  32
ENDBRANCH  30  31
ENDBRANCH  29  30
ENDBRANCH  28  29
ENDBRANCH  27  28
ENDBRANCH   1  27
TORSDOF 28
