REMARK  Name = 
REMARK  6 active torsions:
REMARK  status: ('A' for Active; 'I' for Inactive)
REMARK    1  A    between atoms: C_1  and  C_2
REMARK    2  A    between atoms: C_2  and  C_3
REMARK    3  A    between atoms: C_12  and  C_16
REMARK    4  A    between atoms: C_16  and  C_17
REMARK    5  A    between atoms: C_19  and  C_20
REMARK    6  A    between atoms: C_19  and  C_21
REMARK                            x       y       z     vdW  Elec       q    Type
REMARK                         _______ _______ _______ _____ _____    ______ ____
ROOT
ATOM      1  C   UNL     1       4.457  -2.171  -1.193  0.00  0.00    -0.021 C 
ATOM      2  C   UNL     1       4.000  -1.052  -0.250  0.00  0.00    +0.124 C 
ATOM      3  C   UNL     1       4.740  -1.163   1.089  0.00  0.00    -0.021 C 
ATOM      4  C   UNL     1       4.316   0.297  -0.878  0.00  0.00    -0.041 C 
ATOM      5  C   UNL     1       3.464   1.325  -0.817  0.00  0.00    -0.051 C 
ATOM      6  C   UNL     1       2.122   1.155  -0.243  0.00  0.00    +0.019 A 
ATOM      7  C   UNL     1       1.718  -0.137   0.137  0.00  0.00    +0.153 A 
ATOM      8  O   UNL     1       2.594  -1.217  -0.008  0.00  0.00    -0.480 OA
ATOM      9  C   UNL     1       0.426  -0.306   0.633  0.00  0.00    +0.090 A 
ATOM     10  N   UNL     1      -0.153  -1.449   1.040  0.00  0.00    -0.358 N 
ATOM     11  C   UNL     1      -1.402  -1.115   1.435  0.00  0.00    +0.006 A 
ATOM     12  C   UNL     1      -1.613   0.252   1.277  0.00  0.00    -0.020 A 
ATOM     13  C   UNL     1      -0.433   0.755   0.764  0.00  0.00    +0.007 A 
ATOM     14  C   UNL     1      -0.063   2.052   0.404  0.00  0.00    -0.052 A 
ATOM     15  C   UNL     1       1.233   2.248  -0.110  0.00  0.00    -0.050 A 
ATOM     16  H   UNL     1       0.251  -2.347   1.048  0.00  0.00    +0.000 HD
ENDROOT
BRANCH  12  17
ATOM     17  C   UNL     1      -2.875   1.003   1.573  0.00  0.00    +0.003 C 
BRANCH  17  18
ATOM     18  C   UNL     1      -3.533   1.482   0.273  0.00  0.00    +0.092 C 
ATOM     19  O   UNL     1      -4.944   1.426   0.354  0.00  0.00    -0.365 OA
ATOM     20  C   UNL     1      -4.335   0.541  -0.560  0.00  0.00    +0.091 C 
ATOM     21  C   UNL     1      -4.521  -0.928  -0.165  0.00  0.00    -0.034 C 
ATOM     22  C   UNL     1      -4.596   0.940  -2.012  0.00  0.00    -0.034 C 
ENDBRANCH  17  18
ENDBRANCH  12  17
TORSDOF 2
