REMARK  Name = 
REMARK  16 active torsions:
REMARK  status: ('A' for Active; 'I' for Inactive)
REMARK    1  A    between atoms: C_1  and  O_2
REMARK    2  A    between atoms: O_2  and  C_3
REMARK    3  A    between atoms: C_3  and  C_5
REMARK    4  A    between atoms: C_6  and  C_7
REMARK    5  A    between atoms: C_7  and  C_8
REMARK    6  A    between atoms: C_8  and  C_9
REMARK    7  A    between atoms: C_10  and  C_11
REMARK    8  A    between atoms: C_10  and  C_20
REMARK    9  A    between atoms: C_11  and  C_12
REMARK   10  A    between atoms: C_12  and  C_13
REMARK   11  A    between atoms: C_12  and  C_19
REMARK   12  A    between atoms: C_13  and  C_14
REMARK   13  A    between atoms: C_13  and  O_18
REMARK   14  A    between atoms: C_14  and  O_15
REMARK   15  A    between atoms: C_14  and  C_16
REMARK   16  A    between atoms: C_14  and  C_17
REMARK                            x       y       z     vdW  Elec       q    Type
REMARK                         _______ _______ _______ _____ _____    ______ ____
ROOT
ATOM      1  C   UNL     1       0.602  -1.118   0.570  0.00  0.00    -0.085 C 
ATOM      2  C   UNL     1      -0.223  -1.194  -0.500  0.00  0.00    -0.076 C 
ATOM      3  C   UNL     1       0.106  -0.496  -1.802  0.00  0.00    -0.044 C 
ENDROOT
BRANCH   1   4
ATOM      4  C   UNL     1       1.893  -0.338   0.602  0.00  0.00    -0.031 C 
BRANCH   4   5
ATOM      5  C   UNL     1       3.065  -1.212   0.142  0.00  0.00    -0.031 C 
BRANCH   5   7
ATOM      6  C   UNL     1       4.623   0.515  -0.710  0.00  0.00    +0.019 C 
ATOM      7  C   UNL     1       4.357  -0.448   0.178  0.00  0.00    -0.077 C 
BRANCH   6   8
ATOM      8  C   UNL     1       5.889   1.262  -0.697  0.00  0.00    +0.331 C 
ATOM      9  O   UNL     1       6.082   2.157  -1.564  0.00  0.00    -0.246 OA
BRANCH   8  11
ATOM     10  C   UNL     1       8.106   1.681   0.321  0.00  0.00    +0.082 C 
ATOM     11  O   UNL     1       6.866   0.986   0.265  0.00  0.00    -0.465 OA
ENDBRANCH   8  11
ENDBRANCH   6   8
ENDBRANCH   5   7
ENDBRANCH   4   5
ENDBRANCH   1   4
BRANCH   2  12
ATOM     12  C   UNL     1      -1.462  -2.070  -0.428  0.00  0.00    -0.027 C 
BRANCH  12  13
ATOM     13  C   UNL     1      -2.675  -1.440   0.310  0.00  0.00    -0.011 C 
ATOM     14  C   UNL     1      -2.404  -1.244   1.811  0.00  0.00    -0.060 C 
BRANCH  13  15
ATOM     15  C   UNL     1      -3.253  -0.185  -0.436  0.00  0.00    +0.086 C 
BRANCH  15  16
ATOM     16  C   UNL     1      -4.630   0.371   0.091  0.00  0.00    +0.086 C 
ATOM     17  C   UNL     1      -5.388   1.059  -1.068  0.00  0.00    -0.034 C 
ATOM     18  C   UNL     1      -4.457   1.420   1.212  0.00  0.00    -0.034 C 
BRANCH  16  19
ATOM     19  O   UNL     1      -5.426  -0.674   0.599  0.00  0.00    -0.387 OA
ATOM     20  H   UNL     1      -5.550  -1.348  -0.088  0.00  0.00    +0.000 HD
ENDBRANCH  16  19
ENDBRANCH  15  16
BRANCH  15  21
ATOM     21  O   UNL     1      -2.308   0.849  -0.578  0.00  0.00    -0.389 OA
ATOM     22  H   UNL     1      -2.095   1.214   0.295  0.00  0.00    +0.000 HD
ENDBRANCH  15  21
ENDBRANCH  13  15
ENDBRANCH  12  13
ENDBRANCH   2  12
TORSDOF 11
