REMARK  Name = 
REMARK  8 active torsions:
REMARK  status: ('A' for Active; 'I' for Inactive)
REMARK    1  A    between atoms: O_1  and  C_2
REMARK    2  A    between atoms: C_2  and  C_3
REMARK    3  A    between atoms: C_3  and  C_16
REMARK    4  A    between atoms: C_4  and  C_5
REMARK    5  A    between atoms: C_5  and  C_6
REMARK    6  A    between atoms: C_6  and  C_7
REMARK    7  A    between atoms: C_7  and  C_8
REMARK    8  A    between atoms: C_12  and  C_13
REMARK                            x       y       z     vdW  Elec       q    Type
REMARK                         _______ _______ _______ _____ _____    ______ ____
ROOT
ATOM      1  C   UNL     1      -0.857   0.096   0.171  0.00  0.00    -0.023 C 
ATOM      2  C   UNL     1      -0.171   0.427  -1.182  0.00  0.00    -0.059 C 
ATOM      3  C   UNL     1      -1.739  -1.188   0.121  0.00  0.00    -0.035 C 
ATOM      4  C   UNL     1      -2.538  -1.127   1.429  0.00  0.00    -0.046 C 
ATOM      5  C   UNL     1      -3.063   0.288   1.263  0.00  0.00    -0.031 C 
ATOM      6  C   UNL     1      -2.026   1.043   0.445  0.00  0.00    -0.020 C 
ATOM      7  C   UNL     1      -1.913   2.555   0.626  0.00  0.00    -0.059 C 
ATOM      8  C   UNL     1      -3.265   0.481  -0.235  0.00  0.00    -0.031 C 
ATOM      9  C   UNL     1      -2.847  -0.830  -0.877  0.00  0.00    -0.046 C 
ENDROOT
BRANCH   1  10
ATOM     10  C   UNL     1       0.187   0.144   1.340  0.00  0.00    -0.043 C 
BRANCH  10  11
ATOM     11  C   UNL     1       1.065  -1.114   1.491  0.00  0.00    -0.034 C 
BRANCH  11  13
ATOM     12  C   UNL     1       3.099  -0.674   0.025  0.00  0.00    -0.051 C 
ATOM     13  C   UNL     1       1.967  -1.359   0.307  0.00  0.00    -0.083 C 
ATOM     14  C   UNL     1       3.870  -1.054  -1.211  0.00  0.00    -0.042 C 
BRANCH  12  15
ATOM     15  C   UNL     1       3.645   0.444   0.890  0.00  0.00    +0.065 C 
BRANCH  15  16
ATOM     16  O   UNL     1       3.705   1.637   0.158  0.00  0.00    -0.391 OA
ATOM     17  H   UNL     1       4.056   2.345   0.721  0.00  0.00    +0.000 HD
ENDBRANCH  15  16
ENDBRANCH  12  15
ENDBRANCH  11  13
ENDBRANCH  10  11
ENDBRANCH   1  10
TORSDOF 5
