REMARK  Name = 
REMARK  14 active torsions:
REMARK  status: ('A' for Active; 'I' for Inactive)
REMARK    1  A    between atoms: C_1  and  O_2
REMARK    2  A    between atoms: O_2  and  C_3
REMARK    3  A    between atoms: C_5  and  O_6
REMARK    4  A    between atoms: C_7  and  C_13
REMARK    5  A    between atoms: C_8  and  O_12
REMARK    6  A    between atoms: C_9  and  O_10
REMARK    7  A    between atoms: O_10  and  C_11
REMARK    8  A    between atoms: C_13  and  C_15
REMARK    9  A    between atoms: C_16  and  C_17
REMARK   10  A    between atoms: C_17  and  C_18
REMARK   11  A    between atoms: C_19  and  C_20
REMARK   12  A    between atoms: C_19  and  C_21
REMARK   13  A    between atoms: C_22  and  C_32
REMARK   14  A    between atoms: C_25  and  C_26
REMARK                            x       y       z     vdW  Elec       q    Type
REMARK                         _______ _______ _______ _____ _____    ______ ____
ROOT
ATOM      1  C   UNL     1      -0.851   0.824   0.196  0.00  0.00    +0.036 C 
ATOM      2  C   UNL     1      -1.791  -0.416   0.416  0.00  0.00    -0.006 C 
ATOM      3  C   UNL     1      -3.058  -0.268  -0.443  0.00  0.00    -0.072 C 
ATOM      4  C   UNL     1      -3.721   0.902  -0.383  0.00  0.00    -0.084 C 
ATOM      5  C   UNL     1      -3.144   2.046   0.394  0.00  0.00    -0.027 C 
ATOM      6  C   UNL     1      -1.639   2.193   0.090  0.00  0.00    -0.002 C 
ATOM      7  C   UNL     1      -3.585  -1.350  -1.355  0.00  0.00    -0.043 C 
ENDROOT
BRANCH   6   8
ATOM      8  C   UNL     1      -1.429   2.897  -1.250  0.00  0.00    -0.043 A 
ATOM      9  C   UNL     1      -1.058   4.256  -1.273  0.00  0.00    -0.058 A 
ATOM     10  C   UNL     1      -0.863   4.922  -2.487  0.00  0.00    -0.061 A 
ATOM     11  C   UNL     1      -1.052   4.247  -3.694  0.00  0.00    -0.062 A 
ATOM     12  C   UNL     1      -1.437   2.904  -3.689  0.00  0.00    -0.061 A 
ATOM     13  C   UNL     1      -1.631   2.232  -2.478  0.00  0.00    -0.058 A 
ENDBRANCH   6   8
BRANCH   1  14
ATOM     14  C   UNL     1       0.204   0.904   1.295  0.00  0.00    +0.175 C 
ATOM     15  O   UNL     1      -0.136   1.302   2.441  0.00  0.00    -0.291 OA
BRANCH  14  19
ATOM     16  C   UNL     1       4.189  -0.554   0.481  0.00  0.00    +0.169 A 
ATOM     17  C   UNL     1       3.470  -1.014   1.597  0.00  0.00    +0.026 A 
ATOM     18  C   UNL     1       2.200  -0.521   1.897  0.00  0.00    +0.135 A 
ATOM     19  C   UNL     1       1.607   0.459   1.065  0.00  0.00    +0.104 A 
ATOM     20  C   UNL     1       2.364   0.985  -0.010  0.00  0.00    +0.176 A 
ATOM     21  C   UNL     1       3.631   0.467  -0.322  0.00  0.00    +0.204 A 
BRANCH  16  23
ATOM     22  C   UNL     1       6.081  -2.160   0.851  0.00  0.00    +0.079 C 
ATOM     23  O   UNL     1       5.444  -1.094   0.156  0.00  0.00    -0.491 OA
ENDBRANCH  16  23
BRANCH  18  24
ATOM     24  O   UNL     1       1.558  -1.048   3.018  0.00  0.00    -0.506 OA
ATOM     25  H   UNL     1       1.987  -1.695   3.542  0.00  0.00    +0.000 HD
ENDBRANCH  18  24
BRANCH  21  26
ATOM     26  O   UNL     1       4.284   1.012  -1.445  0.00  0.00    -0.488 OA
ATOM     27  C   UNL     1       5.679   0.925  -1.728  0.00  0.00    +0.079 C 
ENDBRANCH  21  26
BRANCH  20  28
ATOM     28  O   UNL     1       1.908   2.069  -0.762  0.00  0.00    -0.503 OA
ATOM     29  H   UNL     1       1.068   2.442  -0.584  0.00  0.00    +0.000 HD
ENDBRANCH  20  28
ENDBRANCH  14  19
ENDBRANCH   1  14
BRANCH   2  30
ATOM     30  C   UNL     1      -1.010  -1.746   0.210  0.00  0.00    -0.027 C 
BRANCH  30  31
ATOM     31  C   UNL     1      -1.811  -3.005   0.468  0.00  0.00    -0.085 C 
ATOM     32  C   UNL     1      -2.204  -3.462   1.676  0.00  0.00    -0.080 C 
ATOM     33  C   UNL     1      -2.986  -4.749   1.733  0.00  0.00    -0.044 C 
ATOM     34  C   UNL     1      -1.841  -2.771   2.967  0.00  0.00    -0.044 C 
ENDBRANCH  30  31
ENDBRANCH   2  30
TORSDOF 9
