REMARK  Name = 
REMARK  21 active torsions:
REMARK  status: ('A' for Active; 'I' for Inactive)
REMARK    1  A    between atoms: C_1  and  O_2
REMARK    2  A    between atoms: O_2  and  C_3
REMARK    3  A    between atoms: C_4  and  C_5
REMARK    4  A    between atoms: C_5  and  C_6
REMARK    5  A    between atoms: C_5  and  C_7
REMARK    6  A    between atoms: C_8  and  O_44
REMARK    7  A    between atoms: C_18  and  O_19
REMARK    8  A    between atoms: O_19  and  C_20
REMARK    9  A    between atoms: C_21  and  C_26
REMARK   10  A    between atoms: C_22  and  O_24
REMARK   11  A    between atoms: O_24  and  C_25
REMARK   12  A    between atoms: C_26  and  C_27
REMARK   13  A    between atoms: C_26  and  C_28
REMARK   14  A    between atoms: C_33  and  O_34
REMARK   15  A    between atoms: O_34  and  C_35
REMARK   16  A    between atoms: C_36  and  C_41
REMARK   17  A    between atoms: C_37  and  O_39
REMARK   18  A    between atoms: O_39  and  C_40
REMARK   19  A    between atoms: C_41  and  C_42
REMARK   20  A    between atoms: C_41  and  C_43
REMARK   21  A    between atoms: O_44  and  C_45
REMARK                            x       y       z     vdW  Elec       q    Type
REMARK                         _______ _______ _______ _____ _____    ______ ____
ROOT
ATOM      1  C   UNL     1       0.069  -3.097   1.377  0.00  0.00    +0.172 C 
ATOM      2  C   UNL     1       1.327  -2.612   1.218  0.00  0.00    +0.049 C 
ATOM      3  C   UNL     1       1.563  -1.095   1.234  0.00  0.00    +0.246 C 
ATOM      4  C   UNL     1       0.383  -0.404   0.491  0.00  0.00    +0.080 C 
ATOM      5  C   UNL     1      -1.024  -0.710   1.118  0.00  0.00    +0.185 C 
ATOM      6  C   UNL     1      -1.080  -2.163   1.552  0.00  0.00    +0.241 C 
ATOM      7  O   UNL     1      -2.162  -2.596   2.030  0.00  0.00    -0.284 OA
ATOM      8  C   UNL     1      -1.397   0.189   2.356  0.00  0.00    -0.001 C 
ATOM      9  C   UNL     1      -2.138   1.485   2.000  0.00  0.00    -0.020 C 
ATOM     10  C   UNL     1      -3.265   1.226   1.051  0.00  0.00    +0.002 A 
ATOM     11  C   UNL     1      -3.142   0.215   0.099  0.00  0.00    +0.167 A 
ATOM     12  O   UNL     1      -1.996  -0.588   0.068  0.00  0.00    -0.473 OA
ATOM     13  C   UNL     1      -4.156   0.009  -0.850  0.00  0.00    +0.169 A 
ATOM     14  C   UNL     1      -5.291   0.855  -0.879  0.00  0.00    +0.042 A 
ATOM     15  C   UNL     1      -5.399   1.896   0.078  0.00  0.00    +0.127 A 
ATOM     16  C   UNL     1      -4.378   2.070   1.031  0.00  0.00    -0.013 A 
ATOM     17  C   UNL     1       0.665   1.099   0.308  0.00  0.00    -0.011 C 
ATOM     18  C   UNL     1       1.994   1.331  -0.350  0.00  0.00    +0.002 A 
ATOM     19  C   UNL     1       3.037   0.419  -0.151  0.00  0.00    +0.170 A 
ATOM     20  O   UNL     1       2.791  -0.777   0.541  0.00  0.00    -0.453 OA
ATOM     21  C   UNL     1       4.314   0.679  -0.692  0.00  0.00    +0.169 A 
ATOM     22  C   UNL     1       4.527   1.835  -1.488  0.00  0.00    +0.042 A 
ATOM     23  C   UNL     1       3.461   2.748  -1.681  0.00  0.00    +0.127 A 
ATOM     24  C   UNL     1       2.211   2.491  -1.093  0.00  0.00    -0.013 A 
ENDROOT
BRANCH   2  25
ATOM     25  C   UNL     1       2.509  -3.561   0.983  0.00  0.00    -0.016 C 
ATOM     26  C   UNL     1       2.686  -4.595   2.109  0.00  0.00    -0.059 C 
ATOM     27  C   UNL     1       2.428  -4.227  -0.396  0.00  0.00    -0.059 C 
ENDBRANCH   2  25
BRANCH  14  28
ATOM     28  C   UNL     1      -6.391   0.615  -1.916  0.00  0.00    -0.014 C 
ATOM     29  C   UNL     1      -7.715   0.206  -1.258  0.00  0.00    -0.058 C 
ATOM     30  C   UNL     1      -6.572   1.813  -2.857  0.00  0.00    -0.058 C 
ENDBRANCH  14  28
BRANCH  22  31
ATOM     31  C   UNL     1       5.897   2.134  -2.105  0.00  0.00    -0.014 C 
ATOM     32  C   UNL     1       6.329   1.053  -3.105  0.00  0.00    -0.058 C 
ATOM     33  C   UNL     1       6.969   2.377  -1.035  0.00  0.00    -0.058 C 
ENDBRANCH  22  31
BRANCH   1  35
ATOM     34  C   UNL     1      -1.375  -5.167   1.378  0.00  0.00    +0.079 C 
ATOM     35  O   UNL     1      -0.124  -4.490   1.342  0.00  0.00    -0.491 OA
ENDBRANCH   1  35
BRANCH  13  36
ATOM     36  O   UNL     1      -4.031  -1.028  -1.784  0.00  0.00    -0.491 OA
ATOM     37  C   UNL     1      -4.031  -2.400  -1.402  0.00  0.00    +0.079 C 
ENDBRANCH  13  36
BRANCH  15  38
ATOM     38  O   UNL     1      -6.524   2.737   0.061  0.00  0.00    -0.495 OA
ATOM     39  C   UNL     1      -6.755   3.812   0.966  0.00  0.00    +0.079 C 
ENDBRANCH  15  38
BRANCH  21  40
ATOM     40  O   UNL     1       5.381  -0.201  -0.462  0.00  0.00    -0.491 OA
ATOM     41  C   UNL     1       5.771  -0.641   0.835  0.00  0.00    +0.079 C 
ENDBRANCH  21  40
BRANCH  23  42
ATOM     42  O   UNL     1       3.671   3.904  -2.454  0.00  0.00    -0.495 OA
ATOM     43  C   UNL     1       2.678   4.884  -2.743  0.00  0.00    +0.079 C 
ENDBRANCH  23  42
BRANCH   3  44
ATOM     44  O   UNL     1       1.586  -0.627   2.579  0.00  0.00    -0.339 OA
ATOM     45  C   UNL     1       2.845  -0.785   3.198  0.00  0.00    +0.041 C 
ENDBRANCH   3  44
TORSDOF 9
