REMARK  Name = 
REMARK  19 active torsions:
REMARK  status: ('A' for Active; 'I' for Inactive)
REMARK    1  A    between atoms: C_1  and  O_2
REMARK    2  A    between atoms: O_2  and  C_3
REMARK    3  A    between atoms: C_5  and  C_6
REMARK    4  A    between atoms: C_7  and  C_8
REMARK    5  A    between atoms: C_10  and  O_11
REMARK    6  A    between atoms: C_12  and  C_16
REMARK    7  A    between atoms: C_13  and  O_15
REMARK    8  A    between atoms: C_16  and  C_17
REMARK    9  A    between atoms: C_18  and  C_19
REMARK   10  A    between atoms: C_18  and  C_25
REMARK   11  A    between atoms: C_19  and  C_20
REMARK   12  A    between atoms: C_20  and  C_21
REMARK   13  A    between atoms: C_22  and  C_23
REMARK   14  A    between atoms: C_22  and  C_24
REMARK   15  A    between atoms: C_30  and  C_31
REMARK   16  A    between atoms: C_33  and  O_34
REMARK   17  A    between atoms: C_35  and  O_41
REMARK   18  A    between atoms: C_36  and  C_39
REMARK   19  A    between atoms: C_36  and  C_40
REMARK                            x       y       z     vdW  Elec       q    Type
REMARK                         _______ _______ _______ _____ _____    ______ ____
ROOT
ATOM      1  C   UNL     1      -3.961   1.846  -1.289  0.00  0.00    +0.162 A 
ATOM      2  C   UNL     1      -2.623   1.435  -1.445  0.00  0.00    -0.009 A 
ATOM      3  C   UNL     1      -2.202   0.170  -0.991  0.00  0.00    -0.021 A 
ATOM      4  C   UNL     1      -3.141  -0.688  -0.400  0.00  0.00    -0.048 A 
ATOM      5  C   UNL     1      -4.471  -0.285  -0.224  0.00  0.00    -0.001 A 
ATOM      6  C   UNL     1      -4.881   0.981  -0.686  0.00  0.00    +0.166 A 
ATOM      7  O   UNL     1      -6.213   1.392  -0.535  0.00  0.00    -0.482 OA
ATOM      8  C   UNL     1      -7.266   0.489  -0.179  0.00  0.00    +0.114 C 
ATOM      9  C   UNL     1      -7.687  -0.219  -1.490  0.00  0.00    -0.025 C 
ATOM     10  C   UNL     1      -8.427   1.346   0.377  0.00  0.00    +0.016 C 
ATOM     11  C   UNL     1      -9.528   0.540   1.094  0.00  0.00    +0.085 C 
ATOM     12  C   UNL     1      -8.936  -0.376   2.194  0.00  0.00    +0.087 C 
ATOM     13  C   UNL     1      -7.775  -1.321   1.724  0.00  0.00    +0.000 C 
ATOM     14  C   UNL     1      -6.712  -0.458   0.938  0.00  0.00    +0.010 C 
ATOM     15  C   UNL     1      -5.459  -1.222   0.432  0.00  0.00    -0.017 C 
ATOM     16  C   UNL     1      -7.107  -1.898   3.003  0.00  0.00    -0.057 C 
ATOM     17  C   UNL     1      -8.308  -2.538   0.920  0.00  0.00    -0.057 C 
ENDROOT
BRANCH   1  19
ATOM     18  C   UNL     1      -3.593   4.088  -2.341  0.00  0.00    +0.079 C 
ATOM     19  O   UNL     1      -4.415   3.101  -1.726  0.00  0.00    -0.491 OA
ENDBRANCH   1  19
BRANCH   3  20
ATOM     20  C   UNL     1      -0.806  -0.311  -1.145  0.00  0.00    -0.054 C 
ATOM     21  C   UNL     1       0.253   0.506  -1.266  0.00  0.00    -0.054 C 
BRANCH  21  22
ATOM     22  C   UNL     1       1.645   0.021  -1.419  0.00  0.00    -0.018 A 
ATOM     23  C   UNL     1       2.582   0.856  -2.044  0.00  0.00    -0.013 A 
ATOM     24  C   UNL     1       3.911   0.446  -2.212  0.00  0.00    +0.124 A 
ATOM     25  C   UNL     1       4.324  -0.818  -1.748  0.00  0.00    +0.039 A 
ATOM     26  C   UNL     1       3.398  -1.642  -1.078  0.00  0.00    +0.124 A 
ATOM     27  C   UNL     1       2.069  -1.225  -0.922  0.00  0.00    -0.013 A 
BRANCH  24  28
ATOM     28  O   UNL     1       4.822   1.295  -2.840  0.00  0.00    -0.506 OA
ATOM     29  H   UNL     1       4.544   2.136  -3.147  0.00  0.00    +0.000 HD
ENDBRANCH  24  28
BRANCH  26  30
ATOM     30  O   UNL     1       3.801  -2.874  -0.561  0.00  0.00    -0.506 OA
ATOM     31  H   UNL     1       4.689  -3.157  -0.663  0.00  0.00    +0.000 HD
ENDBRANCH  26  30
BRANCH  25  32
ATOM     32  C   UNL     1       5.761  -1.253  -1.913  0.00  0.00    -0.002 C 
BRANCH  32  33
ATOM     33  C   UNL     1       6.585  -0.756  -0.750  0.00  0.00    -0.080 C 
ATOM     34  C   UNL     1       7.705  -0.005  -0.860  0.00  0.00    -0.076 C 
ATOM     35  C   UNL     1       8.269   0.406  -2.199  0.00  0.00    -0.044 C 
BRANCH  34  36
ATOM     36  C   UNL     1       8.450   0.397   0.393  0.00  0.00    -0.029 C 
BRANCH  36  37
ATOM     37  C   UNL     1       9.426  -0.708   0.813  0.00  0.00    -0.031 C 
BRANCH  37  38
ATOM     38  C   UNL     1      10.258  -0.271   1.993  0.00  0.00    -0.085 C 
ATOM     39  C   UNL     1      11.417   0.416   1.896  0.00  0.00    -0.080 C 
ATOM     40  C   UNL     1      12.026   0.779   0.561  0.00  0.00    -0.044 C 
ATOM     41  C   UNL     1      12.128   0.809   3.166  0.00  0.00    -0.044 C 
ENDBRANCH  37  38
ENDBRANCH  36  37
ENDBRANCH  34  36
ENDBRANCH  32  33
ENDBRANCH  25  32
ENDBRANCH  21  22
ENDBRANCH   3  20
BRANCH  11  42
ATOM     42  O   UNL     1     -10.303  -0.190   0.180  0.00  0.00    -0.389 OA
ATOM     43  H   UNL     1      -9.742  -0.836  -0.276  0.00  0.00    +0.000 HD
ENDBRANCH  11  42
BRANCH  12  44
ATOM     44  O   UNL     1      -9.952  -1.077   2.874  0.00  0.00    -0.389 OA
ATOM     45  H   UNL     1     -10.392  -1.685   2.260  0.00  0.00    +0.000 HD
ENDBRANCH  12  44
TORSDOF 12
