REMARK  Name = 
REMARK  18 active torsions:
REMARK  status: ('A' for Active; 'I' for Inactive)
REMARK    1  A    between atoms: C_1  and  C_2
REMARK    2  A    between atoms: C_2  and  C_35
REMARK    3  A    between atoms: C_3  and  C_4
REMARK    4  A    between atoms: C_4  and  C_5
REMARK    5  A    between atoms: C_6  and  O_7
REMARK    6  A    between atoms: C_9  and  C_13
REMARK    7  A    between atoms: C_11  and  O_12
REMARK    8  A    between atoms: C_14  and  C_15
REMARK    9  A    between atoms: C_17  and  O_18
REMARK   10  A    between atoms: C_24  and  C_26
REMARK   11  A    between atoms: C_28  and  O_34
REMARK   12  A    between atoms: C_29  and  O_33
REMARK   13  A    between atoms: C_30  and  C_31
REMARK   14  A    between atoms: C_30  and  C_32
REMARK   15  A    between atoms: C_35  and  C_36
REMARK   16  A    between atoms: C_36  and  C_37
REMARK   17  A    between atoms: C_38  and  C_39
REMARK   18  A    between atoms: C_38  and  C_40
REMARK                            x       y       z     vdW  Elec       q    Type
REMARK                         _______ _______ _______ _____ _____    ______ ____
ROOT
ATOM      1  C   UNL     1      -2.385   1.927   0.247  0.00  0.00    -0.021 A 
ATOM      2  C   UNL     1      -3.149   3.096   0.383  0.00  0.00    -0.009 A 
ATOM      3  C   UNL     1      -4.549   3.042   0.350  0.00  0.00    +0.159 A 
ATOM      4  C   UNL     1      -5.197   1.813   0.194  0.00  0.00    +0.166 A 
ATOM      5  C   UNL     1      -4.447   0.625   0.111  0.00  0.00    -0.001 A 
ATOM      6  C   UNL     1      -3.045   0.688   0.125  0.00  0.00    -0.048 A 
ATOM      7  C   UNL     1      -5.138  -0.709  -0.033  0.00  0.00    -0.017 C 
ATOM      8  C   UNL     1      -6.627  -0.635   0.398  0.00  0.00    +0.010 C 
ATOM      9  C   UNL     1      -7.335   0.607  -0.241  0.00  0.00    +0.114 C 
ATOM     10  O   UNL     1      -6.597   1.775   0.141  0.00  0.00    -0.482 OA
ATOM     11  C   UNL     1      -7.346   0.580  -1.789  0.00  0.00    -0.025 C 
ATOM     12  C   UNL     1      -8.789   0.781   0.298  0.00  0.00    +0.016 C 
ATOM     13  C   UNL     1      -9.348  -0.435   1.069  0.00  0.00    +0.085 C 
ATOM     14  C   UNL     1      -8.976  -1.784   0.408  0.00  0.00    +0.087 C 
ATOM     15  C   UNL     1      -7.415  -2.008   0.316  0.00  0.00    +0.000 C 
ATOM     16  C   UNL     1      -6.990  -2.881   1.531  0.00  0.00    -0.057 C 
ATOM     17  C   UNL     1      -7.052  -2.829  -0.952  0.00  0.00    -0.057 C 
ENDROOT
BRANCH   1  19
ATOM     18  C   UNL     1      -0.086   1.140  -0.296  0.00  0.00    -0.054 C 
ATOM     19  C   UNL     1      -0.906   2.040   0.271  0.00  0.00    -0.054 C 
BRANCH  18  23
ATOM     20  C   UNL     1       4.208   1.521  -0.488  0.00  0.00    +0.039 A 
ATOM     21  C   UNL     1       3.487   2.183   0.538  0.00  0.00    +0.124 A 
ATOM     22  C   UNL     1       2.095   2.058   0.607  0.00  0.00    -0.013 A 
ATOM     23  C   UNL     1       1.390   1.286  -0.331  0.00  0.00    -0.018 A 
ATOM     24  C   UNL     1       2.109   0.603  -1.319  0.00  0.00    -0.013 A 
ATOM     25  C   UNL     1       3.502   0.713  -1.404  0.00  0.00    +0.124 A 
BRANCH  21  26
ATOM     26  O   UNL     1       4.115   2.963   1.513  0.00  0.00    -0.506 OA
ATOM     27  H   UNL     1       5.046   3.070   1.499  0.00  0.00    +0.000 HD
ENDBRANCH  21  26
BRANCH  25  28
ATOM     28  O   UNL     1       4.184   0.018  -2.403  0.00  0.00    -0.506 OA
ATOM     29  H   UNL     1       3.709  -0.518  -3.008  0.00  0.00    +0.000 HD
ENDBRANCH  25  28
BRANCH  20  30
ATOM     30  C   UNL     1       5.715   1.621  -0.584  0.00  0.00    -0.002 C 
BRANCH  30  33
ATOM     31  C   UNL     1       7.519  -0.711  -1.278  0.00  0.00    -0.044 C 
ATOM     32  C   UNL     1       7.163  -0.340   0.141  0.00  0.00    -0.076 C 
ATOM     33  C   UNL     1       6.362   0.710   0.433  0.00  0.00    -0.080 C 
BRANCH  32  34
ATOM     34  C   UNL     1       7.740  -1.159   1.278  0.00  0.00    -0.029 C 
BRANCH  34  35
ATOM     35  C   UNL     1       8.925  -0.447   1.946  0.00  0.00    -0.031 C 
BRANCH  35  36
ATOM     36  C   UNL     1      10.074  -0.259   0.985  0.00  0.00    -0.085 C 
ATOM     37  C   UNL     1      11.034  -1.179   0.749  0.00  0.00    -0.080 C 
ATOM     38  C   UNL     1      12.082  -0.874  -0.290  0.00  0.00    -0.044 C 
ATOM     39  C   UNL     1      11.095  -2.485   1.505  0.00  0.00    -0.044 C 
ENDBRANCH  35  36
ENDBRANCH  34  35
ENDBRANCH  32  34
ENDBRANCH  30  33
ENDBRANCH  20  30
ENDBRANCH  18  23
ENDBRANCH   1  19
BRANCH   3  40
ATOM     40  O   UNL     1      -5.302   4.209   0.468  0.00  0.00    -0.503 OA
ATOM     41  H   UNL     1      -4.873   5.036   0.572  0.00  0.00    +0.000 HD
ENDBRANCH   3  40
BRANCH  14  42
ATOM     42  O   UNL     1      -9.636  -1.988  -0.825  0.00  0.00    -0.389 OA
ATOM     43  H   UNL     1      -9.342  -1.321  -1.464  0.00  0.00    +0.000 HD
ENDBRANCH  14  42
BRANCH  13  44
ATOM     44  O   UNL     1     -10.746  -0.331   1.167  0.00  0.00    -0.389 OA
ATOM     45  H   UNL     1     -11.134  -0.343   0.278  0.00  0.00    +0.000 HD
ENDBRANCH  13  44
TORSDOF 12
