REMARK  Name = 
REMARK  13 active torsions:
REMARK  status: ('A' for Active; 'I' for Inactive)
REMARK    1  A    between atoms: C_1  and  C_2
REMARK    2  A    between atoms: C_2  and  C_3
REMARK    3  A    between atoms: C_3  and  C_4
REMARK    4  A    between atoms: C_3  and  C_7
REMARK    5  A    between atoms: C_4  and  C_5
REMARK    6  A    between atoms: C_4  and  C_6
REMARK    7  A    between atoms: C_7  and  C_8
REMARK    8  A    between atoms: C_8  and  C_9
REMARK    9  A    between atoms: C_9  and  C_10
REMARK   10  A    between atoms: C_9  and  C_30
REMARK   11  A    between atoms: C_14  and  C_15
REMARK   12  A    between atoms: C_23  and  C_24
REMARK   13  A    between atoms: C_27  and  O_29
REMARK                            x       y       z     vdW  Elec       q    Type
REMARK                         _______ _______ _______ _____ _____    ______ ____
ROOT
ATOM      1  C   UNL     1      -1.137   0.019  -0.659  0.00  0.00    -0.033 C 
ATOM      2  C   UNL     1      -1.293  -1.512  -0.876  0.00  0.00    -0.049 C 
ATOM      3  C   UNL     1       0.108  -2.131  -0.779  0.00  0.00    -0.049 C 
ATOM      4  C   UNL     1       0.985  -0.983  -0.309  0.00  0.00    -0.032 C 
ATOM      5  C   UNL     1       0.374   0.276  -0.948  0.00  0.00    -0.026 C 
ATOM      6  C   UNL     1       0.632   0.370  -2.486  0.00  0.00    -0.059 C 
ATOM      7  C   UNL     1       0.998   1.490  -0.214  0.00  0.00    -0.047 C 
ATOM      8  C   UNL     1       2.541   1.486  -0.321  0.00  0.00    -0.049 C 
ATOM      9  C   UNL     1       3.196   0.143   0.138  0.00  0.00    -0.029 C 
ATOM     10  C   UNL     1       2.512  -1.102  -0.503  0.00  0.00    -0.031 C 
ATOM     11  C   UNL     1       3.039  -2.376   0.176  0.00  0.00    -0.031 C 
ATOM     12  C   UNL     1       4.536  -2.405   0.281  0.00  0.00    -0.084 C 
ATOM     13  C   UNL     1       5.307  -1.296   0.317  0.00  0.00    -0.065 C 
ATOM     14  C   UNL     1       4.763   0.098  -0.041  0.00  0.00    -0.008 C 
ATOM     15  C   UNL     1       5.175   0.417  -1.505  0.00  0.00    -0.056 C 
ATOM     16  C   UNL     1       5.413   1.147   0.917  0.00  0.00    -0.041 C 
ATOM     17  C   UNL     1       6.938   1.005   1.047  0.00  0.00    -0.026 C 
ATOM     18  C   UNL     1       7.320  -0.399   1.525  0.00  0.00    +0.059 C 
ATOM     19  C   UNL     1       6.798  -1.462   0.550  0.00  0.00    -0.005 C 
ENDROOT
BRANCH   1  20
ATOM     20  C   UNL     1      -2.202   0.844  -1.461  0.00  0.00    -0.041 C 
ATOM     21  C   UNL     1      -2.070   2.360  -1.230  0.00  0.00    -0.062 C 
BRANCH  20  22
ATOM     22  C   UNL     1      -3.662   0.387  -1.171  0.00  0.00    -0.050 C 
BRANCH  22  23
ATOM     23  C   UNL     1      -4.089   0.515   0.310  0.00  0.00    -0.050 C 
BRANCH  23  24
ATOM     24  C   UNL     1      -5.595   0.191   0.522  0.00  0.00    -0.039 C 
BRANCH  24  25
ATOM     25  C   UNL     1      -5.939  -0.091   2.028  0.00  0.00    -0.044 C 
ATOM     26  C   UNL     1      -5.061  -1.200   2.647  0.00  0.00    -0.062 C 
ATOM     27  C   UNL     1      -7.418  -0.492   2.204  0.00  0.00    -0.062 C 
ENDBRANCH  24  25
BRANCH  24  29
ATOM     28  C   UNL     1      -7.561   0.850  -0.994  0.00  0.00    -0.065 C 
ATOM     29  C   UNL     1      -6.470   1.354  -0.048  0.00  0.00    -0.053 C 
ENDBRANCH  24  29
ENDBRANCH  23  24
ENDBRANCH  22  23
ENDBRANCH  20  22
ENDBRANCH   1  20
BRANCH  18  30
ATOM     30  O   UNL     1       8.718  -0.485   1.622  0.00  0.00    -0.391 OA
ATOM     31  H   UNL     1       9.113  -0.324   0.751  0.00  0.00    +0.000 HD
ENDBRANCH  18  30
TORSDOF 7
