REMARK  Name = 
REMARK  12 active torsions:
REMARK  status: ('A' for Active; 'I' for Inactive)
REMARK    1  A    between atoms: O_1  and  C_2
REMARK    2  A    between atoms: C_3  and  O_23
REMARK    3  A    between atoms: C_6  and  O_14
REMARK    4  A    between atoms: C_7  and  O_8
REMARK    5  A    between atoms: C_7  and  C_9
REMARK    6  A    between atoms: C_9  and  O_10
REMARK    7  A    between atoms: O_10  and  C_11
REMARK    8  A    between atoms: C_11  and  C_13
REMARK    9  A    between atoms: O_14  and  C_15
REMARK   10  A    between atoms: C_15  and  C_17
REMARK   11  A    between atoms: O_23  and  C_24
REMARK   12  A    between atoms: C_24  and  C_26
REMARK                            x       y       z     vdW  Elec       q    Type
REMARK                         _______ _______ _______ _____ _____    ______ ____
ROOT
ATOM      1  C   UNL     1      -1.868  -1.067  -1.191  0.00  0.00    +0.131 C 
ATOM      2  C   UNL     1      -1.842  -2.498  -0.591  0.00  0.00    +0.150 C 
ATOM      3  C   UNL     1      -0.444  -3.052  -0.469  0.00  0.00    -0.042 C 
ATOM      4  C   UNL     1       0.662  -2.291  -0.486  0.00  0.00    -0.041 C 
ATOM      5  C   UNL     1       0.652  -0.815  -0.826  0.00  0.00    +0.156 C 
ATOM      6  C   UNL     1      -0.744  -0.159  -0.607  0.00  0.00    +0.170 C 
ENDROOT
BRANCH   1   7
ATOM      7  O   UNL     1      -1.812  -1.121  -2.598  0.00  0.00    -0.385 OA
ATOM      8  H   UNL     1      -2.523  -1.692  -2.929  0.00  0.00    +0.000 HD
ENDBRANCH   1   7
BRANCH   6   9
ATOM      9  O   UNL     1      -0.983   0.066   0.767  0.00  0.00    -0.379 OA
ATOM     10  H   UNL     1      -0.282   0.631   1.129  0.00  0.00    +0.000 HD
ENDBRANCH   6   9
BRANCH   6  11
ATOM     11  C   UNL     1      -0.763   1.223  -1.297  0.00  0.00    +0.127 C 
BRANCH  11  12
ATOM     12  O   UNL     1      -2.021   1.862  -1.091  0.00  0.00    -0.462 OA
BRANCH  12  13
ATOM     13  C   UNL     1      -2.313   3.133  -1.594  0.00  0.00    +0.304 C 
ATOM     14  O   UNL     1      -1.462   3.769  -2.272  0.00  0.00    -0.251 OA
ATOM     15  C   UNL     1      -3.661   3.724  -1.359  0.00  0.00    +0.033 C 
ENDBRANCH  12  13
ENDBRANCH  11  12
ENDBRANCH   6  11
BRANCH   5  16
ATOM     16  O   UNL     1       1.625  -0.130  -0.035  0.00  0.00    -0.451 OA
BRANCH  16  17
ATOM     17  C   UNL     1       3.007  -0.216  -0.250  0.00  0.00    +0.340 C 
ATOM     18  O   UNL     1       3.458  -0.909  -1.203  0.00  0.00    -0.245 OA
BRANCH  17  19
ATOM     19  C   UNL     1       3.933   0.514   0.642  0.00  0.00    +0.059 A 
ATOM     20  C   UNL     1       5.327   0.424   0.461  0.00  0.00    -0.048 A 
ATOM     21  C   UNL     1       6.196   1.117   1.309  0.00  0.00    -0.061 A 
ATOM     22  C   UNL     1       5.686   1.904   2.344  0.00  0.00    -0.062 A 
ATOM     23  C   UNL     1       4.306   2.000   2.533  0.00  0.00    -0.061 A 
ATOM     24  C   UNL     1       3.432   1.310   1.688  0.00  0.00    -0.048 A 
ENDBRANCH  17  19
ENDBRANCH  16  17
ENDBRANCH   5  16
BRANCH   2  25
ATOM     25  O   UNL     1      -2.444  -2.513   0.705  0.00  0.00    -0.455 OA
BRANCH  25  26
ATOM     26  C   UNL     1      -3.825  -2.448   0.919  0.00  0.00    +0.305 C 
ATOM     27  O   UNL     1      -4.630  -2.421  -0.052  0.00  0.00    -0.251 OA
ATOM     28  C   UNL     1      -4.351  -2.390   2.312  0.00  0.00    +0.033 C 
ENDBRANCH  25  26
ENDBRANCH   2  25
TORSDOF 10
