REMARK  Name = 
REMARK  4 active torsions:
REMARK  status: ('A' for Active; 'I' for Inactive)
REMARK    1  A    between atoms: C_11  and  C_12
REMARK    2  A    between atoms: C_11  and  O_13
REMARK    3  A    between atoms: C_14  and  C_15
REMARK    4  A    between atoms: C_14  and  C_16
REMARK                            x       y       z     vdW  Elec       q    Type
REMARK                         _______ _______ _______ _____ _____    ______ ____
ROOT
ATOM      1  C   UNL     1      -1.725  -2.755   1.524  0.00  0.00    -0.099 C 
ATOM      2  C   UNL     1      -1.184  -1.909   0.632  0.00  0.00    -0.073 C 
ATOM      3  C   UNL     1      -0.422  -2.456  -0.558  0.00  0.00    -0.031 C 
ATOM      4  C   UNL     1       1.107  -2.345  -0.409  0.00  0.00    -0.046 C 
ATOM      5  C   UNL     1       1.727  -1.072   0.238  0.00  0.00    -0.032 C 
ATOM      6  C   UNL     1       1.066   0.322   0.331  0.00  0.00    -0.026 C 
ATOM      7  C   UNL     1      -0.426   0.430  -0.059  0.00  0.00    -0.002 C 
ATOM      8  C   UNL     1      -1.290  -0.413   0.876  0.00  0.00    -0.014 C 
ATOM      9  C   UNL     1      -2.706   0.128   0.681  0.00  0.00    -0.044 C 
ATOM     10  C   UNL     1      -2.555   1.565   0.170  0.00  0.00    -0.023 C 
ATOM     11  C   UNL     1      -1.040   1.845   0.022  0.00  0.00    +0.067 C 
ATOM     12  C   UNL     1      -0.527   2.681   1.220  0.00  0.00    -0.036 C 
ATOM     13  C   UNL     1       2.157   0.061  -0.719  0.00  0.00    -0.028 C 
ATOM     14  C   UNL     1       3.495   0.736  -0.398  0.00  0.00    -0.059 C 
ATOM     15  C   UNL     1       1.752   0.062  -2.206  0.00  0.00    -0.059 C 
ENDROOT
BRANCH  11  16
ATOM     16  O   UNL     1      -0.775   2.535  -1.177  0.00  0.00    -0.389 OA
ATOM     17  H   UNL     1      -1.160   3.425  -1.130  0.00  0.00    +0.000 HD
ENDBRANCH  11  16
TORSDOF 1
