REMARK  Name = 
REMARK  17 active torsions:
REMARK  status: ('A' for Active; 'I' for Inactive)
REMARK    1  A    between atoms: C_1  and  C_2
REMARK    2  A    between atoms: C_2  and  C_3
REMARK    3  A    between atoms: C_3  and  C_4
REMARK    4  A    between atoms: C_4  and  C_5
REMARK    5  A    between atoms: C_5  and  C_6
REMARK    6  A    between atoms: C_6  and  C_7
REMARK    7  A    between atoms: C_7  and  C_8
REMARK    8  A    between atoms: C_8  and  C_9
REMARK    9  A    between atoms: C_9  and  C_10
REMARK   10  A    between atoms: C_10  and  C_11
REMARK   11  A    between atoms: C_11  and  C_12
REMARK   12  A    between atoms: C_12  and  C_13
REMARK   13  A    between atoms: C_13  and  C_14
REMARK   14  A    between atoms: C_14  and  C_15
REMARK   15  A    between atoms: C_15  and  C_16
REMARK   16  A    between atoms: C_16  and  C_17
REMARK   17  A    between atoms: C_17  and  C_18
REMARK                            x       y       z     vdW  Elec       q    Type
REMARK                         _______ _______ _______ _____ _____    ______ ____
ROOT
ATOM      1  C   UNL     1       0.204   0.006  -0.178  0.00  0.00    -0.053 C 
ENDROOT
BRANCH   1   2
ATOM      2  C   UNL     1       1.189   1.081  -0.662  0.00  0.00    -0.053 C 
BRANCH   2   3
ATOM      3  C   UNL     1       2.475   0.484  -1.254  0.00  0.00    -0.053 C 
BRANCH   3   4
ATOM      4  C   UNL     1       3.370  -0.169  -0.190  0.00  0.00    -0.053 C 
BRANCH   4   5
ATOM      5  C   UNL     1       4.710  -0.611  -0.797  0.00  0.00    -0.053 C 
BRANCH   5   6
ATOM      6  C   UNL     1       5.567  -1.438   0.178  0.00  0.00    -0.053 C 
BRANCH   6   7
ATOM      7  C   UNL     1       5.974  -0.704   1.473  0.00  0.00    -0.043 C 
BRANCH   7   8
ATOM      8  C   UNL     1       6.787   0.581   1.249  0.00  0.00    +0.045 C 
BRANCH   8   9
ATOM      9  C   UNL     1       8.074   0.313   0.531  0.00  0.00    +0.305 C 
ATOM     10  O   UNL     1       9.056  -0.170   1.155  0.00  0.00    -0.251 OA
ATOM     11  O   UNL     1       8.173   0.568  -0.833  0.00  0.00    -0.481 OA
ENDBRANCH   8   9
ENDBRANCH   7   8
ENDBRANCH   6   7
ENDBRANCH   5   6
ENDBRANCH   4   5
ENDBRANCH   3   4
ENDBRANCH   2   3
ENDBRANCH   1   2
BRANCH   1  12
ATOM     12  C   UNL     1      -1.127   0.638   0.255  0.00  0.00    -0.053 C 
BRANCH  12  13
ATOM     13  C   UNL     1      -2.081  -0.373   0.915  0.00  0.00    -0.053 C 
BRANCH  13  14
ATOM     14  C   UNL     1      -2.519  -1.541   0.009  0.00  0.00    -0.053 C 
BRANCH  14  15
ATOM     15  C   UNL     1      -3.193  -1.127  -1.315  0.00  0.00    -0.053 C 
BRANCH  15  16
ATOM     16  C   UNL     1      -4.432  -0.228  -1.156  0.00  0.00    -0.053 C 
BRANCH  16  17
ATOM     17  C   UNL     1      -5.561  -0.907  -0.363  0.00  0.00    -0.053 C 
BRANCH  17  18
ATOM     18  C   UNL     1      -6.894  -0.143  -0.449  0.00  0.00    -0.053 C 
BRANCH  18  20
ATOM     19  C   UNL     1      -6.521   1.321   1.617  0.00  0.00    -0.065 C 
ATOM     20  C   UNL     1      -6.857   1.285   0.126  0.00  0.00    -0.056 C 
ENDBRANCH  18  20
ENDBRANCH  17  18
ENDBRANCH  16  17
ENDBRANCH  15  16
ENDBRANCH  14  15
ENDBRANCH  13  14
ENDBRANCH  12  13
ENDBRANCH   1  12
TORSDOF 16
