REMARK  Name = 
REMARK  12 active torsions:
REMARK  status: ('A' for Active; 'I' for Inactive)
REMARK    1  A    between atoms: C_1  and  C_2
REMARK    2  A    between atoms: C_2  and  C_3
REMARK    3  A    between atoms: C_3  and  C_4
REMARK    4  A    between atoms: C_3  and  C_7
REMARK    5  A    between atoms: C_4  and  C_5
REMARK    6  A    between atoms: C_4  and  C_6
REMARK    7  A    between atoms: C_8  and  C_9
REMARK    8  A    between atoms: C_9  and  C_10
REMARK    9  A    between atoms: C_9  and  C_30
REMARK   10  A    between atoms: C_14  and  C_15
REMARK   11  A    between atoms: C_23  and  C_24
REMARK   12  A    between atoms: C_27  and  O_29
REMARK                            x       y       z     vdW  Elec       q    Type
REMARK                         _______ _______ _______ _____ _____    ______ ____
ROOT
ATOM      1  C   UNL     1      -1.087   2.013  -0.190  0.00  0.00    -0.029 C 
ATOM      2  C   UNL     1      -1.322   1.803   1.326  0.00  0.00    -0.049 C 
ATOM      3  C   UNL     1      -0.062   1.097   1.865  0.00  0.00    -0.049 C 
ATOM      4  C   UNL     1       0.899   1.081   0.681  0.00  0.00    -0.032 C 
ATOM      5  C   UNL     1      -0.004   0.964  -0.556  0.00  0.00    -0.026 C 
ATOM      6  C   UNL     1      -0.631  -0.455  -0.730  0.00  0.00    -0.059 C 
ATOM      7  C   UNL     1       0.857   1.321  -1.788  0.00  0.00    -0.047 C 
ATOM      8  C   UNL     1       2.076   0.376  -1.906  0.00  0.00    -0.049 C 
ATOM      9  C   UNL     1       2.930   0.293  -0.597  0.00  0.00    -0.029 C 
ATOM     10  C   UNL     1       2.068   0.073   0.685  0.00  0.00    -0.031 C 
ATOM     11  C   UNL     1       2.949   0.277   1.928  0.00  0.00    -0.031 C 
ATOM     12  C   UNL     1       4.259  -0.456   1.845  0.00  0.00    -0.084 C 
ATOM     13  C   UNL     1       4.857  -0.795   0.680  0.00  0.00    -0.065 C 
ATOM     14  C   UNL     1       4.119  -0.740  -0.669  0.00  0.00    -0.008 C 
ATOM     15  C   UNL     1       3.613  -2.172  -0.998  0.00  0.00    -0.056 C 
ATOM     16  C   UNL     1       5.122  -0.283  -1.776  0.00  0.00    -0.041 C 
ATOM     17  C   UNL     1       6.466  -1.024  -1.739  0.00  0.00    -0.026 C 
ATOM     18  C   UNL     1       7.138  -0.868  -0.372  0.00  0.00    +0.059 C 
ATOM     19  C   UNL     1       6.237  -1.425   0.736  0.00  0.00    -0.005 C 
ENDROOT
BRANCH   1  20
ATOM     20  C   UNL     1      -2.356   2.112  -1.101  0.00  0.00    -0.022 C 
ATOM     21  C   UNL     1      -3.082   3.453  -0.899  0.00  0.00    -0.059 C 
BRANCH  20  23
ATOM     22  C   UNL     1      -4.232   0.774  -0.049  0.00  0.00    -0.084 C 
ATOM     23  C   UNL     1      -3.332   0.950  -1.032  0.00  0.00    -0.085 C 
BRANCH  22  24
ATOM     24  C   UNL     1      -5.212  -0.384  -0.077  0.00  0.00    -0.021 C 
BRANCH  24  25
ATOM     25  C   UNL     1      -4.478  -1.728   0.224  0.00  0.00    -0.040 C 
ATOM     26  C   UNL     1      -5.340  -2.951  -0.122  0.00  0.00    -0.062 C 
ATOM     27  C   UNL     1      -3.964  -1.828   1.669  0.00  0.00    -0.062 C 
ENDBRANCH  24  25
BRANCH  24  29
ATOM     28  C   UNL     1      -7.273   1.052   0.395  0.00  0.00    -0.065 C 
ATOM     29  C   UNL     1      -6.404  -0.112   0.876  0.00  0.00    -0.049 C 
ENDBRANCH  24  29
ENDBRANCH  22  24
ENDBRANCH  20  23
ENDBRANCH   1  20
BRANCH  18  30
ATOM     30  O   UNL     1       8.361  -1.558  -0.381  0.00  0.00    -0.391 OA
ATOM     31  H   UNL     1       8.199  -2.498  -0.556  0.00  0.00    +0.000 HD
ENDBRANCH  18  30
TORSDOF 6
