REMARK  Name = 
REMARK  5 active torsions:
REMARK  status: ('A' for Active; 'I' for Inactive)
REMARK    1  A    between atoms: C_1  and  O_2
REMARK    2  A    between atoms: O_2  and  C_3
REMARK    3  A    between atoms: C_13  and  C_19
REMARK    4  A    between atoms: C_16  and  O_17
REMARK    5  A    between atoms: O_17  and  C_18
REMARK                            x       y       z     vdW  Elec       q    Type
REMARK                         _______ _______ _______ _____ _____    ______ ____
ROOT
ATOM      1  C   UNL     1       2.559  -0.766   1.873  0.00  0.00    +0.162 A 
ATOM      2  C   UNL     1       3.001  -0.094   0.719  0.00  0.00    -0.013 A 
ATOM      3  C   UNL     1       2.084   0.308  -0.260  0.00  0.00    -0.040 A 
ATOM      4  C   UNL     1       2.526   1.108  -1.464  0.00  0.00    -0.021 C 
ATOM      5  C   UNL     1       1.580   2.319  -1.720  0.00  0.00    +0.011 C 
ATOM      6  C   UNL     1       1.958   3.524  -0.822  0.00  0.00    +0.096 C 
ATOM      7  O   UNL     1       0.915   3.647   0.124  0.00  0.00    -0.464 OA
ATOM      8  C   UNL     1      -0.152   2.835  -0.185  0.00  0.00    +0.312 C 
ATOM      9  O   UNL     1      -1.187   2.792   0.530  0.00  0.00    -0.250 OA
ATOM     10  C   UNL     1       0.070   2.023  -1.421  0.00  0.00    +0.073 C 
ATOM     11  C   UNL     1      -0.204   0.503  -1.227  0.00  0.00    +0.023 C 
ATOM     12  C   UNL     1       0.719   0.001  -0.121  0.00  0.00    -0.032 A 
ATOM     13  C   UNL     1       0.272  -0.616   1.061  0.00  0.00    -0.012 A 
ATOM     14  C   UNL     1       1.190  -1.018   2.050  0.00  0.00    +0.162 A 
ENDROOT
BRANCH  11  15
ATOM     15  C   UNL     1      -1.665   0.058  -1.133  0.00  0.00    -0.035 A 
ATOM     16  C   UNL     1      -2.764   0.963  -1.224  0.00  0.00    -0.054 A 
ATOM     17  C   UNL     1      -4.090   0.495  -1.186  0.00  0.00    -0.016 A 
ATOM     18  C   UNL     1      -4.296  -0.875  -1.095  0.00  0.00    +0.166 A 
ATOM     19  C   UNL     1      -3.265  -1.752  -1.054  0.00  0.00    +0.167 A 
ATOM     20  C   UNL     1      -1.940  -1.333  -1.089  0.00  0.00    -0.012 A 
ATOM     21  O   UNL     1      -3.759  -3.041  -0.984  0.00  0.00    -0.453 OA
ATOM     22  C   UNL     1      -5.191  -2.966  -0.977  0.00  0.00    +0.233 C 
ATOM     23  O   UNL     1      -5.492  -1.566  -1.051  0.00  0.00    -0.453 OA
ENDBRANCH  11  15
BRANCH   1  25
ATOM     24  C   UNL     1       4.859  -1.000   2.834  0.00  0.00    +0.079 C 
ATOM     25  O   UNL     1       3.448  -1.189   2.874  0.00  0.00    -0.491 OA
ENDBRANCH   1  25
BRANCH  14  26
ATOM     26  O   UNL     1       0.780  -1.665   3.227  0.00  0.00    -0.491 OA
ATOM     27  C   UNL     1      -0.570  -1.994   3.541  0.00  0.00    +0.079 C 
ENDBRANCH  14  26
TORSDOF 3
