REMARK  Name = 
REMARK  9 active torsions:
REMARK  status: ('A' for Active; 'I' for Inactive)
REMARK    1  A    between atoms: C_1  and  O_2
REMARK    2  A    between atoms: O_2  and  C_3
REMARK    3  A    between atoms: C_6  and  C_9
REMARK    4  A    between atoms: C_17  and  O_24
REMARK    5  A    between atoms: C_18  and  O_22
REMARK    6  A    between atoms: C_19  and  O_20
REMARK    7  A    between atoms: O_20  and  C_21
REMARK    8  A    between atoms: O_22  and  C_23
REMARK    9  A    between atoms: O_24  and  C_25
REMARK                            x       y       z     vdW  Elec       q    Type
REMARK                         _______ _______ _______ _____ _____    ______ ____
ROOT
ATOM      1  C   UNL     1       1.422  -0.275  -0.071  0.00  0.00    +0.139 A 
ATOM      2  C   UNL     1       1.242  -0.974  -1.273  0.00  0.00    +0.029 A 
ATOM      3  C   UNL     1      -0.025  -1.022  -1.855  0.00  0.00    +0.197 A 
ATOM      4  O   UNL     1      -0.168  -1.656  -2.935  0.00  0.00    -0.287 OA
ATOM      5  C   UNL     1      -1.113  -0.371  -1.227  0.00  0.00    +0.109 A 
ATOM      6  C   UNL     1      -0.848   0.300  -0.015  0.00  0.00    +0.146 A 
ATOM      7  O   UNL     1       0.378   0.318   0.500  0.00  0.00    -0.454 OA
ATOM      8  C   UNL     1      -1.867   0.956   0.662  0.00  0.00    +0.027 A 
ATOM      9  C   UNL     1      -3.178   0.971   0.162  0.00  0.00    +0.169 A 
ATOM     10  C   UNL     1      -3.471   0.304  -1.058  0.00  0.00    +0.204 A 
ATOM     11  C   UNL     1      -2.429  -0.372  -1.757  0.00  0.00    +0.180 A 
ENDROOT
BRANCH   1  15
ATOM     12  C   UNL     1       5.235   0.010   1.917  0.00  0.00    +0.120 A 
ATOM     13  C   UNL     1       5.181  -0.168   0.523  0.00  0.00    -0.019 A 
ATOM     14  C   UNL     1       3.949  -0.262  -0.131  0.00  0.00    -0.048 A 
ATOM     15  C   UNL     1       2.746  -0.189   0.597  0.00  0.00    +0.018 A 
ATOM     16  C   UNL     1       2.808   0.002   1.988  0.00  0.00    -0.048 A 
ATOM     17  C   UNL     1       4.040   0.095   2.639  0.00  0.00    -0.019 A 
BRANCH  12  19
ATOM     18  C   UNL     1       7.733   0.039   2.013  0.00  0.00    +0.079 C 
ATOM     19  O   UNL     1       6.446   0.108   2.618  0.00  0.00    -0.495 OA
ENDBRANCH  12  19
ENDBRANCH   1  15
BRANCH  11  20
ATOM     20  O   UNL     1      -2.643  -1.056  -2.974  0.00  0.00    -0.491 OA
ATOM     21  C   UNL     1      -3.865  -1.192  -3.692  0.00  0.00    +0.079 C 
ENDBRANCH  11  20
BRANCH  10  22
ATOM     22  O   UNL     1      -4.766   0.285  -1.610  0.00  0.00    -0.488 OA
ATOM     23  C   UNL     1      -5.943   0.890  -1.085  0.00  0.00    +0.079 C 
ENDBRANCH  10  22
BRANCH   9  24
ATOM     24  O   UNL     1      -4.197   1.639   0.861  0.00  0.00    -0.491 OA
ATOM     25  C   UNL     1      -4.028   2.340   2.090  0.00  0.00    +0.079 C 
ENDBRANCH   9  24
TORSDOF 5
