REMARK  Name = 
REMARK  3 active torsions:
REMARK  status: ('A' for Active; 'I' for Inactive)
REMARK    1  A    between atoms: C_5  and  O_22
REMARK    2  A    between atoms: C_9  and  C_11
REMARK    3  A    between atoms: C_12  and  C_13
REMARK                            x       y       z     vdW  Elec       q    Type
REMARK                         _______ _______ _______ _____ _____    ______ ____
ROOT
ATOM      1  O   UNL     1      -5.469  -1.066   0.667  0.00  0.00    -0.293 OA
ATOM      2  C   UNL     1      -4.560  -0.651  -0.098  0.00  0.00    +0.158 C 
ATOM      3  C   UNL     1      -4.929   0.036  -1.374  0.00  0.00    -0.020 C 
ATOM      4  C   UNL     1      -3.990   0.625  -2.139  0.00  0.00    -0.047 C 
ATOM      5  C   UNL     1      -2.593   0.728  -1.595  0.00  0.00    +0.112 C 
ATOM      6  C   UNL     1      -2.247  -0.633  -0.963  0.00  0.00    +0.074 C 
ATOM      7  C   UNL     1      -3.102  -0.858   0.290  0.00  0.00    +0.032 C 
ATOM      8  N   UNL     1      -0.803  -0.601  -0.802  0.00  0.00    -0.232 N 
ATOM      9  C   UNL     1      -0.028  -1.643  -0.189  0.00  0.00    +0.246 C 
ATOM     10  O   UNL     1      -0.477  -2.820  -0.164  0.00  0.00    -0.270 OA
ATOM     11  C   UNL     1      -0.339   0.216  -1.882  0.00  0.00    +0.225 C 
ATOM     12  O   UNL     1       0.868   0.265  -2.243  0.00  0.00    -0.275 OA
ATOM     13  C   UNL     1      -1.443   0.939  -2.590  0.00  0.00    +0.059 C 
ENDROOT
BRANCH   9  14
ATOM     14  C   UNL     1       1.287  -1.374   0.422  0.00  0.00    +0.001 C 
ATOM     15  C   UNL     1       1.685  -0.137   0.752  0.00  0.00    -0.050 C 
BRANCH  15  16
ATOM     16  C   UNL     1       2.999   0.174   1.367  0.00  0.00    -0.025 A 
ATOM     17  C   UNL     1       3.761  -0.788   2.063  0.00  0.00    -0.055 A 
ATOM     18  C   UNL     1       4.989  -0.439   2.633  0.00  0.00    -0.061 A 
ATOM     19  C   UNL     1       5.468   0.868   2.525  0.00  0.00    -0.062 A 
ATOM     20  C   UNL     1       4.716   1.832   1.851  0.00  0.00    -0.061 A 
ATOM     21  C   UNL     1       3.486   1.490   1.280  0.00  0.00    -0.055 A 
ENDBRANCH  15  16
ENDBRANCH   9  14
BRANCH   5  22
ATOM     22  O   UNL     1      -2.588   1.770  -0.638  0.00  0.00    -0.382 OA
ATOM     23  H   UNL     1      -3.315   1.635  -0.010  0.00  0.00    +0.000 HD
ENDBRANCH   5  22
TORSDOF 3
