REMARK  Name = 
REMARK  8 active torsions:
REMARK  status: ('A' for Active; 'I' for Inactive)
REMARK    1  A    between atoms: C_1  and  O_2
REMARK    2  A    between atoms: O_2  and  C_3
REMARK    3  A    between atoms: C_3  and  C_5
REMARK    4  A    between atoms: C_5  and  C_6
REMARK    5  A    between atoms: C_6  and  O_7
REMARK    6  A    between atoms: C_13  and  N_14
REMARK    7  A    between atoms: C_15  and  C_17
REMARK    8  A    between atoms: C_18  and  C_19
REMARK                            x       y       z     vdW  Elec       q    Type
REMARK                         _______ _______ _______ _____ _____    ______ ____
ROOT
ATOM      1  C   UNL     1      -2.650  -0.741   0.433  0.00  0.00    +0.113 C 
ATOM      2  C   UNL     1      -3.954  -1.516   0.320  0.00  0.00    -0.047 C 
ATOM      3  C   UNL     1      -4.178  -2.644   1.002  0.00  0.00    -0.020 C 
ATOM      4  C   UNL     1      -3.127  -3.258   1.828  0.00  0.00    +0.158 C 
ATOM      5  O   UNL     1      -3.375  -4.311   2.472  0.00  0.00    -0.293 OA
ATOM      6  C   UNL     1      -1.778  -2.611   1.944  0.00  0.00    +0.031 C 
ATOM      7  C   UNL     1      -1.481  -1.745   0.707  0.00  0.00    +0.063 C 
ENDROOT
BRANCH   7   8
ATOM      8  N   UNL     1      -0.203  -1.048   0.898  0.00  0.00    -0.305 N 
ATOM      9  C   UNL     1       0.833  -1.019  -0.096  0.00  0.00    +0.237 C 
ATOM     10  O   UNL     1       0.681  -1.633  -1.188  0.00  0.00    -0.271 OA
ATOM     11  H   UNL     1      -0.048  -0.579   1.750  0.00  0.00    +0.000 HD
BRANCH   9  12
ATOM     12  C   UNL     1       2.070  -0.259   0.165  0.00  0.00    +0.001 C 
ATOM     13  C   UNL     1       3.077  -0.206  -0.719  0.00  0.00    -0.050 C 
BRANCH  13  14
ATOM     14  C   UNL     1       4.338   0.541  -0.488  0.00  0.00    -0.025 A 
ATOM     15  C   UNL     1       4.431   1.609   0.429  0.00  0.00    -0.055 A 
ATOM     16  C   UNL     1       5.641   2.289   0.602  0.00  0.00    -0.061 A 
ATOM     17  C   UNL     1       6.765   1.921  -0.139  0.00  0.00    -0.062 A 
ATOM     18  C   UNL     1       6.681   0.876  -1.061  0.00  0.00    -0.061 A 
ATOM     19  C   UNL     1       5.475   0.193  -1.239  0.00  0.00    -0.055 A 
ENDBRANCH  13  14
ENDBRANCH   9  12
ENDBRANCH   7   8
BRANCH   1  20
ATOM     20  O   UNL     1      -2.783   0.153   1.515  0.00  0.00    -0.382 OA
ATOM     21  H   UNL     1      -3.509   0.771   1.336  0.00  0.00    +0.000 HD
ENDBRANCH   1  20
BRANCH   1  22
ATOM     22  C   UNL     1      -2.389   0.034  -0.891  0.00  0.00    +0.079 C 
BRANCH  22  23
ATOM     23  C   UNL     1      -3.423   1.088  -1.164  0.00  0.00    +0.310 C 
ATOM     24  O   UNL     1      -4.316   0.882  -2.031  0.00  0.00    -0.251 OA
BRANCH  23  26
ATOM     25  C   UNL     1      -4.352   3.318  -0.635  0.00  0.00    +0.082 C 
ATOM     26  O   UNL     1      -3.392   2.286  -0.444  0.00  0.00    -0.468 OA
ENDBRANCH  23  26
ENDBRANCH  22  23
ENDBRANCH   1  22
TORSDOF 7
