REMARK  Name = 
REMARK  10 active torsions:
REMARK  status: ('A' for Active; 'I' for Inactive)
REMARK    1  A    between atoms: C_1  and  O_2
REMARK    2  A    between atoms: O_2  and  C_3
REMARK    3  A    between atoms: C_8  and  N_16
REMARK    4  A    between atoms: C_9  and  O_10
REMARK    5  A    between atoms: C_9  and  C_11
REMARK    6  A    between atoms: C_11  and  C_12
REMARK    7  A    between atoms: C_12  and  O_14
REMARK    8  A    between atoms: O_14  and  C_15
REMARK    9  A    between atoms: C_17  and  C_19
REMARK   10  A    between atoms: C_20  and  C_21
REMARK                            x       y       z     vdW  Elec       q    Type
REMARK                         _______ _______ _______ _____ _____    ______ ____
ROOT
ATOM      1  C   UNL     1      -2.732  -0.766   0.229  0.00  0.00    +0.096 C 
ATOM      2  C   UNL     1      -3.283  -2.175  -0.075  0.00  0.00    +0.035 C 
ATOM      3  C   UNL     1      -2.301  -2.972  -0.881  0.00  0.00    +0.138 C 
ATOM      4  O   UNL     1      -2.055  -4.131  -0.585  0.00  0.00    -0.297 OA
ATOM      5  C   UNL     1      -1.688  -2.357  -2.103  0.00  0.00    +0.027 C 
ATOM      6  C   UNL     1      -1.155  -0.947  -1.791  0.00  0.00    +0.062 C 
ATOM      7  C   UNL     1      -2.236  -0.059  -1.086  0.00  0.00    +0.121 C 
ENDROOT
BRANCH   6   8
ATOM      8  N   UNL     1       0.075  -1.052  -0.991  0.00  0.00    -0.306 N 
ATOM      9  C   UNL     1       1.279  -0.333  -1.302  0.00  0.00    +0.237 C 
ATOM     10  O   UNL     1       1.336   0.396  -2.330  0.00  0.00    -0.271 OA
ATOM     11  H   UNL     1       0.074  -1.644  -0.204  0.00  0.00    +0.000 HD
BRANCH   9  12
ATOM     12  C   UNL     1       2.446  -0.448  -0.406  0.00  0.00    +0.001 C 
ATOM     13  C   UNL     1       3.606   0.176  -0.658  0.00  0.00    -0.050 C 
BRANCH  13  14
ATOM     14  C   UNL     1       4.801   0.073   0.214  0.00  0.00    -0.025 A 
ATOM     15  C   UNL     1       6.064   0.355  -0.336  0.00  0.00    -0.055 A 
ATOM     16  C   UNL     1       7.215   0.280   0.454  0.00  0.00    -0.061 A 
ATOM     17  C   UNL     1       7.119  -0.067   1.802  0.00  0.00    -0.062 A 
ATOM     18  C   UNL     1       5.869  -0.333   2.367  0.00  0.00    -0.061 A 
ATOM     19  C   UNL     1       4.714  -0.261   1.582  0.00  0.00    -0.055 A 
ENDBRANCH  13  14
ENDBRANCH   9  12
ENDBRANCH   6   8
BRANCH   1  21
ATOM     20  C   UNL     1      -3.677  -0.065   2.245  0.00  0.00    +0.037 C 
ATOM     21  O   UNL     1      -3.760   0.003   0.837  0.00  0.00    -0.376 OA
ENDBRANCH   1  21
BRANCH   7  22
ATOM     22  O   UNL     1      -3.299   0.094  -2.005  0.00  0.00    -0.384 OA
ATOM     23  H   UNL     1      -2.973   0.531  -2.807  0.00  0.00    +0.000 HD
ENDBRANCH   7  22
BRANCH   7  24
ATOM     24  C   UNL     1      -1.608   1.337  -0.783  0.00  0.00    +0.078 C 
BRANCH  24  25
ATOM     25  C   UNL     1      -2.594   2.384  -0.354  0.00  0.00    +0.310 C 
ATOM     26  O   UNL     1      -3.306   2.968  -1.216  0.00  0.00    -0.251 OA
BRANCH  25  27
ATOM     27  O   UNL     1      -2.705   2.712   1.000  0.00  0.00    -0.468 OA
ATOM     28  C   UNL     1      -3.642   3.666   1.483  0.00  0.00    +0.082 C 
ENDBRANCH  25  27
ENDBRANCH  24  25
ENDBRANCH   7  24
TORSDOF 8
