REMARK  Name = 
REMARK  3 active torsions:
REMARK  status: ('A' for Active; 'I' for Inactive)
REMARK    1  A    between atoms: C_5  and  O_21
REMARK    2  A    between atoms: C_11  and  C_13
REMARK    3  A    between atoms: C_14  and  C_15
REMARK                            x       y       z     vdW  Elec       q    Type
REMARK                         _______ _______ _______ _____ _____    ______ ____
ROOT
ATOM      1  O   UNL     1      -2.736   3.111   0.176  0.00  0.00    -0.293 OA
ATOM      2  C   UNL     1      -2.901   1.890  -0.086  0.00  0.00    +0.158 C 
ATOM      3  C   UNL     1      -4.066   1.457  -0.857  0.00  0.00    -0.020 C 
ATOM      4  C   UNL     1      -4.168   0.203  -1.300  0.00  0.00    -0.048 C 
ATOM      5  C   UNL     1      -3.067  -0.827  -1.145  0.00  0.00    +0.105 C 
ATOM      6  C   UNL     1      -1.754  -0.295  -0.512  0.00  0.00    +0.066 C 
ATOM      7  C   UNL     1      -1.973   0.866   0.480  0.00  0.00    +0.031 C 
ATOM      8  N   UNL     1      -1.212  -1.445   0.208  0.00  0.00    -0.291 N 
ATOM      9  C   UNL     1      -2.204  -2.497   0.396  0.00  0.00    +0.018 C 
ATOM     10  C   UNL     1      -3.501  -1.964  -0.207  0.00  0.00    -0.003 C 
ATOM     11  C   UNL     1       0.138  -1.569   0.700  0.00  0.00    +0.240 C 
ATOM     12  O   UNL     1       0.445  -2.575   1.398  0.00  0.00    -0.271 OA
ENDROOT
BRANCH  11  13
ATOM     13  C   UNL     1       1.170  -0.550   0.400  0.00  0.00    +0.001 C 
ATOM     14  C   UNL     1       2.412  -0.625   0.900  0.00  0.00    -0.050 C 
BRANCH  14  15
ATOM     15  C   UNL     1       3.473   0.373   0.619  0.00  0.00    -0.025 A 
ATOM     16  C   UNL     1       3.183   1.699   0.233  0.00  0.00    -0.055 A 
ATOM     17  C   UNL     1       4.219   2.607  -0.008  0.00  0.00    -0.061 A 
ATOM     18  C   UNL     1       5.550   2.210   0.140  0.00  0.00    -0.062 A 
ATOM     19  C   UNL     1       5.848   0.905   0.538  0.00  0.00    -0.061 A 
ATOM     20  C   UNL     1       4.817  -0.007   0.781  0.00  0.00    -0.055 A 
ENDBRANCH  14  15
ENDBRANCH  11  13
BRANCH   5  21
ATOM     21  O   UNL     1      -2.802  -1.344  -2.431  0.00  0.00    -0.383 OA
ATOM     22  H   UNL     1      -2.529  -0.623  -3.020  0.00  0.00    +0.000 HD
ENDBRANCH   5  21
TORSDOF 3
