REMARK  Name = 
REMARK  10 active torsions:
REMARK  status: ('A' for Active; 'I' for Inactive)
REMARK    1  A    between atoms: C_1  and  O_2
REMARK    2  A    between atoms: O_2  and  C_3
REMARK    3  A    between atoms: C_8  and  N_16
REMARK    4  A    between atoms: C_9  and  O_10
REMARK    5  A    between atoms: C_9  and  C_11
REMARK    6  A    between atoms: C_11  and  C_12
REMARK    7  A    between atoms: C_12  and  O_14
REMARK    8  A    between atoms: O_14  and  C_15
REMARK    9  A    between atoms: C_17  and  C_19
REMARK   10  A    between atoms: C_20  and  C_21
REMARK                            x       y       z     vdW  Elec       q    Type
REMARK                         _______ _______ _______ _____ _____    ______ ____
ROOT
ATOM      1  C   UNL     1      -2.996  -0.800   1.124  0.00  0.00    +0.096 C 
ATOM      2  C   UNL     1      -3.847  -2.064   0.873  0.00  0.00    +0.035 C 
ATOM      3  C   UNL     1      -3.142  -3.053  -0.014  0.00  0.00    +0.138 C 
ATOM      4  O   UNL     1      -3.746  -4.033  -0.421  0.00  0.00    -0.297 OA
ATOM      5  C   UNL     1      -1.687  -2.880  -0.345  0.00  0.00    +0.027 C 
ATOM      6  C   UNL     1      -1.318  -1.424  -0.735  0.00  0.00    +0.062 C 
ATOM      7  C   UNL     1      -2.327  -0.327  -0.202  0.00  0.00    +0.121 C 
ENDROOT
BRANCH   6   8
ATOM      8  N   UNL     1       0.059  -1.159  -0.289  0.00  0.00    -0.306 N 
ATOM      9  C   UNL     1       1.096  -0.687  -1.164  0.00  0.00    +0.237 C 
ATOM     10  O   UNL     1       0.866  -0.526  -2.394  0.00  0.00    -0.271 OA
ATOM     11  H   UNL     1       0.282  -1.313   0.657  0.00  0.00    +0.000 HD
BRANCH   9  12
ATOM     12  C   UNL     1       2.430  -0.385  -0.611  0.00  0.00    +0.001 C 
ATOM     13  C   UNL     1       3.442   0.046  -1.378  0.00  0.00    -0.050 C 
BRANCH  13  14
ATOM     14  C   UNL     1       4.798   0.352  -0.858  0.00  0.00    -0.025 A 
ATOM     15  C   UNL     1       5.877   0.366  -1.760  0.00  0.00    -0.055 A 
ATOM     16  C   UNL     1       7.170   0.660  -1.316  0.00  0.00    -0.061 A 
ATOM     17  C   UNL     1       7.399   0.952   0.030  0.00  0.00    -0.062 A 
ATOM     18  C   UNL     1       6.335   0.958   0.934  0.00  0.00    -0.061 A 
ATOM     19  C   UNL     1       5.039   0.665   0.496  0.00  0.00    -0.055 A 
ENDBRANCH  13  14
ENDBRANCH   9  12
ENDBRANCH   6   8
BRANCH   1  21
ATOM     20  C   UNL     1      -2.398  -0.644   3.373  0.00  0.00    +0.037 C 
ATOM     21  O   UNL     1      -1.995  -1.079   2.093  0.00  0.00    -0.376 OA
ENDBRANCH   1  21
BRANCH   7  22
ATOM     22  O   UNL     1      -3.353  -0.159  -1.158  0.00  0.00    -0.384 OA
ATOM     23  H   UNL     1      -2.968   0.137  -1.998  0.00  0.00    +0.000 HD
ENDBRANCH   7  22
BRANCH   7  24
ATOM     24  C   UNL     1      -1.617   1.048   0.017  0.00  0.00    +0.078 C 
BRANCH  24  25
ATOM     25  C   UNL     1      -2.578   2.166   0.303  0.00  0.00    +0.310 C 
ATOM     26  O   UNL     1      -2.756   2.552   1.490  0.00  0.00    -0.251 OA
BRANCH  25  27
ATOM     27  O   UNL     1      -3.281   2.756  -0.751  0.00  0.00    -0.468 OA
ATOM     28  C   UNL     1      -4.227   3.799  -0.551  0.00  0.00    +0.082 C 
ENDBRANCH  25  27
ENDBRANCH  24  25
ENDBRANCH   7  24
TORSDOF 8
