REMARK  Name = 
REMARK  4 active torsions:
REMARK  status: ('A' for Active; 'I' for Inactive)
REMARK    1  A    between atoms: C_2  and  C_15
REMARK    2  A    between atoms: N_3  and  C_4
REMARK    3  A    between atoms: C_7  and  O_9
REMARK    4  A    between atoms: C_16  and  C_17
REMARK                            x       y       z     vdW  Elec       q    Type
REMARK                         _______ _______ _______ _____ _____    ______ ____
ROOT
ATOM      1  O   UNL     1       0.567  -1.035  -1.887  0.00  0.00    -0.271 OA
ATOM      2  C   UNL     1       0.738  -0.155  -0.999  0.00  0.00    +0.239 C 
ATOM      3  N   UNL     1      -0.368   0.646  -0.560  0.00  0.00    -0.286 N 
ATOM      4  H   UNL     1      -0.215   1.331   0.130  0.00  0.00    +0.000 HD
ENDROOT
BRANCH   3   5
ATOM      5  C   UNL     1      -1.717   0.479  -1.104  0.00  0.00    +0.128 C 
ATOM      6  O   UNL     1      -2.551   1.548  -0.670  0.00  0.00    -0.352 OA
ATOM      7  C   UNL     1      -3.408   0.968   0.275  0.00  0.00    +0.100 C 
ATOM      8  C   UNL     1      -3.717  -0.433  -0.223  0.00  0.00    +0.115 C 
ATOM      9  C   UNL     1      -2.337  -0.864  -0.649  0.00  0.00    +0.025 C 
ATOM     10  C   UNL     1      -4.371  -1.196   0.897  0.00  0.00    -0.047 C 
ATOM     11  C   UNL     1      -5.310  -0.577   1.635  0.00  0.00    -0.020 C 
ATOM     12  C   UNL     1      -5.580   0.880   1.459  0.00  0.00    +0.158 C 
ATOM     13  O   UNL     1      -6.543   1.411   2.072  0.00  0.00    -0.293 OA
ATOM     14  C   UNL     1      -4.711   1.729   0.546  0.00  0.00    +0.039 C 
BRANCH   8  15
ATOM     15  O   UNL     1      -4.601  -0.432  -1.327  0.00  0.00    -0.382 OA
ATOM     16  H   UNL     1      -4.198   0.056  -2.063  0.00  0.00    +0.000 HD
ENDBRANCH   8  15
ENDBRANCH   3   5
BRANCH   2  17
ATOM     17  C   UNL     1       2.073   0.057  -0.405  0.00  0.00    +0.001 C 
ATOM     18  C   UNL     1       3.147  -0.645  -0.791  0.00  0.00    -0.050 C 
BRANCH  18  19
ATOM     19  C   UNL     1       4.505  -0.453  -0.224  0.00  0.00    -0.025 A 
ATOM     20  C   UNL     1       4.724   0.125   1.044  0.00  0.00    -0.055 A 
ATOM     21  C   UNL     1       6.024   0.273   1.538  0.00  0.00    -0.061 A 
ATOM     22  C   UNL     1       7.116  -0.159   0.783  0.00  0.00    -0.062 A 
ATOM     23  C   UNL     1       6.910  -0.746  -0.467  0.00  0.00    -0.061 A 
ATOM     24  C   UNL     1       5.613  -0.898  -0.966  0.00  0.00    -0.055 A 
ENDBRANCH  18  19
ENDBRANCH   2  17
TORSDOF 4
