REMARK  Name = 
REMARK  4 active torsions:
REMARK  status: ('A' for Active; 'I' for Inactive)
REMARK    1  A    between atoms: O_1  and  C_2
REMARK    2  A    between atoms: C_5  and  O_22
REMARK    3  A    between atoms: C_9  and  C_11
REMARK    4  A    between atoms: C_12  and  C_13
REMARK                            x       y       z     vdW  Elec       q    Type
REMARK                         _______ _______ _______ _____ _____    ______ ____
ROOT
ATOM      1  C   UNL     1      -4.109   1.411   0.655  0.00  0.00    +0.075 C 
ATOM      2  C   UNL     1      -4.844   0.299  -0.112  0.00  0.00    -0.057 C 
ATOM      3  C   UNL     1      -4.207  -0.735  -0.702  0.00  0.00    -0.052 C 
ATOM      4  C   UNL     1      -2.704  -0.727  -0.754  0.00  0.00    +0.111 C 
ATOM      5  C   UNL     1      -2.199  -0.241   0.609  0.00  0.00    +0.069 C 
ATOM      6  C   UNL     1      -2.559   1.235   0.789  0.00  0.00    -0.001 C 
ATOM      7  N   UNL     1      -0.786  -0.585   0.611  0.00  0.00    -0.232 N 
ATOM      8  C   UNL     1       0.127  -0.271   1.675  0.00  0.00    +0.246 C 
ATOM      9  O   UNL     1      -0.315  -0.094   2.841  0.00  0.00    -0.270 OA
ATOM     10  C   UNL     1      -0.702  -1.765  -0.192  0.00  0.00    +0.225 C 
ATOM     11  O   UNL     1       0.311  -2.513  -0.220  0.00  0.00    -0.275 OA
ATOM     12  C   UNL     1      -1.972  -2.066  -0.920  0.00  0.00    +0.059 C 
ENDROOT
BRANCH   1  13
ATOM     13  O   UNL     1      -4.413   2.663   0.100  0.00  0.00    -0.388 OA
ATOM     14  H   UNL     1      -5.376   2.757   0.023  0.00  0.00    +0.000 HD
ENDBRANCH   1  13
BRANCH   8  15
ATOM     15  C   UNL     1       1.577  -0.143   1.439  0.00  0.00    +0.001 C 
ATOM     16  C   UNL     1       2.093   0.025   0.212  0.00  0.00    -0.050 C 
BRANCH  16  17
ATOM     17  C   UNL     1       3.545   0.157  -0.064  0.00  0.00    -0.025 A 
ATOM     18  C   UNL     1       4.006  -0.099  -1.367  0.00  0.00    -0.055 A 
ATOM     19  C   UNL     1       5.364   0.019  -1.677  0.00  0.00    -0.061 A 
ATOM     20  C   UNL     1       6.276   0.404  -0.693  0.00  0.00    -0.062 A 
ATOM     21  C   UNL     1       5.831   0.677   0.602  0.00  0.00    -0.061 A 
ATOM     22  C   UNL     1       4.473   0.560   0.919  0.00  0.00    -0.055 A 
ENDBRANCH  16  17
ENDBRANCH   8  15
BRANCH   4  23
ATOM     23  O   UNL     1      -2.279   0.155  -1.771  0.00  0.00    -0.382 OA
ATOM     24  H   UNL     1      -2.736   1.005  -1.674  0.00  0.00    +0.000 HD
ENDBRANCH   4  23
TORSDOF 4
