REMARK  Name = 
REMARK  12 active torsions:
REMARK  status: ('A' for Active; 'I' for Inactive)
REMARK    1  A    between atoms: C_1  and  O_2
REMARK    2  A    between atoms: O_2  and  C_3
REMARK    3  A    between atoms: C_7  and  C_8
REMARK    4  A    between atoms: C_10  and  C_31
REMARK    5  A    between atoms: C_12  and  O_29
REMARK    6  A    between atoms: C_13  and  C_14
REMARK    7  A    between atoms: C_15  and  C_16
REMARK    8  A    between atoms: C_18  and  O_27
REMARK    9  A    between atoms: C_24  and  O_25
REMARK   10  A    between atoms: O_25  and  C_26
REMARK   11  A    between atoms: O_27  and  C_28
REMARK   12  A    between atoms: O_29  and  C_30
REMARK                            x       y       z     vdW  Elec       q    Type
REMARK                         _______ _______ _______ _____ _____    ______ ____
ROOT
ATOM      1  C   UNL     1      -0.840  -0.399   1.640  0.00  0.00    +0.132 A 
ATOM      2  C   UNL     1      -2.219  -0.513   1.866  0.00  0.00    -0.016 A 
ATOM      3  C   UNL     1      -3.143  -0.054   0.922  0.00  0.00    -0.034 A 
ATOM      4  C   UNL     1      -4.607  -0.086   1.275  0.00  0.00    -0.012 C 
ATOM      5  C   UNL     1      -5.507   0.081   0.044  0.00  0.00    +0.009 C 
ATOM      6  C   UNL     1      -6.957   0.320   0.480  0.00  0.00    -0.049 C 
ATOM      7  N   UNL     1      -5.030   1.214  -0.764  0.00  0.00    -0.307 N 
ATOM      8  C   UNL     1      -3.690   0.975  -1.336  0.00  0.00    +0.034 C 
ATOM      9  C   UNL     1      -2.689   0.536  -0.276  0.00  0.00    +0.015 A 
ATOM     10  C   UNL     1      -1.303   0.642  -0.529  0.00  0.00    +0.136 A 
ATOM     11  C   UNL     1      -0.377   0.184   0.446  0.00  0.00    +0.067 A 
ATOM     12  C   UNL     1      -3.732  -0.035  -2.500  0.00  0.00    -0.045 C 
ATOM     13  H   UNL     1      -4.991   2.044  -0.172  0.00  0.00    +0.000 HD
ATOM     14  H   UNL     1      -5.681   1.338  -1.539  0.00  0.00    +0.000 HD
ENDROOT
BRANCH  11  15
ATOM     15  C   UNL     1       1.088   0.382   0.294  0.00  0.00    +0.000 A 
ATOM     16  C   UNL     1       1.646   1.646   0.581  0.00  0.00    -0.038 A 
ATOM     17  C   UNL     1       0.780   2.805   1.007  0.00  0.00    -0.039 C 
ATOM     18  C   UNL     1       3.023   1.842   0.443  0.00  0.00    -0.016 A 
ATOM     19  C   UNL     1       3.878   0.799   0.052  0.00  0.00    +0.132 A 
ATOM     20  C   UNL     1       3.340  -0.486  -0.214  0.00  0.00    +0.066 A 
ATOM     21  C   UNL     1       1.934  -0.692  -0.090  0.00  0.00    -0.003 A 
ATOM     22  C   UNL     1       1.397  -1.966  -0.369  0.00  0.00    -0.053 A 
ATOM     23  C   UNL     1       2.220  -3.018  -0.751  0.00  0.00    -0.058 A 
ATOM     24  C   UNL     1       3.591  -2.830  -0.867  0.00  0.00    -0.019 A 
ATOM     25  C   UNL     1       4.171  -1.575  -0.605  0.00  0.00    +0.131 A 
BRANCH  25  26
ATOM     26  O   UNL     1       5.560  -1.392  -0.726  0.00  0.00    -0.494 OA
ATOM     27  C   UNL     1       6.489  -2.402  -1.108  0.00  0.00    +0.079 C 
ENDBRANCH  25  26
BRANCH  19  28
ATOM     28  O   UNL     1       5.261   1.021  -0.078  0.00  0.00    -0.494 OA
ATOM     29  C   UNL     1       5.921   2.261   0.157  0.00  0.00    +0.079 C 
ENDBRANCH  19  28
ENDBRANCH  11  15
BRANCH   1  31
ATOM     30  C   UNL     1      -0.223  -1.451   3.831  0.00  0.00    +0.079 C 
ATOM     31  O   UNL     1       0.101  -0.839   2.587  0.00  0.00    -0.494 OA
ENDBRANCH   1  31
BRANCH  10  32
ATOM     32  O   UNL     1      -0.906   1.229  -1.746  0.00  0.00    -0.494 OA
ATOM     33  C   UNL     1       0.213   0.835  -2.533  0.00  0.00    +0.079 C 
ENDBRANCH  10  32
TORSDOF 5
