REMARK  Name = 
REMARK  17 active torsions:
REMARK  status: ('A' for Active; 'I' for Inactive)
REMARK    1  A    between atoms: C_1  and  O_2
REMARK    2  A    between atoms: O_2  and  C_3
REMARK    3  A    between atoms: C_4  and  C_5
REMARK    4  A    between atoms: C_5  and  C_6
REMARK    5  A    between atoms: C_8  and  C_13
REMARK    6  A    between atoms: C_11  and  O_12
REMARK    7  A    between atoms: C_13  and  C_14
REMARK    8  A    between atoms: C_19  and  O_20
REMARK    9  A    between atoms: C_21  and  O_22
REMARK   10  A    between atoms: C_23  and  C_37
REMARK   11  A    between atoms: C_24  and  O_36
REMARK   12  A    between atoms: C_25  and  C_26
REMARK   13  A    between atoms: C_26  and  C_28
REMARK   14  A    between atoms: C_28  and  C_29
REMARK   15  A    between atoms: C_29  and  C_30
REMARK   16  A    between atoms: C_37  and  C_38
REMARK   17  A    between atoms: C_43  and  O_44
REMARK                            x       y       z     vdW  Elec       q    Type
REMARK                         _______ _______ _______ _____ _____    ______ ____
ROOT
ATOM      1  C   UNL     1      -1.386  -0.523   0.139  0.00  0.00    +0.141 A 
ATOM      2  C   UNL     1      -0.278   0.128   0.724  0.00  0.00    +0.041 A 
ATOM      3  C   UNL     1      -0.426   1.452   1.203  0.00  0.00    +0.131 A 
ATOM      4  C   UNL     1      -1.638   2.143   1.009  0.00  0.00    +0.041 A 
ATOM      5  C   UNL     1      -2.730   1.495   0.405  0.00  0.00    +0.138 A 
ATOM      6  C   UNL     1      -2.614   0.152  -0.009  0.00  0.00    +0.101 A 
ENDROOT
BRANCH   1   8
ATOM      7  C   UNL     1      -1.107  -2.209  -1.646  0.00  0.00    +0.079 C 
ATOM      8  O   UNL     1      -1.270  -1.855  -0.278  0.00  0.00    -0.494 OA
ENDBRANCH   1   8
BRANCH   5   9
ATOM      9  O   UNL     1      -3.929   2.202   0.251  0.00  0.00    -0.506 OA
ATOM     10  H   UNL     1      -3.986   3.094   0.532  0.00  0.00    +0.000 HD
ENDBRANCH   5   9
BRANCH   6  11
ATOM     11  C   UNL     1      -3.777  -0.560  -0.578  0.00  0.00    +0.171 C 
ATOM     12  O   UNL     1      -4.303  -0.135  -1.642  0.00  0.00    -0.292 OA
BRANCH  11  13
ATOM     13  C   UNL     1      -4.380  -1.734   0.144  0.00  0.00    +0.015 C 
BRANCH  13  14
ATOM     14  C   UNL     1      -4.754  -2.866  -0.822  0.00  0.00    -0.021 C 
BRANCH  14  15
ATOM     15  C   UNL     1      -5.212  -4.080  -0.060  0.00  0.00    -0.047 A 
ATOM     16  C   UNL     1      -4.319  -5.136   0.197  0.00  0.00    -0.059 A 
ATOM     17  C   UNL     1      -4.739  -6.249   0.931  0.00  0.00    -0.062 A 
ATOM     18  C   UNL     1      -6.046  -6.311   1.424  0.00  0.00    -0.062 A 
ATOM     19  C   UNL     1      -6.935  -5.258   1.187  0.00  0.00    -0.062 A 
ATOM     20  C   UNL     1      -6.521  -4.145   0.448  0.00  0.00    -0.059 A 
ENDBRANCH  14  15
ENDBRANCH  13  14
ENDBRANCH  11  13
ENDBRANCH   6  11
BRANCH   3  21
ATOM     21  O   UNL     1       0.613   2.102   1.876  0.00  0.00    -0.506 OA
ATOM     22  H   UNL     1       1.428   1.661   2.016  0.00  0.00    +0.000 HD
ENDBRANCH   3  21
BRANCH   4  23
ATOM     23  C   UNL     1      -1.758   3.606   1.403  0.00  0.00    +0.008 C 
BRANCH  23  24
ATOM     24  C   UNL     1      -1.601   4.572   0.238  0.00  0.00    -0.001 A 
ATOM     25  C   UNL     1      -0.990   4.171  -0.972  0.00  0.00    -0.055 A 
ATOM     26  C   UNL     1      -0.866   5.062  -2.040  0.00  0.00    -0.061 A 
ATOM     27  C   UNL     1      -1.324   6.371  -1.916  0.00  0.00    -0.058 A 
ATOM     28  C   UNL     1      -1.894   6.799  -0.718  0.00  0.00    -0.020 A 
ATOM     29  C   UNL     1      -2.020   5.922   0.367  0.00  0.00    +0.120 A 
BRANCH  29  30
ATOM     30  O   UNL     1      -2.550   6.429   1.556  0.00  0.00    -0.506 OA
ATOM     31  H   UNL     1      -2.817   7.326   1.605  0.00  0.00    +0.000 HD
ENDBRANCH  29  30
ENDBRANCH  23  24
ENDBRANCH   4  23
BRANCH   2  32
ATOM     32  C   UNL     1       1.061  -0.587   0.803  0.00  0.00    +0.008 C 
BRANCH  32  33
ATOM     33  C   UNL     1       2.183   0.158   0.104  0.00  0.00    -0.001 A 
ATOM     34  C   UNL     1       3.426   0.276   0.750  0.00  0.00    -0.051 A 
ATOM     35  C   UNL     1       4.501   0.933   0.133  0.00  0.00    -0.042 A 
ATOM     36  C   UNL     1       4.339   1.453  -1.158  0.00  0.00    -0.055 A 
ATOM     37  C   UNL     1       3.116   1.329  -1.817  0.00  0.00    -0.020 A 
ATOM     38  C   UNL     1       2.038   0.678  -1.201  0.00  0.00    +0.120 A 
BRANCH  38  39
ATOM     39  O   UNL     1       0.830   0.551  -1.887  0.00  0.00    -0.506 OA
ATOM     40  H   UNL     1       0.744   0.899  -2.752  0.00  0.00    +0.000 HD
ENDBRANCH  38  39
BRANCH  35  41
ATOM     41  C   UNL     1       5.836   1.024   0.824  0.00  0.00    +0.001 C 
BRANCH  41  42
ATOM     42  C   UNL     1       6.700  -0.154   0.448  0.00  0.00    -0.002 A 
ATOM     43  C   UNL     1       7.520  -0.078  -0.692  0.00  0.00    -0.055 A 
ATOM     44  C   UNL     1       8.300  -1.171  -1.077  0.00  0.00    -0.061 A 
ATOM     45  C   UNL     1       8.263  -2.353  -0.337  0.00  0.00    -0.058 A 
ATOM     46  C   UNL     1       7.445  -2.447   0.791  0.00  0.00    -0.020 A 
ATOM     47  C   UNL     1       6.659  -1.355   1.187  0.00  0.00    +0.120 A 
BRANCH  47  48
ATOM     48  O   UNL     1       5.840  -1.462   2.311  0.00  0.00    -0.506 OA
ATOM     49  H   UNL     1       5.815  -2.261   2.798  0.00  0.00    +0.000 HD
ENDBRANCH  47  48
ENDBRANCH  41  42
ENDBRANCH  35  41
ENDBRANCH  32  33
ENDBRANCH   2  32
TORSDOF 16
