REMARK  Name = 
REMARK  11 active torsions:
REMARK  status: ('A' for Active; 'I' for Inactive)
REMARK    1  A    between atoms: C_1  and  O_2
REMARK    2  A    between atoms: O_2  and  C_3
REMARK    3  A    between atoms: C_5  and  O_6
REMARK    4  A    between atoms: C_7  and  C_21
REMARK    5  A    between atoms: C_8  and  O_20
REMARK    6  A    between atoms: C_9  and  C_10
REMARK    7  A    between atoms: C_10  and  C_12
REMARK    8  A    between atoms: C_12  and  C_13
REMARK    9  A    between atoms: C_13  and  C_14
REMARK   10  A    between atoms: C_21  and  C_22
REMARK   11  A    between atoms: C_27  and  O_28
REMARK                            x       y       z     vdW  Elec       q    Type
REMARK                         _______ _______ _______ _____ _____    ______ ____
ROOT
ATOM      1  C   UNL     1       0.218  -1.665  -0.275  0.00  0.00    +0.138 A 
ATOM      2  C   UNL     1       1.300  -1.819  -1.157  0.00  0.00    +0.023 A 
ATOM      3  C   UNL     1       2.219  -0.785  -1.352  0.00  0.00    +0.127 A 
ATOM      4  C   UNL     1       2.064   0.439  -0.674  0.00  0.00    +0.041 A 
ATOM      5  C   UNL     1       0.957   0.621   0.185  0.00  0.00    +0.138 A 
ATOM      6  C   UNL     1       0.046  -0.441   0.400  0.00  0.00    +0.101 A 
ENDROOT
BRANCH   1   8
ATOM      7  C   UNL     1      -0.640  -3.991  -0.655  0.00  0.00    +0.079 C 
ATOM      8  O   UNL     1      -0.691  -2.711  -0.034  0.00  0.00    -0.494 OA
ENDBRANCH   1   8
BRANCH   3   9
ATOM      9  O   UNL     1       3.289  -0.972  -2.228  0.00  0.00    -0.506 OA
ATOM     10  H   UNL     1       3.390  -1.788  -2.678  0.00  0.00    +0.000 HD
ENDBRANCH   3   9
BRANCH   6  11
ATOM     11  C   UNL     1      -1.068  -0.293   1.358  0.00  0.00    +0.171 C 
ATOM     12  O   UNL     1      -0.816  -0.039   2.567  0.00  0.00    -0.292 OA
BRANCH  11  13
ATOM     13  C   UNL     1      -2.497  -0.442   0.915  0.00  0.00    +0.015 C 
BRANCH  13  14
ATOM     14  C   UNL     1      -3.268   0.865   1.127  0.00  0.00    -0.021 C 
BRANCH  14  15
ATOM     15  C   UNL     1      -4.677   0.739   0.611  0.00  0.00    -0.047 A 
ATOM     16  C   UNL     1      -5.005   1.192  -0.677  0.00  0.00    -0.059 A 
ATOM     17  C   UNL     1      -6.307   1.042  -1.166  0.00  0.00    -0.062 A 
ATOM     18  C   UNL     1      -7.285   0.429  -0.377  0.00  0.00    -0.062 A 
ATOM     19  C   UNL     1      -6.964  -0.035   0.901  0.00  0.00    -0.062 A 
ATOM     20  C   UNL     1      -5.663   0.116   1.394  0.00  0.00    -0.059 A 
ENDBRANCH  14  15
ENDBRANCH  13  14
ENDBRANCH  11  13
ENDBRANCH   6  11
BRANCH   5  21
ATOM     21  O   UNL     1       0.764   1.867   0.791  0.00  0.00    -0.506 OA
ATOM     22  H   UNL     1       1.375   2.561   0.641  0.00  0.00    +0.000 HD
ENDBRANCH   5  21
BRANCH   4  23
ATOM     23  C   UNL     1       3.089   1.540  -0.862  0.00  0.00    +0.008 C 
BRANCH  23  24
ATOM     24  C   UNL     1       4.343   1.253  -0.068  0.00  0.00    -0.001 A 
ATOM     25  C   UNL     1       5.468   0.704  -0.711  0.00  0.00    -0.055 A 
ATOM     26  C   UNL     1       6.622   0.399   0.015  0.00  0.00    -0.061 A 
ATOM     27  C   UNL     1       6.668   0.640   1.388  0.00  0.00    -0.058 A 
ATOM     28  C   UNL     1       5.563   1.191   2.039  0.00  0.00    -0.020 A 
ATOM     29  C   UNL     1       4.399   1.501   1.320  0.00  0.00    +0.120 A 
BRANCH  29  30
ATOM     30  O   UNL     1       3.304   2.055   1.983  0.00  0.00    -0.506 OA
ATOM     31  H   UNL     1       3.348   2.217   2.905  0.00  0.00    +0.000 HD
ENDBRANCH  29  30
ENDBRANCH  23  24
ENDBRANCH   4  23
TORSDOF 10
