REMARK  Name = 
REMARK  16 active torsions:
REMARK  status: ('A' for Active; 'I' for Inactive)
REMARK    1  A    between atoms: C_1  and  O_2
REMARK    2  A    between atoms: O_2  and  C_3
REMARK    3  A    between atoms: C_4  and  C_5
REMARK    4  A    between atoms: C_5  and  C_6
REMARK    5  A    between atoms: C_8  and  C_13
REMARK    6  A    between atoms: C_11  and  O_12
REMARK    7  A    between atoms: C_13  and  C_14
REMARK    8  A    between atoms: C_19  and  O_20
REMARK    9  A    between atoms: C_21  and  O_22
REMARK   10  A    between atoms: C_25  and  C_26
REMARK   11  A    between atoms: C_26  and  C_27
REMARK   12  A    between atoms: C_29  and  C_34
REMARK   13  A    between atoms: C_32  and  O_33
REMARK   14  A    between atoms: C_34  and  C_35
REMARK   15  A    between atoms: C_40  and  O_41
REMARK   16  A    between atoms: C_43  and  C_47
REMARK                            x       y       z     vdW  Elec       q    Type
REMARK                         _______ _______ _______ _____ _____    ______ ____
ROOT
ATOM      1  C   UNL     1       0.086  -0.930   0.235  0.00  0.00    +0.134 A 
ATOM      2  C   UNL     1      -1.054  -1.073   1.058  0.00  0.00    +0.041 A 
ATOM      3  C   UNL     1      -1.708   0.077   1.552  0.00  0.00    +0.138 A 
ATOM      4  C   UNL     1      -1.238   1.367   1.198  0.00  0.00    +0.101 A 
ATOM      5  C   UNL     1      -0.217   1.482   0.233  0.00  0.00    +0.142 A 
ATOM      6  C   UNL     1       0.467   0.343  -0.231  0.00  0.00    +0.041 A 
ATOM      7  O   UNL     1       0.133   2.750  -0.255  0.00  0.00    -0.483 OA
ATOM      8  C   UNL     1      -0.697   3.893  -0.059  0.00  0.00    +0.132 C 
ATOM      9  C   UNL     1      -1.160   3.958   1.400  0.00  0.00    +0.052 C 
ATOM     10  C   UNL     1      -1.713   2.630   1.838  0.00  0.00    +0.174 C 
ATOM     11  O   UNL     1      -2.472   2.612   2.842  0.00  0.00    -0.292 OA
ENDROOT
BRANCH   8  12
ATOM     12  C   UNL     1       0.044   5.153  -0.443  0.00  0.00    -0.007 A 
ATOM     13  C   UNL     1      -0.631   6.197  -1.097  0.00  0.00    -0.055 A 
ATOM     14  C   UNL     1       0.038   7.385  -1.412  0.00  0.00    -0.061 A 
ATOM     15  C   UNL     1       1.383   7.542  -1.068  0.00  0.00    -0.062 A 
ATOM     16  C   UNL     1       2.061   6.515  -0.407  0.00  0.00    -0.061 A 
ATOM     17  C   UNL     1       1.395   5.327  -0.088  0.00  0.00    -0.055 A 
ENDBRANCH   8  12
BRANCH   1  19
ATOM     18  C   UNL     1       1.750  -2.675   0.741  0.00  0.00    +0.079 C 
ATOM     19  O   UNL     1       0.831  -2.050  -0.149  0.00  0.00    -0.494 OA
ENDBRANCH   1  19
BRANCH   3  20
ATOM     20  O   UNL     1      -2.831  -0.103   2.365  0.00  0.00    -0.506 OA
ATOM     21  H   UNL     1      -3.118  -0.968   2.582  0.00  0.00    +0.000 HD
ENDBRANCH   3  20
BRANCH   2  22
ATOM     22  C   UNL     1      -1.658  -2.443   1.315  0.00  0.00    +0.008 C 
BRANCH  22  23
ATOM     23  C   UNL     1      -2.862  -2.671   0.428  0.00  0.00    -0.001 A 
ATOM     24  C   UNL     1      -4.152  -2.449   0.936  0.00  0.00    -0.051 A 
ATOM     25  C   UNL     1      -5.280  -2.574   0.113  0.00  0.00    -0.042 A 
ATOM     26  C   UNL     1      -5.115  -2.967  -1.224  0.00  0.00    -0.055 A 
ATOM     27  C   UNL     1      -3.838  -3.213  -1.734  0.00  0.00    -0.020 A 
ATOM     28  C   UNL     1      -2.709  -3.056  -0.919  0.00  0.00    +0.120 A 
BRANCH  28  29
ATOM     29  O   UNL     1      -1.437  -3.284  -1.445  0.00  0.00    -0.506 OA
ATOM     30  H   UNL     1      -1.340  -3.540  -2.341  0.00  0.00    +0.000 HD
ENDBRANCH  28  29
BRANCH  25  31
ATOM     31  C   UNL     1      -6.642  -2.223   0.653  0.00  0.00    +0.001 C 
BRANCH  31  32
ATOM     32  C   UNL     1      -6.804  -0.719   0.729  0.00  0.00    -0.002 A 
ATOM     33  C   UNL     1      -6.442  -0.062   1.922  0.00  0.00    -0.055 A 
ATOM     34  C   UNL     1      -6.503   1.330   2.018  0.00  0.00    -0.061 A 
ATOM     35  C   UNL     1      -6.919   2.088   0.923  0.00  0.00    -0.058 A 
ATOM     36  C   UNL     1      -7.281   1.455  -0.267  0.00  0.00    -0.020 A 
ATOM     37  C   UNL     1      -7.231   0.059  -0.379  0.00  0.00    +0.120 A 
BRANCH  37  38
ATOM     38  O   UNL     1      -7.615  -0.506  -1.597  0.00  0.00    -0.506 OA
ATOM     39  H   UNL     1      -7.890   0.046  -2.303  0.00  0.00    +0.000 HD
ENDBRANCH  37  38
ENDBRANCH  31  32
ENDBRANCH  25  31
ENDBRANCH  22  23
ENDBRANCH   2  22
BRANCH   6  40
ATOM     40  C   UNL     1       1.583   0.483  -1.250  0.00  0.00    +0.008 C 
BRANCH  40  41
ATOM     41  C   UNL     1       2.957   0.227  -0.666  0.00  0.00    -0.001 A 
ATOM     42  C   UNL     1       3.815  -0.696  -1.297  0.00  0.00    -0.051 A 
ATOM     43  C   UNL     1       5.124  -0.901  -0.827  0.00  0.00    -0.042 A 
ATOM     44  C   UNL     1       5.576  -0.172   0.282  0.00  0.00    -0.055 A 
ATOM     45  C   UNL     1       4.734   0.739   0.918  0.00  0.00    -0.020 A 
ATOM     46  C   UNL     1       3.434   0.958   0.444  0.00  0.00    +0.120 A 
BRANCH  46  47
ATOM     47  O   UNL     1       2.628   1.908   1.068  0.00  0.00    -0.506 OA
ATOM     48  H   UNL     1       2.953   2.388   1.804  0.00  0.00    +0.000 HD
ENDBRANCH  46  47
BRANCH  43  49
ATOM     49  C   UNL     1       6.064  -1.832  -1.554  0.00  0.00    +0.001 C 
BRANCH  49  50
ATOM     50  C   UNL     1       6.571  -2.926  -0.646  0.00  0.00    -0.002 A 
ATOM     51  C   UNL     1       7.827  -2.792  -0.024  0.00  0.00    -0.055 A 
ATOM     52  C   UNL     1       8.299  -3.781   0.844  0.00  0.00    -0.061 A 
ATOM     53  C   UNL     1       7.526  -4.916   1.097  0.00  0.00    -0.058 A 
ATOM     54  C   UNL     1       6.276  -5.062   0.485  0.00  0.00    -0.020 A 
ATOM     55  C   UNL     1       5.790  -4.070  -0.383  0.00  0.00    +0.120 A 
BRANCH  55  56
ATOM     56  O   UNL     1       4.541  -4.218  -0.984  0.00  0.00    -0.506 OA
ATOM     57  H   UNL     1       4.024  -4.979  -0.808  0.00  0.00    +0.000 HD
ENDBRANCH  55  56
ENDBRANCH  49  50
ENDBRANCH  43  49
ENDBRANCH  40  41
ENDBRANCH   6  40
TORSDOF 15
