REMARK  Name = 
REMARK  8 active torsions:
REMARK  status: ('A' for Active; 'I' for Inactive)
REMARK    1  A    between atoms: C_2  and  C_3
REMARK    2  A    between atoms: C_2  and  O_9
REMARK    3  A    between atoms: O_9  and  C_10
REMARK    4  A    between atoms: C_10  and  C_11
REMARK    5  A    between atoms: C_11  and  C_12
REMARK    6  A    between atoms: C_11  and  O_19
REMARK    7  A    between atoms: O_19  and  C_20
REMARK    8  A    between atoms: C_20  and  C_22
REMARK                            x       y       z     vdW  Elec       q    Type
REMARK                         _______ _______ _______ _____ _____    ______ ____
ROOT
ATOM      1  C   UNL     1      -1.168   0.948   0.525  0.00  0.00    +0.159 C 
ENDROOT
BRANCH   1   2
ATOM      2  C   UNL     1      -1.368  -0.511   0.845  0.00  0.00    +0.002 C 
ATOM      3  C   UNL     1      -2.196  -1.298   0.153  0.00  0.00    +0.132 C 
ATOM      4  C   UNL     1      -2.428  -2.722   0.408  0.00  0.00    -0.013 C 
ATOM      5  C   UNL     1      -3.314  -3.153  -0.481  0.00  0.00    +0.026 C 
ATOM      6  C   UNL     1      -3.666  -2.015  -1.320  0.00  0.00    +0.337 C 
ATOM      7  O   UNL     1      -4.482  -2.040  -2.277  0.00  0.00    -0.245 OA
ATOM      8  O   UNL     1      -2.975  -0.885  -0.920  0.00  0.00    -0.423 OA
ENDBRANCH   1   2
BRANCH   1   9
ATOM      9  C   UNL     1      -0.412   1.126  -0.804  0.00  0.00    +0.133 C 
BRANCH   9  10
ATOM     10  O   UNL     1       0.815   0.397  -0.798  0.00  0.00    -0.457 OA
BRANCH  10  12
ATOM     11  O   UNL     1       1.951   1.896   0.540  0.00  0.00    -0.245 OA
ATOM     12  C   UNL     1       1.948   0.796  -0.077  0.00  0.00    +0.339 C 
BRANCH  12  13
ATOM     13  C   UNL     1       3.143  -0.076  -0.047  0.00  0.00    +0.059 A 
ATOM     14  C   UNL     1       3.134  -1.316  -0.713  0.00  0.00    -0.048 A 
ATOM     15  C   UNL     1       4.261  -2.143  -0.683  0.00  0.00    -0.061 A 
ATOM     16  C   UNL     1       5.406  -1.743   0.010  0.00  0.00    -0.062 A 
ATOM     17  C   UNL     1       5.426  -0.515   0.675  0.00  0.00    -0.061 A 
ATOM     18  C   UNL     1       4.302   0.316   0.649  0.00  0.00    -0.048 A 
ENDBRANCH  12  13
ENDBRANCH  10  12
ENDBRANCH   9  10
ENDBRANCH   1   9
BRANCH   1  19
ATOM     19  O   UNL     1      -2.437   1.601   0.471  0.00  0.00    -0.454 OA
BRANCH  19  20
ATOM     20  C   UNL     1      -2.596   2.990   0.528  0.00  0.00    +0.305 C 
ATOM     21  O   UNL     1      -1.605   3.747   0.715  0.00  0.00    -0.251 OA
ATOM     22  C   UNL     1      -3.962   3.576   0.426  0.00  0.00    +0.033 C 
ENDBRANCH  19  20
ENDBRANCH   1  19
TORSDOF 7
