REMARK  Name = 
REMARK  6 active torsions:
REMARK  status: ('A' for Active; 'I' for Inactive)
REMARK    1  A    between atoms: O_1  and  C_2
REMARK    2  A    between atoms: C_2  and  C_3
REMARK    3  A    between atoms: C_2  and  C_10
REMARK    4  A    between atoms: C_10  and  O_11
REMARK    5  A    between atoms: O_11  and  C_12
REMARK    6  A    between atoms: C_12  and  C_14
REMARK                            x       y       z     vdW  Elec       q    Type
REMARK                         _______ _______ _______ _____ _____    ______ ____
ROOT
ATOM      1  C   UNL     1      -1.398  -0.255  -0.319  0.00  0.00    +0.111 C 
ENDROOT
BRANCH   1   2
ATOM      2  C   UNL     1      -2.814  -0.771  -0.379  0.00  0.00    -0.010 C 
ATOM      3  C   UNL     1      -3.793  -0.201   0.324  0.00  0.00    +0.131 C 
ATOM      4  C   UNL     1      -5.195  -0.628   0.338  0.00  0.00    -0.013 C 
ATOM      5  C   UNL     1      -5.857   0.183   1.155  0.00  0.00    +0.026 C 
ATOM      6  C   UNL     1      -4.892   1.143   1.677  0.00  0.00    +0.337 C 
ATOM      7  O   UNL     1      -5.153   2.072   2.485  0.00  0.00    -0.245 OA
ATOM      8  O   UNL     1      -3.632   0.896   1.160  0.00  0.00    -0.423 OA
ENDBRANCH   1   2
BRANCH   1   9
ATOM      9  O   UNL     1      -1.331   1.061  -0.809  0.00  0.00    -0.384 OA
ATOM     10  H   UNL     1      -1.940   1.625  -0.307  0.00  0.00    +0.000 HD
ENDBRANCH   1   9
BRANCH   1  11
ATOM     11  C   UNL     1      -0.440  -1.170  -1.099  0.00  0.00    +0.122 C 
BRANCH  11  12
ATOM     12  O   UNL     1       0.893  -0.662  -1.054  0.00  0.00    -0.458 OA
BRANCH  12  13
ATOM     13  C   UNL     1       1.722  -0.761   0.071  0.00  0.00    +0.339 C 
ATOM     14  O   UNL     1       1.326  -1.382   1.096  0.00  0.00    -0.245 OA
BRANCH  13  15
ATOM     15  C   UNL     1       3.065  -0.141   0.051  0.00  0.00    +0.059 A 
ATOM     16  C   UNL     1       3.508   0.557  -1.087  0.00  0.00    -0.048 A 
ATOM     17  C   UNL     1       4.777   1.145  -1.107  0.00  0.00    -0.061 A 
ATOM     18  C   UNL     1       5.614   1.043   0.006  0.00  0.00    -0.062 A 
ATOM     19  C   UNL     1       5.185   0.352   1.141  0.00  0.00    -0.061 A 
ATOM     20  C   UNL     1       3.917  -0.237   1.167  0.00  0.00    -0.048 A 
ENDBRANCH  13  15
ENDBRANCH  12  13
ENDBRANCH  11  12
ENDBRANCH   1  11
TORSDOF 6
