REMARK  Name = 
REMARK  8 active torsions:
REMARK  status: ('A' for Active; 'I' for Inactive)
REMARK    1  A    between atoms: C_1  and  O_2
REMARK    2  A    between atoms: O_2  and  C_3
REMARK    3  A    between atoms: C_3  and  C_5
REMARK    4  A    between atoms: C_5  and  C_6
REMARK    5  A    between atoms: C_6  and  O_7
REMARK    6  A    between atoms: C_13  and  N_14
REMARK    7  A    between atoms: C_15  and  C_17
REMARK    8  A    between atoms: C_18  and  C_19
REMARK                            x       y       z     vdW  Elec       q    Type
REMARK                         _______ _______ _______ _____ _____    ______ ____
ROOT
ATOM      1  C   UNL     1      -2.862  -1.163  -0.792  0.00  0.00    +0.113 C 
ATOM      2  C   UNL     1      -3.116  -2.345   0.124  0.00  0.00    -0.047 C 
ATOM      3  C   UNL     1      -2.291  -3.399   0.155  0.00  0.00    -0.020 C 
ATOM      4  C   UNL     1      -1.035  -3.409  -0.618  0.00  0.00    +0.158 C 
ATOM      5  O   UNL     1      -0.294  -4.426  -0.587  0.00  0.00    -0.293 OA
ATOM      6  C   UNL     1      -0.651  -2.232  -1.474  0.00  0.00    +0.031 C 
ATOM      7  C   UNL     1      -1.321  -0.939  -0.969  0.00  0.00    +0.063 C 
ENDROOT
BRANCH   7   8
ATOM      8  N   UNL     1      -0.674  -0.525   0.284  0.00  0.00    -0.305 N 
ATOM      9  C   UNL     1       0.454   0.361   0.310  0.00  0.00    +0.237 C 
ATOM     10  O   UNL     1       0.793   0.983  -0.734  0.00  0.00    -0.271 OA
ATOM     11  H   UNL     1      -1.028  -0.868   1.136  0.00  0.00    +0.000 HD
BRANCH   9  12
ATOM     12  C   UNL     1       1.172   0.583   1.582  0.00  0.00    +0.001 C 
ATOM     13  C   UNL     1       2.417   1.071   1.699  0.00  0.00    -0.050 C 
BRANCH  13  14
ATOM     14  C   UNL     1       3.356   1.294   0.580  0.00  0.00    -0.025 A 
ATOM     15  C   UNL     1       3.591   0.298  -0.386  0.00  0.00    -0.055 A 
ATOM     16  C   UNL     1       4.519   0.514  -1.409  0.00  0.00    -0.061 A 
ATOM     17  C   UNL     1       5.234   1.713  -1.464  0.00  0.00    -0.062 A 
ATOM     18  C   UNL     1       5.028   2.695  -0.491  0.00  0.00    -0.061 A 
ATOM     19  C   UNL     1       4.101   2.482   0.534  0.00  0.00    -0.055 A 
ENDBRANCH  13  14
ENDBRANCH   9  12
ENDBRANCH   7   8
BRANCH   1  20
ATOM     20  O   UNL     1      -3.416  -1.508  -2.042  0.00  0.00    -0.382 OA
ATOM     21  H   UNL     1      -4.371  -1.649  -1.944  0.00  0.00    +0.000 HD
ENDBRANCH   1  20
BRANCH   1  22
ATOM     22  C   UNL     1      -3.599   0.111  -0.281  0.00  0.00    +0.079 C 
BRANCH  22  23
ATOM     23  C   UNL     1      -3.279   0.513   1.131  0.00  0.00    +0.310 C 
ATOM     24  O   UNL     1      -3.792  -0.116   2.097  0.00  0.00    -0.251 OA
BRANCH  23  26
ATOM     25  C   UNL     1      -2.091   2.042   2.669  0.00  0.00    +0.082 C 
ATOM     26  O   UNL     1      -2.422   1.593   1.361  0.00  0.00    -0.468 OA
ENDBRANCH  23  26
ENDBRANCH  22  23
ENDBRANCH   1  22
TORSDOF 7
