REMARK  Name = 
REMARK  15 active torsions:
REMARK  status: ('A' for Active; 'I' for Inactive)
REMARK    1  A    between atoms: C_1  and  C_2
REMARK    2  A    between atoms: C_2  and  C_3
REMARK    3  A    between atoms: C_3  and  C_4
REMARK    4  A    between atoms: C_4  and  C_5
REMARK    5  A    between atoms: C_5  and  C_6
REMARK    6  A    between atoms: C_6  and  C_7
REMARK    7  A    between atoms: C_7  and  C_8
REMARK    8  A    between atoms: C_8  and  C_9
REMARK    9  A    between atoms: C_10  and  C_11
REMARK   10  A    between atoms: C_12  and  C_13
REMARK   11  A    between atoms: C_13  and  C_14
REMARK   12  A    between atoms: C_14  and  C_15
REMARK   13  A    between atoms: C_15  and  C_16
REMARK   14  A    between atoms: C_16  and  C_17
REMARK   15  A    between atoms: C_17  and  C_18
REMARK                            x       y       z     vdW  Elec       q    Type
REMARK                         _______ _______ _______ _____ _____    ______ ____
ROOT
ATOM      1  C   UNL     1      -0.244  -0.304  -0.035  0.00  0.00    -0.098 C 
ATOM      2  C   UNL     1      -0.950   0.570   0.404  0.00  0.00    -0.074 C 
ENDROOT
BRANCH   2   3
ATOM      3  C   UNL     1      -1.795   1.613   0.925  0.00  0.00    -0.015 C 
ATOM      4  C   UNL     1      -2.745   2.209   0.196  0.00  0.00    -0.076 C 
BRANCH   4   5
ATOM      5  C   UNL     1      -3.043   1.867  -1.242  0.00  0.00    -0.034 C 
BRANCH   5   6
ATOM      6  C   UNL     1      -3.756   0.510  -1.405  0.00  0.00    -0.050 C 
BRANCH   6   7
ATOM      7  C   UNL     1      -5.274   0.567  -1.161  0.00  0.00    -0.052 C 
BRANCH   7   8
ATOM      8  C   UNL     1      -5.639   0.686   0.328  0.00  0.00    -0.043 C 
BRANCH   8   9
ATOM      9  C   UNL     1      -7.149   0.547   0.568  0.00  0.00    +0.045 C 
BRANCH   9  10
ATOM     10  C   UNL     1      -7.622  -0.856   0.342  0.00  0.00    +0.305 C 
ATOM     11  O   UNL     1      -7.391  -1.746   1.203  0.00  0.00    -0.251 OA
ATOM     12  O   UNL     1      -8.295  -1.181  -0.832  0.00  0.00    -0.481 OA
ENDBRANCH   9  10
ENDBRANCH   8   9
ENDBRANCH   7   8
ENDBRANCH   6   7
ENDBRANCH   5   6
ENDBRANCH   4   5
ENDBRANCH   2   3
BRANCH   1  13
ATOM     13  C   UNL     1       0.614  -1.367  -0.571  0.00  0.00    +0.009 C 
BRANCH  13  14
ATOM     14  C   UNL     1       1.948  -1.445   0.181  0.00  0.00    -0.042 C 
BRANCH  14  15
ATOM     15  C   UNL     1       2.838  -0.223  -0.089  0.00  0.00    -0.052 C 
BRANCH  15  16
ATOM     16  C   UNL     1       4.179  -0.347   0.645  0.00  0.00    -0.053 C 
BRANCH  16  17
ATOM     17  C   UNL     1       5.078   0.866   0.358  0.00  0.00    -0.053 C 
BRANCH  17  18
ATOM     18  C   UNL     1       6.359   0.878   1.211  0.00  0.00    -0.053 C 
BRANCH  18  20
ATOM     19  C   UNL     1       7.840  -0.376  -0.457  0.00  0.00    -0.065 C 
ATOM     20  C   UNL     1       7.306  -0.311   0.974  0.00  0.00    -0.056 C 
ENDBRANCH  18  20
ENDBRANCH  17  18
ENDBRANCH  16  17
ENDBRANCH  15  16
ENDBRANCH  14  15
ENDBRANCH  13  14
ENDBRANCH   1  13
TORSDOF 14
