
     RDKit          3D

 67 68  0  0  0  0  0  0  0  0999 V2000
    0.9939   -2.1989   -2.1195 C   0  0  0  0  0  0  0  0  0  0  0  0
    0.4118   -0.9349   -1.5321 C   0  0  0  0  0  0  0  0  0  0  0  0
   -0.7165   -0.9591   -0.7884 C   0  0  0  0  0  0  0  0  0  0  0  0
   -1.4684   -2.2307   -0.4717 C   0  0  0  0  0  0  0  0  0  0  0  0
   -2.6960   -1.9764    0.4145 C   0  0  0  0  0  0  0  0  0  0  0  0
   -3.7606   -1.1757   -0.3080 C   0  0  0  0  0  0  0  0  0  0  0  0
   -3.9130    0.1377   -0.0223 C   0  0  0  0  0  0  0  0  0  0  0  0
   -4.9439    1.0459   -0.6521 C   0  0  0  0  0  0  0  0  0  0  0  0
   -6.1198    1.3185    0.2981 C   0  0  0  0  0  0  0  0  0  0  0  0
   -7.2126    2.1940   -0.2775 C   0  0  0  0  0  0  0  0  0  0  0  0
   -8.2951    1.9884    0.4897 C   0  0  0  0  0  0  0  0  0  0  0  0
   -7.9193    0.9676    1.5392 C   0  0  0  0  0  0  0  0  0  0  0  0
   -6.9725    0.1130    0.7046 C   0  0  0  0  0  0  0  0  0  0  0  0
   -6.8906    1.6375    2.3953 C   0  0  0  0  0  0  0  0  0  0  0  0
   -6.9990    1.9323    3.6141 O   0  0  0  0  0  0  0  0  0  0  0  0
   -5.7391    1.8963    1.5969 N   0  0  0  0  0  0  0  0  0  0  0  0
   -4.5918   -1.8672   -1.3602 C   0  0  0  0  0  0  0  0  0  0  0  0
    1.0999    0.3906   -1.7929 C   0  0  0  0  0  0  0  0  0  0  0  0
    1.7690    0.9535   -0.5299 C   0  0  0  0  0  0  0  0  0  0  0  0
    2.8010    0.0036    0.0296 C   0  0  0  0  0  0  0  0  0  0  0  0
    4.0938   -0.0455   -0.3637 C   0  0  0  0  0  0  0  0  0  0  0  0
    5.0105   -1.0817    0.2544 C   0  0  0  0  0  0  0  0  0  0  0  0
    5.3886   -0.7262    1.7002 C   0  0  0  0  0  0  0  0  0  0  0  0
    6.1239    0.5913    1.7831 C   0  0  0  0  0  0  0  0  0  0  0  0
    7.4572    0.7375    1.6202 C   0  0  0  0  0  0  0  0  0  0  0  0
    8.0410    2.1241    1.6994 C   0  0  0  0  0  0  0  0  0  0  0  0
    8.3708   -0.4421    1.3846 C   0  0  0  0  0  0  0  0  0  0  0  0
    4.6544    0.9120   -1.3891 C   0  0  0  0  0  0  0  0  0  0  0  0
    1.9229   -1.9912   -2.6900 H   0  0  0  0  0  0  0  0  0  0  0  0
    1.2479   -2.9123   -1.3082 H   0  0  0  0  0  0  0  0  0  0  0  0
    0.2614   -2.6674   -2.8096 H   0  0  0  0  0  0  0  0  0  0  0  0
   -1.0937   -0.0213   -0.3899 H   0  0  0  0  0  0  0  0  0  0  0  0
   -0.7892   -2.9239    0.0687 H   0  0  0  0  0  0  0  0  0  0  0  0
   -1.7858   -2.7242   -1.4154 H   0  0  0  0  0  0  0  0  0  0  0  0
   -2.3783   -1.4744    1.3553 H   0  0  0  0  0  0  0  0  0  0  0  0
   -3.1286   -2.9550    0.7141 H   0  0  0  0  0  0  0  0  0  0  0  0
   -3.2832    0.5839    0.7424 H   0  0  0  0  0  0  0  0  0  0  0  0
   -5.3253    0.6415   -1.6125 H   0  0  0  0  0  0  0  0  0  0  0  0
   -4.4487    2.0121   -0.8885 H   0  0  0  0  0  0  0  0  0  0  0  0
   -7.1635    2.8314   -1.1542 H   0  0  0  0  0  0  0  0  0  0  0  0
   -9.2744    2.4258    0.3280 H   0  0  0  0  0  0  0  0  0  0  0  0
   -8.7474    0.4420    2.0591 H   0  0  0  0  0  0  0  0  0  0  0  0
   -6.4119   -0.6369    1.3113 H   0  0  0  0  0  0  0  0  0  0  0  0
   -7.4767   -0.3910   -0.1545 H   0  0  0  0  0  0  0  0  0  0  0  0
   -4.7819    2.1248    1.9472 H   0  0  0  0  0  0  0  0  0  0  0  0
   -5.6694   -1.7902   -1.1110 H   0  0  0  0  0  0  0  0  0  0  0  0
   -4.4023   -1.4108   -2.3536 H   0  0  0  0  0  0  0  0  0  0  0  0
   -4.3332   -2.9450   -1.4249 H   0  0  0  0  0  0  0  0  0  0  0  0
    0.3506    1.1234   -2.1645 H   0  0  0  0  0  0  0  0  0  0  0  0
    1.8579    0.2867   -2.5965 H   0  0  0  0  0  0  0  0  0  0  0  0
    2.2181    1.9437   -0.7524 H   0  0  0  0  0  0  0  0  0  0  0  0
    0.9948    1.1300    0.2474 H   0  0  0  0  0  0  0  0  0  0  0  0
    2.4530   -0.7015    0.7807 H   0  0  0  0  0  0  0  0  0  0  0  0
    4.5030   -2.0716    0.2450 H   0  0  0  0  0  0  0  0  0  0  0  0
    5.9303   -1.2004   -0.3539 H   0  0  0  0  0  0  0  0  0  0  0  0
    5.9917   -1.5461    2.1435 H   0  0  0  0  0  0  0  0  0  0  0  0
    4.4639   -0.6533    2.3122 H   0  0  0  0  0  0  0  0  0  0  0  0
    5.5194    1.4749    1.9725 H   0  0  0  0  0  0  0  0  0  0  0  0
    9.1411    2.1171    1.5519 H   0  0  0  0  0  0  0  0  0  0  0  0
    7.8272    2.5655    2.6959 H   0  0  0  0  0  0  0  0  0  0  0  0
    7.5902    2.7661    0.9134 H   0  0  0  0  0  0  0  0  0  0  0  0
    9.4281   -0.1217    1.2784 H   0  0  0  0  0  0  0  0  0  0  0  0
    8.0860   -0.9717    0.4539 H   0  0  0  0  0  0  0  0  0  0  0  0
    8.3161   -1.1433    2.2431 H   0  0  0  0  0  0  0  0  0  0  0  0
    4.5535    1.9562   -1.0280 H   0  0  0  0  0  0  0  0  0  0  0  0
    4.1251    0.7965   -2.3557 H   0  0  0  0  0  0  0  0  0  0  0  0
    5.7337    0.7263   -1.5676 H   0  0  0  0  0  0  0  0  0  0  0  0
  1  2  1  0
  2  3  2  0
  3  4  1  0
  4  5  1  0
  5  6  1  0
  6  7  2  0
  7  8  1  0
  8  9  1  0
  9 10  1  0
 10 11  2  0
 11 12  1  0
 12 13  1  0
 12 14  1  0
 14 15  2  0
 14 16  1  0
  6 17  1  0
  2 18  1  0
 18 19  1  0
 19 20  1  0
 20 21  2  0
 21 22  1  0
 22 23  1  0
 23 24  1  0
 24 25  2  3
 25 26  1  0
 25 27  1  0
 21 28  1  0
 13  9  1  0
 16  9  1  0
  1 29  1  0
  1 30  1  0
  1 31  1  0
  3 32  1  0
  4 33  1  0
  4 34  1  0
  5 35  1  0
  5 36  1  0
  7 37  1  0
  8 38  1  0
  8 39  1  0
 10 40  1  0
 11 41  1  0
 12 42  1  0
 13 43  1  0
 13 44  1  0
 16 45  1  0
 17 46  1  0
 17 47  1  0
 17 48  1  0
 18 49  1  0
 18 50  1  0
 19 51  1  0
 19 52  1  0
 20 53  1  0
 22 54  1  0
 22 55  1  0
 23 56  1  0
 23 57  1  0
 24 58  1  0
 26 59  1  0
 26 60  1  0
 26 61  1  0
 27 62  1  0
 27 63  1  0
 27 64  1  0
 28 65  1  0
 28 66  1  0
 28 67  1  0
M  END
$$$$
