
     RDKit          3D

 37 38  0  0  0  0  0  0  0  0999 V2000
    1.9915    2.5702    0.0741 C   0  0  0  0  0  0  0  0  0  0  0  0
    2.1690    1.0940   -0.1223 C   0  0  0  0  0  0  0  0  0  0  0  0
    1.1758    0.2284   -0.2724 C   0  0  0  0  0  0  0  0  0  0  0  0
   -0.2374    0.6186   -0.4466 C   0  0  0  0  0  0  0  0  0  0  0  0
   -1.2700   -0.0391    0.1212 C   0  0  0  0  0  0  0  0  0  0  0  0
   -1.0004   -1.0451    1.2297 C   0  0  0  0  0  0  0  0  0  0  0  0
   -0.2819   -2.3021    0.7219 C   0  0  0  0  0  0  0  0  0  0  0  0
    1.2396   -2.1136    0.6518 C   0  0  0  0  0  0  0  0  0  0  0  0
    1.6697   -1.1669   -0.4806 C   0  0  2  0  0  0  0  0  0  0  0  0
    3.2016   -1.0114   -0.5369 C   0  0  0  0  0  0  0  0  0  0  0  0
    3.4984    0.4325   -0.1273 C   0  0  0  0  0  0  0  0  0  0  0  0
   -2.7140    0.3569   -0.2346 C   0  0  0  0  0  0  0  0  0  0  0  0
   -3.6363   -0.5685    0.2926 O   0  0  0  0  0  0  0  0  0  0  0  0
   -3.0318    1.7258    0.3856 C   0  0  0  0  0  0  0  0  0  0  0  0
   -2.9222    0.4242   -1.7657 C   0  0  0  0  0  0  0  0  0  0  0  0
    2.9747    3.0581    0.2419 H   0  0  0  0  0  0  0  0  0  0  0  0
    1.5235    3.0179   -0.8273 H   0  0  0  0  0  0  0  0  0  0  0  0
    1.3460    2.7578    0.9579 H   0  0  0  0  0  0  0  0  0  0  0  0
   -0.4276    1.4668   -1.0900 H   0  0  0  0  0  0  0  0  0  0  0  0
   -1.9390   -1.3613    1.7273 H   0  0  0  0  0  0  0  0  0  0  0  0
   -0.4058   -0.5548    2.0318 H   0  0  0  0  0  0  0  0  0  0  0  0
   -0.4862   -3.1309    1.4346 H   0  0  0  0  0  0  0  0  0  0  0  0
   -0.6853   -2.6135   -0.2670 H   0  0  0  0  0  0  0  0  0  0  0  0
    1.6246   -1.7481    1.6301 H   0  0  0  0  0  0  0  0  0  0  0  0
    1.6979   -3.1101    0.4683 H   0  0  0  0  0  0  0  0  0  0  0  0
    1.2967   -1.5535   -1.4555 H   0  0  0  0  0  0  0  0  0  0  0  0
    3.5543   -1.1815   -1.5783 H   0  0  0  0  0  0  0  0  0  0  0  0
    3.7350   -1.7244    0.1301 H   0  0  0  0  0  0  0  0  0  0  0  0
    3.9386    0.4702    0.8926 H   0  0  0  0  0  0  0  0  0  0  0  0
    4.1784    0.9230   -0.8568 H   0  0  0  0  0  0  0  0  0  0  0  0
   -3.4734   -1.4454   -0.1465 H   0  0  0  0  0  0  0  0  0  0  0  0
   -4.0860    2.0083    0.1757 H   0  0  0  0  0  0  0  0  0  0  0  0
   -2.3693    2.5180   -0.0242 H   0  0  0  0  0  0  0  0  0  0  0  0
   -2.8957    1.6870    1.4880 H   0  0  0  0  0  0  0  0  0  0  0  0
   -4.0021    0.5468   -1.9975 H   0  0  0  0  0  0  0  0  0  0  0  0
   -2.5685   -0.5141   -2.2449 H   0  0  0  0  0  0  0  0  0  0  0  0
   -2.3824    1.2805   -2.2212 H   0  0  0  0  0  0  0  0  0  0  0  0
  1  2  1  0
  2  3  2  0
  3  4  1  0
  4  5  2  0
  5  6  1  0
  6  7  1  0
  7  8  1  0
  8  9  1  0
  9 10  1  0
 10 11  1  0
  5 12  1  0
 12 13  1  0
 12 14  1  0
 12 15  1  0
 11  2  1  0
  9  3  1  0
  1 16  1  0
  1 17  1  0
  1 18  1  0
  4 19  1  0
  6 20  1  0
  6 21  1  0
  7 22  1  0
  7 23  1  0
  8 24  1  0
  8 25  1  0
  9 26  1  6
 10 27  1  0
 10 28  1  0
 11 29  1  0
 11 30  1  0
 13 31  1  0
 14 32  1  0
 14 33  1  0
 14 34  1  0
 15 35  1  0
 15 36  1  0
 15 37  1  0
M  END
$$$$
