
     RDKit          3D

 59 58  0  0  0  0  0  0  0  0999 V2000
   10.6662    0.3960   -0.0692 C   0  0  0  0  0  0  0  0  0  0  0  0
    9.5437    1.0728   -0.3323 C   0  0  0  0  0  0  0  0  0  0  0  0
    8.5234    1.3690    0.7303 C   0  0  0  0  0  0  0  0  0  0  0  0
    8.2963    2.7764    0.7704 O   0  0  0  0  0  0  0  0  0  0  0  0
    7.6012    3.4157    1.8038 C   0  0  0  0  0  0  0  0  0  0  0  0
    7.1460    2.7590    2.7793 O   0  0  0  0  0  0  0  0  0  0  0  0
    7.3671    4.8862    1.7308 C   0  0  0  0  0  0  0  0  0  0  0  0
    7.2736    0.6717    0.4009 C   0  0  0  0  0  0  0  0  0  0  0  0
    6.2461    0.1029    0.1292 C   0  0  0  0  0  0  0  0  0  0  0  0
    5.0423   -0.5603   -0.1916 C   0  0  0  0  0  0  0  0  0  0  0  0
    4.0134   -1.1250   -0.4667 C   0  0  0  0  0  0  0  0  0  0  0  0
    2.7560   -1.8129   -0.8026 C   0  0  0  0  0  0  0  0  0  0  0  0
    2.1174   -2.4105    0.4675 C   0  0  0  0  0  0  0  0  0  0  0  0
    0.8021   -3.1606    0.1957 C   0  0  0  0  0  0  0  0  0  0  0  0
   -0.3432   -2.2217   -0.2140 C   0  0  0  0  0  0  0  0  0  0  0  0
   -1.6752   -2.9832   -0.2896 C   0  0  0  0  0  0  0  0  0  0  0  0
   -2.8285   -2.1179   -0.8223 C   0  0  0  0  0  0  0  0  0  0  0  0
   -3.2639   -1.0326    0.1778 C   0  0  0  0  0  0  0  0  0  0  0  0
   -4.4833   -0.2342   -0.3122 C   0  0  0  0  0  0  0  0  0  0  0  0
   -5.8042   -1.0017   -0.1258 C   0  0  0  0  0  0  0  0  0  0  0  0
   -7.0240   -0.1920   -0.5940 C   0  0  0  0  0  0  0  0  0  0  0  0
   -7.3901    0.9410    0.3737 C   0  0  0  0  0  0  0  0  0  0  0  0
   -8.6186    1.5521   -0.0159 O   0  0  0  0  0  0  0  0  0  0  0  0
   -8.7318    2.4321   -1.0981 C   0  0  0  0  0  0  0  0  0  0  0  0
   -7.7151    2.7753   -1.7614 O   0  0  0  0  0  0  0  0  0  0  0  0
  -10.0624    3.0188   -1.4283 C   0  0  0  0  0  0  0  0  0  0  0  0
    2.9937   -2.8011   -1.7737 O   0  0  0  0  0  0  0  0  0  0  0  0
   10.8854    0.0349    0.9314 H   0  0  0  0  0  0  0  0  0  0  0  0
   11.3783    0.1981   -0.8638 H   0  0  0  0  0  0  0  0  0  0  0  0
    9.3594    1.4125   -1.3481 H   0  0  0  0  0  0  0  0  0  0  0  0
    8.8796    1.0194    1.7249 H   0  0  0  0  0  0  0  0  0  0  0  0
    8.1347    5.3603    1.0838 H   0  0  0  0  0  0  0  0  0  0  0  0
    7.4290    5.3327    2.7454 H   0  0  0  0  0  0  0  0  0  0  0  0
    6.3606    5.0805    1.3051 H   0  0  0  0  0  0  0  0  0  0  0  0
    2.0746   -1.0520   -1.2354 H   0  0  0  0  0  0  0  0  0  0  0  0
    1.9313   -1.6009    1.2082 H   0  0  0  0  0  0  0  0  0  0  0  0
    2.8333   -3.1240    0.9336 H   0  0  0  0  0  0  0  0  0  0  0  0
    0.5145   -3.6887    1.1310 H   0  0  0  0  0  0  0  0  0  0  0  0
    0.9584   -3.9333   -0.5885 H   0  0  0  0  0  0  0  0  0  0  0  0
   -0.4229   -1.4041    0.5334 H   0  0  0  0  0  0  0  0  0  0  0  0
   -0.1243   -1.7788   -1.2090 H   0  0  0  0  0  0  0  0  0  0  0  0
   -1.5524   -3.8497   -0.9758 H   0  0  0  0  0  0  0  0  0  0  0  0
   -1.9404   -3.3839    0.7133 H   0  0  0  0  0  0  0  0  0  0  0  0
   -2.5318   -1.6482   -1.7859 H   0  0  0  0  0  0  0  0  0  0  0  0
   -3.6836   -2.7954   -1.0288 H   0  0  0  0  0  0  0  0  0  0  0  0
   -3.4838   -1.4883    1.1685 H   0  0  0  0  0  0  0  0  0  0  0  0
   -2.4279   -0.3143    0.3153 H   0  0  0  0  0  0  0  0  0  0  0  0
   -4.5244    0.7068    0.2753 H   0  0  0  0  0  0  0  0  0  0  0  0
   -4.3503    0.0427   -1.3813 H   0  0  0  0  0  0  0  0  0  0  0  0
   -5.7721   -1.9364   -0.7237 H   0  0  0  0  0  0  0  0  0  0  0  0
   -5.9311   -1.2901    0.9408 H   0  0  0  0  0  0  0  0  0  0  0  0
   -7.8932   -0.8815   -0.6669 H   0  0  0  0  0  0  0  0  0  0  0  0
   -6.8371    0.2178   -1.6101 H   0  0  0  0  0  0  0  0  0  0  0  0
   -7.5210    0.5232    1.3943 H   0  0  0  0  0  0  0  0  0  0  0  0
   -6.5889    1.7086    0.4162 H   0  0  0  0  0  0  0  0  0  0  0  0
  -10.8630    2.2840   -1.2049 H   0  0  0  0  0  0  0  0  0  0  0  0
  -10.2239    3.9319   -0.8189 H   0  0  0  0  0  0  0  0  0  0  0  0
  -10.1100    3.2837   -2.5059 H   0  0  0  0  0  0  0  0  0  0  0  0
    3.5952   -3.4827   -1.3715 H   0  0  0  0  0  0  0  0  0  0  0  0
  1  2  2  3
  2  3  1  0
  3  4  1  0
  4  5  1  0
  5  6  2  0
  5  7  1  0
  3  8  1  0
  8  9  3  0
  9 10  1  0
 10 11  3  0
 11 12  1  0
 12 13  1  0
 13 14  1  0
 14 15  1  0
 15 16  1  0
 16 17  1  0
 17 18  1  0
 18 19  1  0
 19 20  1  0
 20 21  1  0
 21 22  1  0
 22 23  1  0
 23 24  1  0
 24 25  2  0
 24 26  1  0
 12 27  1  0
  1 28  1  0
  1 29  1  0
  2 30  1  0
  3 31  1  0
  7 32  1  0
  7 33  1  0
  7 34  1  0
 12 35  1  0
 13 36  1  0
 13 37  1  0
 14 38  1  0
 14 39  1  0
 15 40  1  0
 15 41  1  0
 16 42  1  0
 16 43  1  0
 17 44  1  0
 17 45  1  0
 18 46  1  0
 18 47  1  0
 19 48  1  0
 19 49  1  0
 20 50  1  0
 20 51  1  0
 21 52  1  0
 21 53  1  0
 22 54  1  0
 22 55  1  0
 26 56  1  0
 26 57  1  0
 26 58  1  0
 27 59  1  0
M  END
$$$$
