
     RDKit          3D

 42 41  0  0  0  0  0  0  0  0999 V2000
  -10.5537   -1.1184   -1.5882 O   0  0  0  0  0  0  0  0  0  0  0  0
  -10.6022   -2.4325   -1.1020 C   0  0  0  0  0  0  0  0  0  0  0  0
   -9.9715   -2.5089    0.2927 C   0  0  1  0  0  0  0  0  0  0  0  0
   -8.5468   -2.1582    0.2319 C   0  0  0  0  0  0  0  0  0  0  0  0
   -7.3772   -1.8704    0.1814 C   0  0  0  0  0  0  0  0  0  0  0  0
   -6.0079   -1.5332    0.1216 C   0  0  0  0  0  0  0  0  0  0  0  0
   -4.8388   -1.2451    0.0705 C   0  0  0  0  0  0  0  0  0  0  0  0
   -3.4694   -0.9076    0.0105 C   0  0  0  0  0  0  0  0  0  0  0  0
   -2.3003   -0.6195   -0.0407 C   0  0  0  0  0  0  0  0  0  0  0  0
   -0.9311   -0.2819   -0.1006 C   0  0  0  0  0  0  0  0  0  0  0  0
    0.2382    0.0067   -0.1513 C   0  0  0  0  0  0  0  0  0  0  0  0
    1.6611    0.3579   -0.2128 C   0  0  0  0  0  0  0  0  0  0  0  0
    2.0203    1.3282    0.9177 C   0  0  0  0  0  0  0  0  0  0  0  0
    3.4686    1.8369    0.8233 C   0  0  0  0  0  0  0  0  0  0  0  0
    4.5250    0.7379    1.0807 C   0  0  0  0  0  0  0  0  0  0  0  0
    5.1961    0.2287   -0.2099 C   0  0  0  0  0  0  0  0  0  0  0  0
    6.2542    1.1945   -0.7755 C   0  0  0  0  0  0  0  0  0  0  0  0
    7.5820    1.1257   -0.0092 C   0  0  0  0  0  0  0  0  0  0  0  0
    8.5990    2.0176   -0.6481 C   0  0  0  0  0  0  0  0  0  0  0  0
    8.6912    3.2241   -0.2960 O   0  0  0  0  0  0  0  0  0  0  0  0
    9.4131    1.5248   -1.6631 O   0  0  0  0  0  0  0  0  0  0  0  0
  -10.6206   -1.6303    1.1722 O   0  0  0  0  0  0  0  0  0  0  0  0
  -10.9728   -1.1424   -2.4875 H   0  0  0  0  0  0  0  0  0  0  0  0
  -10.0602   -3.1142   -1.7963 H   0  0  0  0  0  0  0  0  0  0  0  0
  -11.6615   -2.7687   -1.0406 H   0  0  0  0  0  0  0  0  0  0  0  0
  -10.0485   -3.5535    0.6717 H   0  0  0  0  0  0  0  0  0  0  0  0
    1.8698    0.8251   -1.1987 H   0  0  0  0  0  0  0  0  0  0  0  0
    2.2534   -0.5761   -0.1201 H   0  0  0  0  0  0  0  0  0  0  0  0
    1.8585    0.8384    1.9035 H   0  0  0  0  0  0  0  0  0  0  0  0
    1.3435    2.2101    0.8660 H   0  0  0  0  0  0  0  0  0  0  0  0
    3.5948    2.6264    1.5962 H   0  0  0  0  0  0  0  0  0  0  0  0
    3.6224    2.3325   -0.1593 H   0  0  0  0  0  0  0  0  0  0  0  0
    5.2970    1.1288    1.7757 H   0  0  0  0  0  0  0  0  0  0  0  0
    4.0603   -0.1260    1.6043 H   0  0  0  0  0  0  0  0  0  0  0  0
    5.6681   -0.7579   -0.0091 H   0  0  0  0  0  0  0  0  0  0  0  0
    4.4215    0.0553   -0.9865 H   0  0  0  0  0  0  0  0  0  0  0  0
    5.8714    2.2375   -0.7717 H   0  0  0  0  0  0  0  0  0  0  0  0
    6.4436    0.9132   -1.8351 H   0  0  0  0  0  0  0  0  0  0  0  0
    7.4403    1.4386    1.0463 H   0  0  0  0  0  0  0  0  0  0  0  0
    7.9665    0.0828   -0.0122 H   0  0  0  0  0  0  0  0  0  0  0  0
   10.0953    2.1203   -2.1170 H   0  0  0  0  0  0  0  0  0  0  0  0
  -11.4926   -2.0470    1.4002 H   0  0  0  0  0  0  0  0  0  0  0  0
  1  2  1  0
  2  3  1  0
  3  4  1  0
  4  5  3  0
  5  6  1  0
  6  7  3  0
  7  8  1  0
  8  9  3  0
  9 10  1  0
 10 11  3  0
 11 12  1  0
 12 13  1  0
 13 14  1  0
 14 15  1  0
 15 16  1  0
 16 17  1  0
 17 18  1  0
 18 19  1  0
 19 20  2  0
 19 21  1  0
  3 22  1  0
  1 23  1  0
  2 24  1  0
  2 25  1  0
  3 26  1  1
 12 27  1  0
 12 28  1  0
 13 29  1  0
 13 30  1  0
 14 31  1  0
 14 32  1  0
 15 33  1  0
 15 34  1  0
 16 35  1  0
 16 36  1  0
 17 37  1  0
 17 38  1  0
 18 39  1  0
 18 40  1  0
 21 41  1  0
 22 42  1  0
M  END
$$$$
