
     RDKit          3D

 57 60  0  0  0  0  0  0  0  0999 V2000
    0.8285   -1.1725    2.1757 C   0  0  0  0  0  0  0  0  0  0  0  0
    0.7740    0.1108    1.5637 O   0  0  0  0  0  0  0  0  0  0  0  0
    1.3003    0.3426    0.2885 C   0  0  0  0  0  0  0  0  0  0  0  0
    0.5566    0.0368   -0.7963 C   0  0  0  0  0  0  0  0  0  0  0  0
    1.1205    0.2041   -2.1511 C   0  0  0  0  0  0  0  0  0  0  0  0
    0.4107   -0.0065   -3.1709 O   0  0  0  0  0  0  0  0  0  0  0  0
    2.5172    0.6168   -2.3163 C   0  0  0  0  0  0  0  0  0  0  0  0
    3.2720    0.9283   -1.2551 C   0  0  0  0  0  0  0  0  0  0  0  0
    2.6823    0.9114    0.1226 C   0  0  0  0  0  0  0  0  0  0  0  0
    3.4115    1.4327    1.1472 C   0  0  0  0  0  0  0  0  0  0  0  0
    2.8464    1.6735    2.5221 C   0  0  0  0  0  0  0  0  0  0  0  0
    4.7871    1.7960    0.9273 N   0  0  0  0  0  0  0  0  0  0  0  0
    5.5324    1.3121   -0.2317 C   0  0  2  0  0  0  0  0  0  0  0  0
    4.6685    1.4534   -1.4877 C   0  0  0  0  0  0  0  0  0  0  0  0
    5.9745   -0.1381   -0.0034 C   0  0  0  0  0  0  0  0  0  0  0  0
   -0.8319   -0.4808   -0.6494 C   0  0  0  0  0  0  0  0  0  0  0  0
   -1.0887   -1.8495   -0.8815 C   0  0  0  0  0  0  0  0  0  0  0  0
    0.0076   -2.8013   -1.2972 C   0  0  0  0  0  0  0  0  0  0  0  0
   -2.3900   -2.3415   -0.7540 C   0  0  0  0  0  0  0  0  0  0  0  0
   -3.4552   -1.5119   -0.3689 C   0  0  0  0  0  0  0  0  0  0  0  0
   -3.2176   -0.1356   -0.1219 C   0  0  0  0  0  0  0  0  0  0  0  0
   -1.8966    0.3821   -0.2766 C   0  0  0  0  0  0  0  0  0  0  0  0
   -1.6705    1.7592   -0.0674 C   0  0  0  0  0  0  0  0  0  0  0  0
   -2.7071    2.6037    0.3089 C   0  0  0  0  0  0  0  0  0  0  0  0
   -3.9913    2.1049    0.4803 C   0  0  0  0  0  0  0  0  0  0  0  0
   -4.2689    0.7424    0.2682 C   0  0  0  0  0  0  0  0  0  0  0  0
   -5.5737    0.2462    0.4387 O   0  0  0  0  0  0  0  0  0  0  0  0
   -6.7023    1.0244    0.8251 C   0  0  0  0  0  0  0  0  0  0  0  0
   -4.7538   -2.0351   -0.2316 O   0  0  0  0  0  0  0  0  0  0  0  0
   -5.1200   -3.3945   -0.4486 C   0  0  0  0  0  0  0  0  0  0  0  0
    0.4663   -1.0913    3.2207 H   0  0  0  0  0  0  0  0  0  0  0  0
    0.1819   -1.8895    1.6321 H   0  0  0  0  0  0  0  0  0  0  0  0
    1.8740   -1.5472    2.1843 H   0  0  0  0  0  0  0  0  0  0  0  0
    2.9234    0.6914   -3.3186 H   0  0  0  0  0  0  0  0  0  0  0  0
    2.7676    0.7158    3.0755 H   0  0  0  0  0  0  0  0  0  0  0  0
    3.5104    2.3436    3.1068 H   0  0  0  0  0  0  0  0  0  0  0  0
    1.8583    2.1760    2.4576 H   0  0  0  0  0  0  0  0  0  0  0  0
    5.2940    2.3743    1.6348 H   0  0  0  0  0  0  0  0  0  0  0  0
    6.4477    1.9317   -0.3593 H   0  0  0  0  0  0  0  0  0  0  0  0
    4.5950    2.5304   -1.7535 H   0  0  0  0  0  0  0  0  0  0  0  0
    5.1542    0.9264   -2.3392 H   0  0  0  0  0  0  0  0  0  0  0  0
    5.0969   -0.8078    0.1200 H   0  0  0  0  0  0  0  0  0  0  0  0
    6.5801   -0.4937   -0.8640 H   0  0  0  0  0  0  0  0  0  0  0  0
    6.5992   -0.1999    0.9128 H   0  0  0  0  0  0  0  0  0  0  0  0
    0.2198   -2.6749   -2.3789 H   0  0  0  0  0  0  0  0  0  0  0  0
   -0.2828   -3.8582   -1.1167 H   0  0  0  0  0  0  0  0  0  0  0  0
    0.9354   -2.6138   -0.7174 H   0  0  0  0  0  0  0  0  0  0  0  0
   -2.5669   -3.3897   -0.9530 H   0  0  0  0  0  0  0  0  0  0  0  0
   -0.6917    2.2011   -0.1966 H   0  0  0  0  0  0  0  0  0  0  0  0
   -2.5128    3.6567    0.4685 H   0  0  0  0  0  0  0  0  0  0  0  0
   -4.7686    2.7956    0.7758 H   0  0  0  0  0  0  0  0  0  0  0  0
   -7.5936    0.3664    0.8787 H   0  0  0  0  0  0  0  0  0  0  0  0
   -6.8937    1.8195    0.0739 H   0  0  0  0  0  0  0  0  0  0  0  0
   -6.5325    1.4733    1.8265 H   0  0  0  0  0  0  0  0  0  0  0  0
   -6.2071   -3.5099   -0.2614 H   0  0  0  0  0  0  0  0  0  0  0  0
   -4.5680   -4.0558    0.2523 H   0  0  0  0  0  0  0  0  0  0  0  0
   -4.9091   -3.6843   -1.4996 H   0  0  0  0  0  0  0  0  0  0  0  0
  1  2  1  0
  2  3  1  0
  3  4  2  0
  4  5  1  0
  5  6  2  0
  5  7  1  0
  7  8  2  0
  8  9  1  0
  9 10  2  0
 10 11  1  0
 10 12  1  0
 12 13  1  0
 13 14  1  0
 13 15  1  0
  4 16  1  0
 16 17  2  0
 17 18  1  0
 17 19  1  0
 19 20  2  0
 20 21  1  0
 21 22  2  0
 22 23  1  0
 23 24  2  0
 24 25  1  0
 25 26  2  0
 26 27  1  0
 27 28  1  0
 20 29  1  0
 29 30  1  0
  9  3  1  0
 22 16  1  0
 14  8  1  0
 26 21  1  0
  1 31  1  0
  1 32  1  0
  1 33  1  0
  7 34  1  0
 11 35  1  0
 11 36  1  0
 11 37  1  0
 12 38  1  0
 13 39  1  6
 14 40  1  0
 14 41  1  0
 15 42  1  0
 15 43  1  0
 15 44  1  0
 18 45  1  0
 18 46  1  0
 18 47  1  0
 19 48  1  0
 23 49  1  0
 24 50  1  0
 25 51  1  0
 28 52  1  0
 28 53  1  0
 28 54  1  0
 30 55  1  0
 30 56  1  0
 30 57  1  0
M  END
$$$$
