
     RDKit          3D

 48 50  0  0  0  0  0  0  0  0999 V2000
    4.2208    1.6422   -0.7972 O   0  0  0  0  0  0  0  0  0  0  0  0
    3.6629    0.8939    0.0519 C   0  0  0  0  0  0  0  0  0  0  0  0
    4.1293   -0.4975    0.2346 C   0  0  0  0  0  0  0  0  0  0  0  0
    5.2207   -0.9933   -0.5033 C   0  0  0  0  0  0  0  0  0  0  0  0
    5.6504   -2.3127   -0.3297 C   0  0  0  0  0  0  0  0  0  0  0  0
    4.9967   -3.1494    0.5778 C   0  0  0  0  0  0  0  0  0  0  0  0
    3.9113   -2.6685    1.3136 C   0  0  0  0  0  0  0  0  0  0  0  0
    3.4775   -1.3499    1.1446 C   0  0  0  0  0  0  0  0  0  0  0  0
    2.6058    1.3782    0.8322 O   0  0  0  0  0  0  0  0  0  0  0  0
    1.9335    2.6159    0.5919 C   0  0  0  0  0  0  0  0  0  0  0  0
    0.7562    2.4454   -0.4041 C   0  0  1  0  0  0  0  0  0  0  0  0
    0.0488    3.6615   -0.4912 O   0  0  0  0  0  0  0  0  0  0  0  0
    1.2900    2.0984   -1.7873 C   0  0  0  0  0  0  0  0  0  0  0  0
    0.6749    1.2434   -2.6202 C   0  0  0  0  0  0  0  0  0  0  0  0
   -0.5004    0.3940   -2.1949 C   0  0  1  0  0  0  0  0  0  0  0  0
   -1.2442    0.9833   -0.9811 C   0  0  2  0  0  0  0  0  0  0  0  0
   -0.2210    1.3514    0.1137 C   0  0  2  0  0  0  0  0  0  0  0  0
   -0.8844    1.8238    1.2604 O   0  0  0  0  0  0  0  0  0  0  0  0
   -2.1668    0.0049   -0.4964 O   0  0  0  0  0  0  0  0  0  0  0  0
   -3.3460    0.3149    0.1939 C   0  0  0  0  0  0  0  0  0  0  0  0
   -3.6824    1.5190    0.3671 O   0  0  0  0  0  0  0  0  0  0  0  0
   -4.1985   -0.7757    0.7148 C   0  0  0  0  0  0  0  0  0  0  0  0
   -5.3906   -0.4890    1.4067 C   0  0  0  0  0  0  0  0  0  0  0  0
   -6.1901   -1.5260    1.8976 C   0  0  0  0  0  0  0  0  0  0  0  0
   -5.8099   -2.8560    1.7044 C   0  0  0  0  0  0  0  0  0  0  0  0
   -4.6290   -3.1521    1.0199 C   0  0  0  0  0  0  0  0  0  0  0  0
   -3.8255   -2.1192    0.5267 C   0  0  0  0  0  0  0  0  0  0  0  0
   -1.3828    0.2044   -3.2717 O   0  0  0  0  0  0  0  0  0  0  0  0
    5.7420   -0.3634   -1.2131 H   0  0  0  0  0  0  0  0  0  0  0  0
    6.4909   -2.6868   -0.9001 H   0  0  0  0  0  0  0  0  0  0  0  0
    5.3306   -4.1704    0.7101 H   0  0  0  0  0  0  0  0  0  0  0  0
    3.4045   -3.3183    2.0153 H   0  0  0  0  0  0  0  0  0  0  0  0
    2.6315   -1.0009    1.7234 H   0  0  0  0  0  0  0  0  0  0  0  0
    2.6512    3.3879    0.2360 H   0  0  0  0  0  0  0  0  0  0  0  0
    1.5317    2.9804    1.5614 H   0  0  0  0  0  0  0  0  0  0  0  0
    0.6762    4.3627   -0.8113 H   0  0  0  0  0  0  0  0  0  0  0  0
    2.1354    2.6625   -2.1709 H   0  0  0  0  0  0  0  0  0  0  0  0
    1.0983    1.0822   -3.6073 H   0  0  0  0  0  0  0  0  0  0  0  0
   -0.0956   -0.6016   -1.9097 H   0  0  0  0  0  0  0  0  0  0  0  0
   -1.7936    1.8966   -1.3052 H   0  0  0  0  0  0  0  0  0  0  0  0
    0.3573    0.4283    0.3629 H   0  0  0  0  0  0  0  0  0  0  0  0
   -1.0720    1.0370    1.8362 H   0  0  0  0  0  0  0  0  0  0  0  0
   -5.7052    0.5344    1.5687 H   0  0  0  0  0  0  0  0  0  0  0  0
   -7.1054   -1.2979    2.4284 H   0  0  0  0  0  0  0  0  0  0  0  0
   -6.4302   -3.6571    2.0853 H   0  0  0  0  0  0  0  0  0  0  0  0
   -4.3353   -4.1832    0.8711 H   0  0  0  0  0  0  0  0  0  0  0  0
   -2.9144   -2.3734   -0.0002 H   0  0  0  0  0  0  0  0  0  0  0  0
   -1.7056    1.1000   -3.5559 H   0  0  0  0  0  0  0  0  0  0  0  0
  1  2  2  0
  2  3  1  0
  3  4  2  0
  4  5  1  0
  5  6  2  0
  6  7  1  0
  7  8  2  0
  2  9  1  0
  9 10  1  0
 10 11  1  0
 11 12  1  6
 11 13  1  0
 13 14  2  0
 14 15  1  0
 15 16  1  0
 16 17  1  0
 17 18  1  0
 16 19  1  0
 19 20  1  0
 20 21  2  0
 20 22  1  0
 22 23  2  0
 23 24  1  0
 24 25  2  0
 25 26  1  0
 26 27  2  0
 15 28  1  0
  8  3  1  0
 17 11  1  0
 27 22  1  0
  4 29  1  0
  5 30  1  0
  6 31  1  0
  7 32  1  0
  8 33  1  0
 10 34  1  0
 10 35  1  0
 12 36  1  0
 13 37  1  0
 14 38  1  0
 15 39  1  1
 16 40  1  6
 17 41  1  1
 18 42  1  0
 23 43  1  0
 24 44  1  0
 25 45  1  0
 26 46  1  0
 27 47  1  0
 28 48  1  0
M  END
$$$$
