
     RDKit          3D

 18 19  0  0  0  0  0  0  0  0999 V2000
    4.0499   -0.3759   -0.0012 O   0  0  0  0  0  0  0  0  0  0  0  0
    2.9894   -1.0555    0.0201 C   0  0  0  0  0  0  0  0  0  0  0  0
    1.6677   -0.4036    0.0062 C   0  0  0  0  0  0  0  0  0  0  0  0
    1.5513    1.0119   -0.0316 C   0  0  0  0  0  0  0  0  0  0  0  0
    0.2864    1.6277   -0.0447 C   0  0  0  0  0  0  0  0  0  0  0  0
   -0.8383    0.8068   -0.0194 C   0  0  0  0  0  0  0  0  0  0  0  0
   -0.7328   -0.5570    0.0171 C   0  0  0  0  0  0  0  0  0  0  0  0
    0.5022   -1.2009    0.0310 C   0  0  0  0  0  0  0  0  0  0  0  0
   -2.0119   -1.0691    0.0345 C   0  0  0  0  0  0  0  0  0  0  0  0
   -2.8484    0.0424    0.0068 C   0  0  0  0  0  0  0  0  0  0  0  0
   -2.1266    1.1861   -0.0260 N   0  0  0  0  0  0  0  0  0  0  0  0
    3.0597   -2.1354    0.0490 H   0  0  0  0  0  0  0  0  0  0  0  0
    2.4354    1.6366   -0.0509 H   0  0  0  0  0  0  0  0  0  0  0  0
    0.1918    2.7055   -0.0735 H   0  0  0  0  0  0  0  0  0  0  0  0
    0.5578   -2.2824    0.0599 H   0  0  0  0  0  0  0  0  0  0  0  0
   -2.3047   -2.1102    0.0633 H   0  0  0  0  0  0  0  0  0  0  0  0
   -3.9300    0.0118    0.0106 H   0  0  0  0  0  0  0  0  0  0  0  0
   -2.4988    2.1615   -0.0513 H   0  0  0  0  0  0  0  0  0  0  0  0
  1  2  2  0
  2  3  1  0
  3  4  2  0
  4  5  1  0
  5  6  2  0
  6  7  1  0
  7  8  2  0
  7  9  1  0
  9 10  2  0
 10 11  1  0
  8  3  1  0
 11  6  1  0
  2 12  1  0
  4 13  1  0
  5 14  1  0
  8 15  1  0
  9 16  1  0
 10 17  1  0
 11 18  1  0
M  END
$$$$
