
     RDKit          3D

 46 47  0  0  0  0  0  0  0  0999 V2000
   -1.1912    4.9617    2.3417 C   0  0  0  0  0  0  0  0  0  0  0  0
   -1.2987    3.4765    2.4072 C   0  0  0  0  0  0  0  0  0  0  0  0
   -0.9435    2.8725    3.4555 O   0  0  0  0  0  0  0  0  0  0  0  0
   -1.8354    2.7780    1.3186 O   0  0  0  0  0  0  0  0  0  0  0  0
   -1.9728    1.3548    1.2651 C   0  0  1  0  0  0  0  0  0  0  0  0
   -3.3429    1.0384    0.7177 C   0  0  0  0  0  0  0  0  0  0  0  0
   -3.5945   -0.0361   -0.0443 C   0  0  0  0  0  0  0  0  0  0  0  0
   -2.5031   -0.9174   -0.6051 C   0  0  1  0  0  0  0  0  0  0  0  0
   -1.1786   -0.7750    0.1723 C   0  0  2  0  0  0  0  0  0  0  0  0
   -0.8332    0.7271    0.4120 C   0  0  1  0  0  0  0  0  0  0  0  0
   -0.7624    1.4249   -0.8126 O   0  0  0  0  0  0  0  0  0  0  0  0
    0.5094    0.8745    1.1761 C   0  0  0  0  0  0  0  0  0  0  0  0
    1.5930    0.3426    0.4190 O   0  0  0  0  0  0  0  0  0  0  0  0
    2.9131    0.3388    0.8806 C   0  0  0  0  0  0  0  0  0  0  0  0
    3.1894    0.8317    2.0092 O   0  0  0  0  0  0  0  0  0  0  0  0
    3.9818   -0.2459    0.0418 C   0  0  0  0  0  0  0  0  0  0  0  0
    3.6740   -0.8004   -1.2142 C   0  0  0  0  0  0  0  0  0  0  0  0
    4.6823   -1.3550   -2.0087 C   0  0  0  0  0  0  0  0  0  0  0  0
    6.0048   -1.3621   -1.5597 C   0  0  0  0  0  0  0  0  0  0  0  0
    6.3222   -0.8144   -0.3146 C   0  0  0  0  0  0  0  0  0  0  0  0
    5.3181   -0.2586    0.4844 C   0  0  0  0  0  0  0  0  0  0  0  0
   -0.1529   -1.4117   -0.5485 O   0  0  0  0  0  0  0  0  0  0  0  0
   -2.9184   -2.2835   -0.5688 O   0  0  0  0  0  0  0  0  0  0  0  0
   -3.8654   -2.8279   -1.4439 C   0  0  0  0  0  0  0  0  0  0  0  0
   -4.3686   -2.1312   -2.3668 O   0  0  0  0  0  0  0  0  0  0  0  0
   -4.2404   -4.2649   -1.3166 C   0  0  0  0  0  0  0  0  0  0  0  0
   -1.1547    5.2926    1.2827 H   0  0  0  0  0  0  0  0  0  0  0  0
   -0.2661    5.2997    2.8546 H   0  0  0  0  0  0  0  0  0  0  0  0
   -2.0734    5.4185    2.8363 H   0  0  0  0  0  0  0  0  0  0  0  0
   -1.9484    0.9241    2.2914 H   0  0  0  0  0  0  0  0  0  0  0  0
   -4.1809    1.6439    1.0510 H   0  0  0  0  0  0  0  0  0  0  0  0
   -4.6176   -0.2131   -0.3620 H   0  0  0  0  0  0  0  0  0  0  0  0
   -2.3235   -0.6150   -1.6612 H   0  0  0  0  0  0  0  0  0  0  0  0
   -1.2926   -1.2675    1.1687 H   0  0  0  0  0  0  0  0  0  0  0  0
   -0.0694    0.9945   -1.3775 H   0  0  0  0  0  0  0  0  0  0  0  0
    0.4493    0.3453    2.1528 H   0  0  0  0  0  0  0  0  0  0  0  0
    0.7157    1.9485    1.3691 H   0  0  0  0  0  0  0  0  0  0  0  0
    2.6562   -0.8066   -1.5836 H   0  0  0  0  0  0  0  0  0  0  0  0
    4.4375   -1.7798   -2.9738 H   0  0  0  0  0  0  0  0  0  0  0  0
    6.7835   -1.7919   -2.1764 H   0  0  0  0  0  0  0  0  0  0  0  0
    7.3475   -0.8206    0.0322 H   0  0  0  0  0  0  0  0  0  0  0  0
    5.5876    0.1601    1.4460 H   0  0  0  0  0  0  0  0  0  0  0  0
   -0.2346   -2.3854   -0.3729 H   0  0  0  0  0  0  0  0  0  0  0  0
   -3.6288   -4.8700   -2.0176 H   0  0  0  0  0  0  0  0  0  0  0  0
   -4.0573   -4.6136   -0.2787 H   0  0  0  0  0  0  0  0  0  0  0  0
   -5.3162   -4.4011   -1.5559 H   0  0  0  0  0  0  0  0  0  0  0  0
  1  2  1  0
  2  3  2  0
  2  4  1  0
  4  5  1  0
  5  6  1  0
  6  7  2  0
  7  8  1  0
  8  9  1  0
  9 10  1  0
 10 11  1  6
 10 12  1  0
 12 13  1  0
 13 14  1  0
 14 15  2  0
 14 16  1  0
 16 17  2  0
 17 18  1  0
 18 19  2  0
 19 20  1  0
 20 21  2  0
  9 22  1  0
  8 23  1  0
 23 24  1  0
 24 25  2  0
 24 26  1  0
 10  5  1  0
 21 16  1  0
  1 27  1  0
  1 28  1  0
  1 29  1  0
  5 30  1  1
  6 31  1  0
  7 32  1  0
  8 33  1  6
  9 34  1  1
 11 35  1  0
 12 36  1  0
 12 37  1  0
 17 38  1  0
 18 39  1  0
 19 40  1  0
 20 41  1  0
 21 42  1  0
 22 43  1  0
 26 44  1  0
 26 45  1  0
 26 46  1  0
M  END
$$$$
