
     RDKit          3D

 78 80  0  0  0  0  0  0  0  0999 V2000
   -2.8894   -0.3117    0.9687 C   0  0  0  0  0  0  0  0  0  0  0  0
   -4.3107    0.0500    0.6064 C   0  0  0  0  0  0  0  0  0  0  0  0
   -4.6010    0.8210   -0.4662 C   0  0  0  0  0  0  0  0  0  0  0  0
   -3.5710    1.3830   -1.4168 C   0  0  0  0  0  0  0  0  0  0  0  0
   -2.9281    0.3076   -2.2641 C   0  0  0  0  0  0  0  0  0  0  0  0
   -3.6949   -0.5212   -2.9909 C   0  0  0  0  0  0  0  0  0  0  0  0
   -3.0856   -1.5686   -3.8226 C   0  0  0  0  0  0  0  0  0  0  0  0
   -3.8173   -2.3631   -4.4709 O   0  0  0  0  0  0  0  0  0  0  0  0
   -1.6201   -1.6878   -3.8996 C   0  0  0  0  0  0  0  0  0  0  0  0
   -0.8219   -0.8508   -3.2119 C   0  0  0  0  0  0  0  0  0  0  0  0
   -1.4460    0.1906   -2.3458 C   0  0  0  0  0  0  0  0  0  0  0  0
   -0.7193    0.9800   -1.6831 O   0  0  0  0  0  0  0  0  0  0  0  0
    0.6593   -0.9413   -3.3239 C   0  0  0  0  0  0  0  0  0  0  0  0
    1.4867   -0.1746   -2.6341 O   0  0  0  0  0  0  0  0  0  0  0  0
    2.7135   -0.4871   -2.9749 C   0  0  0  0  0  0  0  0  0  0  0  0
    2.7055   -1.4839   -3.9101 C   0  0  0  0  0  0  0  0  0  0  0  0
    1.3890   -1.7998   -4.1539 C   0  0  0  0  0  0  0  0  0  0  0  0
    3.8802   -2.0048   -4.4460 C   0  0  0  0  0  0  0  0  0  0  0  0
    5.1040   -1.4724   -3.9908 C   0  0  0  0  0  0  0  0  0  0  0  0
    5.1137   -0.4419   -3.0236 C   0  0  0  0  0  0  0  0  0  0  0  0
    3.9055    0.0716   -2.5029 C   0  0  0  0  0  0  0  0  0  0  0  0
    3.9109    1.1310   -1.4359 C   0  0  0  0  0  0  0  0  0  0  0  0
    4.2564    0.5073   -0.1070 C   0  0  0  0  0  0  0  0  0  0  0  0
    3.4115    0.3825    0.9413 C   0  0  0  0  0  0  0  0  0  0  0  0
    3.9012   -0.2950    2.2054 C   0  0  0  0  0  0  0  0  0  0  0  0
    4.6612    0.6710    3.1267 C   0  0  0  0  0  0  0  0  0  0  0  0
    5.9113    1.2249    2.4846 C   0  0  0  0  0  0  0  0  0  0  0  0
    7.0969    0.5799    2.4229 C   0  0  0  0  0  0  0  0  0  0  0  0
    8.2351    1.2414    1.6899 C   0  0  0  0  0  0  0  0  0  0  0  0
    7.3164   -0.7642    3.0762 C   0  0  0  0  0  0  0  0  0  0  0  0
    1.9935    0.8978    0.8912 C   0  0  0  0  0  0  0  0  0  0  0  0
    6.3118   -1.9578   -4.4843 O   0  0  0  0  0  0  0  0  0  0  0  0
   -5.4412   -0.4461    1.4776 C   0  0  0  0  0  0  0  0  0  0  0  0
   -5.8232    0.6091    2.5208 C   0  0  0  0  0  0  0  0  0  0  0  0
   -7.0694    0.1955    3.2653 C   0  0  0  0  0  0  0  0  0  0  0  0
   -8.3278    0.4855    2.8614 C   0  0  0  0  0  0  0  0  0  0  0  0
   -8.6004    1.3253    1.6340 C   0  0  0  0  0  0  0  0  0  0  0  0
   -9.4819   -0.0353    3.6783 C   0  0  0  0  0  0  0  0  0  0  0  0
   -2.4577   -0.9786    0.1953 H   0  0  0  0  0  0  0  0  0  0  0  0
   -2.8457   -0.8425    1.9422 H   0  0  0  0  0  0  0  0  0  0  0  0
   -2.2707    0.6057    1.0592 H   0  0  0  0  0  0  0  0  0  0  0  0
   -5.6410    1.0669   -0.6702 H   0  0  0  0  0  0  0  0  0  0  0  0
   -2.8208    1.9621   -0.8395 H   0  0  0  0  0  0  0  0  0  0  0  0
   -4.0703    2.1076   -2.0978 H   0  0  0  0  0  0  0  0  0  0  0  0
   -4.7744   -0.4354   -2.9667 H   0  0  0  0  0  0  0  0  0  0  0  0
   -1.2101   -2.4606   -4.5350 H   0  0  0  0  0  0  0  0  0  0  0  0
    1.0253   -2.5430   -4.8495 H   0  0  0  0  0  0  0  0  0  0  0  0
    3.8505   -2.7956   -5.1840 H   0  0  0  0  0  0  0  0  0  0  0  0
    6.0594   -0.0471   -2.6731 H   0  0  0  0  0  0  0  0  0  0  0  0
    2.9427    1.6716   -1.4198 H   0  0  0  0  0  0  0  0  0  0  0  0
    4.6856    1.8911   -1.6759 H   0  0  0  0  0  0  0  0  0  0  0  0
    5.2598    0.0988   -0.0207 H   0  0  0  0  0  0  0  0  0  0  0  0
    4.5291   -1.1714    1.9433 H   0  0  0  0  0  0  0  0  0  0  0  0
    3.0365   -0.7015    2.7728 H   0  0  0  0  0  0  0  0  0  0  0  0
    3.9870    1.5199    3.3775 H   0  0  0  0  0  0  0  0  0  0  0  0
    4.9115    0.1640    4.0813 H   0  0  0  0  0  0  0  0  0  0  0  0
    5.8242    2.2048    2.0225 H   0  0  0  0  0  0  0  0  0  0  0  0
    9.1451    0.6075    1.6836 H   0  0  0  0  0  0  0  0  0  0  0  0
    7.9420    1.4288    0.6347 H   0  0  0  0  0  0  0  0  0  0  0  0
    8.4859    2.2085    2.1753 H   0  0  0  0  0  0  0  0  0  0  0  0
    6.6534   -1.5288    2.6261 H   0  0  0  0  0  0  0  0  0  0  0  0
    7.1224   -0.6952    4.1661 H   0  0  0  0  0  0  0  0  0  0  0  0
    8.3608   -1.1104    2.9414 H   0  0  0  0  0  0  0  0  0  0  0  0
    1.4308    0.3784    0.0870 H   0  0  0  0  0  0  0  0  0  0  0  0
    1.9939    1.9925    0.7068 H   0  0  0  0  0  0  0  0  0  0  0  0
    1.4650    0.7207    1.8531 H   0  0  0  0  0  0  0  0  0  0  0  0
    6.3427   -2.6928   -5.1820 H   0  0  0  0  0  0  0  0  0  0  0  0
   -6.3169   -0.7025    0.8406 H   0  0  0  0  0  0  0  0  0  0  0  0
   -5.1436   -1.3847    1.9968 H   0  0  0  0  0  0  0  0  0  0  0  0
   -4.9898    0.7069    3.2514 H   0  0  0  0  0  0  0  0  0  0  0  0
   -5.9579    1.6058    2.0466 H   0  0  0  0  0  0  0  0  0  0  0  0
   -6.9311   -0.4079    4.1621 H   0  0  0  0  0  0  0  0  0  0  0  0
   -8.1828    2.3451    1.7761 H   0  0  0  0  0  0  0  0  0  0  0  0
   -9.6891    1.4235    1.4436 H   0  0  0  0  0  0  0  0  0  0  0  0
   -8.1397    0.8581    0.7388 H   0  0  0  0  0  0  0  0  0  0  0  0
  -10.4596    0.2157    3.2202 H   0  0  0  0  0  0  0  0  0  0  0  0
   -9.4162   -1.1402    3.7600 H   0  0  0  0  0  0  0  0  0  0  0  0
   -9.4507    0.4066    4.6955 H   0  0  0  0  0  0  0  0  0  0  0  0
  1  2  1  0
  2  3  2  0
  3  4  1  0
  4  5  1  0
  5  6  2  0
  6  7  1  0
  7  8  2  0
  7  9  1  0
  9 10  2  0
 10 11  1  0
 11 12  2  0
 10 13  1  0
 13 14  1  0
 14 15  1  0
 15 16  2  0
 16 17  1  0
 16 18  1  0
 18 19  2  0
 19 20  1  0
 20 21  2  0
 21 22  1  0
 22 23  1  0
 23 24  2  0
 24 25  1  0
 25 26  1  0
 26 27  1  0
 27 28  2  3
 28 29  1  0
 28 30  1  0
 24 31  1  0
 19 32  1  0
  2 33  1  0
 33 34  1  0
 34 35  1  0
 35 36  2  3
 36 37  1  0
 36 38  1  0
 11  5  1  0
 17 13  2  0
 21 15  1  0
  1 39  1  0
  1 40  1  0
  1 41  1  0
  3 42  1  0
  4 43  1  0
  4 44  1  0
  6 45  1  0
  9 46  1  0
 17 47  1  0
 18 48  1  0
 20 49  1  0
 22 50  1  0
 22 51  1  0
 23 52  1  0
 25 53  1  0
 25 54  1  0
 26 55  1  0
 26 56  1  0
 27 57  1  0
 29 58  1  0
 29 59  1  0
 29 60  1  0
 30 61  1  0
 30 62  1  0
 30 63  1  0
 31 64  1  0
 31 65  1  0
 31 66  1  0
 32 67  1  0
 33 68  1  0
 33 69  1  0
 34 70  1  0
 34 71  1  0
 35 72  1  0
 37 73  1  0
 37 74  1  0
 37 75  1  0
 38 76  1  0
 38 77  1  0
 38 78  1  0
M  END
$$$$
