
     RDKit          3D

 38 38  0  0  0  0  0  0  0  0999 V2000
    3.8930   -0.6460    0.1400 C   0  0  0  0  0  0  0  0  0  0  0  0
    3.7683    0.5300   -0.8008 C   0  0  0  0  0  0  0  0  0  0  0  0
    2.7583    1.4226   -0.7013 C   0  0  0  0  0  0  0  0  0  0  0  0
    1.6309    1.3246    0.2964 C   0  0  0  0  0  0  0  0  0  0  0  0
    0.4736    0.4816   -0.2726 C   0  0  0  0  0  0  0  0  0  0  0  0
   -0.6890    0.2274    0.7447 C   0  0  0  0  0  0  0  0  0  0  0  0
   -1.9834   -0.2670    0.0494 C   0  0  0  0  0  0  0  0  0  0  0  0
   -1.8828   -1.0660   -1.1169 C   0  0  0  0  0  0  0  0  0  0  0  0
   -3.0163   -1.5414   -1.7744 C   0  0  0  0  0  0  0  0  0  0  0  0
   -4.2821   -1.2590   -1.2787 C   0  0  0  0  0  0  0  0  0  0  0  0
   -4.4209   -0.5247   -0.1052 C   0  0  0  0  0  0  0  0  0  0  0  0
   -3.2934   -0.0508    0.5920 C   0  0  0  0  0  0  0  0  0  0  0  0
   -3.5503    0.6935    1.8807 C   0  0  0  0  0  0  0  0  0  0  0  0
   -0.9295    1.4246    1.4446 O   0  0  0  0  0  0  0  0  0  0  0  0
   -0.2560   -0.8491    1.7577 C   0  0  0  0  0  0  0  0  0  0  0  0
    4.8046    0.7346   -1.8755 C   0  0  0  0  0  0  0  0  0  0  0  0
    2.9853   -1.2811    0.0891 H   0  0  0  0  0  0  0  0  0  0  0  0
    4.0343   -0.2851    1.1801 H   0  0  0  0  0  0  0  0  0  0  0  0
    4.7647   -1.2824   -0.1184 H   0  0  0  0  0  0  0  0  0  0  0  0
    2.7257    2.2589   -1.3956 H   0  0  0  0  0  0  0  0  0  0  0  0
    1.9970    0.9177    1.2597 H   0  0  0  0  0  0  0  0  0  0  0  0
    1.2675    2.3549    0.4975 H   0  0  0  0  0  0  0  0  0  0  0  0
    0.8882   -0.4857   -0.6269 H   0  0  0  0  0  0  0  0  0  0  0  0
    0.0687    1.0173   -1.1603 H   0  0  0  0  0  0  0  0  0  0  0  0
   -0.9269   -1.3376   -1.5372 H   0  0  0  0  0  0  0  0  0  0  0  0
   -2.9103   -2.1354   -2.6733 H   0  0  0  0  0  0  0  0  0  0  0  0
   -5.1597   -1.6252   -1.7958 H   0  0  0  0  0  0  0  0  0  0  0  0
   -5.4200   -0.3376    0.2696 H   0  0  0  0  0  0  0  0  0  0  0  0
   -4.5681    0.4837    2.2738 H   0  0  0  0  0  0  0  0  0  0  0  0
   -3.4755    1.7868    1.7062 H   0  0  0  0  0  0  0  0  0  0  0  0
   -2.8424    0.3830    2.6738 H   0  0  0  0  0  0  0  0  0  0  0  0
   -1.2145    2.1063    0.7797 H   0  0  0  0  0  0  0  0  0  0  0  0
    0.0407   -1.7833    1.2339 H   0  0  0  0  0  0  0  0  0  0  0  0
   -1.0840   -1.0979    2.4529 H   0  0  0  0  0  0  0  0  0  0  0  0
    0.5993   -0.5003    2.3718 H   0  0  0  0  0  0  0  0  0  0  0  0
    4.3187    0.7112   -2.8739 H   0  0  0  0  0  0  0  0  0  0  0  0
    5.5851   -0.0541   -1.8504 H   0  0  0  0  0  0  0  0  0  0  0  0
    5.3009    1.7184   -1.7363 H   0  0  0  0  0  0  0  0  0  0  0  0
  1  2  1  0
  2  3  2  3
  3  4  1  0
  4  5  1  0
  5  6  1  0
  6  7  1  0
  7  8  2  0
  8  9  1  0
  9 10  2  0
 10 11  1  0
 11 12  2  0
 12 13  1  0
  6 14  1  0
  6 15  1  0
  2 16  1  0
 12  7  1  0
  1 17  1  0
  1 18  1  0
  1 19  1  0
  3 20  1  0
  4 21  1  0
  4 22  1  0
  5 23  1  0
  5 24  1  0
  8 25  1  0
  9 26  1  0
 10 27  1  0
 11 28  1  0
 13 29  1  0
 13 30  1  0
 13 31  1  0
 14 32  1  0
 15 33  1  0
 15 34  1  0
 15 35  1  0
 16 36  1  0
 16 37  1  0
 16 38  1  0
M  END
$$$$
