
     RDKit          3D

 39 42  0  0  0  0  0  0  0  0999 V2000
    3.7342    2.9283    1.0076 C   0  0  0  0  0  0  0  0  0  0  0  0
    2.4336    2.3508    0.9831 O   0  0  0  0  0  0  0  0  0  0  0  0
    2.0518    1.1452    0.3574 C   0  0  0  0  0  0  0  0  0  0  0  0
    2.9611    0.3210   -0.3588 C   0  0  0  0  0  0  0  0  0  0  0  0
    4.3099    0.6964   -0.4675 O   0  0  0  0  0  0  0  0  0  0  0  0
    5.3147   -0.0418   -1.1559 C   0  0  0  0  0  0  0  0  0  0  0  0
    2.4983   -0.8686   -0.9544 C   0  0  0  0  0  0  0  0  0  0  0  0
    1.1580   -1.2521   -0.8528 C   0  0  0  0  0  0  0  0  0  0  0  0
    0.2506   -0.4396   -0.1450 C   0  0  0  0  0  0  0  0  0  0  0  0
    0.6956    0.7575    0.4602 C   0  0  0  0  0  0  0  0  0  0  0  0
   -0.2320    1.5495    1.1631 C   0  0  0  0  0  0  0  0  0  0  0  0
   -1.5714    1.1670    1.2635 C   0  0  0  0  0  0  0  0  0  0  0  0
   -2.0251   -0.0182    0.6633 C   0  0  0  0  0  0  0  0  0  0  0  0
   -1.1063   -0.8277   -0.0428 C   0  0  0  0  0  0  0  0  0  0  0  0
   -1.5423   -2.0274   -0.6482 C   0  0  0  0  0  0  0  0  0  0  0  0
   -0.6272   -2.8253   -1.3487 C   0  0  0  0  0  0  0  0  0  0  0  0
    0.7114   -2.4406   -1.4508 C   0  0  0  0  0  0  0  0  0  0  0  0
   -2.8847   -2.4120   -0.5396 C   0  0  0  0  0  0  0  0  0  0  0  0
   -3.7976   -1.6174    0.1590 C   0  0  0  0  0  0  0  0  0  0  0  0
   -3.3767   -0.4121    0.7520 C   0  0  0  0  0  0  0  0  0  0  0  0
   -4.3006    0.3850    1.4327 O   0  0  0  0  0  0  0  0  0  0  0  0
   -5.0739    1.3637    0.7502 C   0  0  0  0  0  0  0  0  0  0  0  0
   -5.1214   -2.0461    0.2576 O   0  0  0  0  0  0  0  0  0  0  0  0
    3.6938    3.8755    1.5832 H   0  0  0  0  0  0  0  0  0  0  0  0
    4.4489    2.2467    1.5148 H   0  0  0  0  0  0  0  0  0  0  0  0
    4.0698    3.1656   -0.0238 H   0  0  0  0  0  0  0  0  0  0  0  0
    5.0525   -0.1338   -2.2311 H   0  0  0  0  0  0  0  0  0  0  0  0
    5.4304   -1.0476   -0.6997 H   0  0  0  0  0  0  0  0  0  0  0  0
    6.2802    0.4977   -1.0723 H   0  0  0  0  0  0  0  0  0  0  0  0
    3.1808   -1.5050   -1.5022 H   0  0  0  0  0  0  0  0  0  0  0  0
    0.0711    2.4722    1.6419 H   0  0  0  0  0  0  0  0  0  0  0  0
   -2.2494    1.8052    1.8164 H   0  0  0  0  0  0  0  0  0  0  0  0
   -0.9469   -3.7482   -1.8179 H   0  0  0  0  0  0  0  0  0  0  0  0
    1.3990   -3.0748   -1.9979 H   0  0  0  0  0  0  0  0  0  0  0  0
   -3.2276   -3.3344   -0.9942 H   0  0  0  0  0  0  0  0  0  0  0  0
   -4.4061    2.1188    0.2843 H   0  0  0  0  0  0  0  0  0  0  0  0
   -5.6932    0.8827   -0.0359 H   0  0  0  0  0  0  0  0  0  0  0  0
   -5.7418    1.8717    1.4756 H   0  0  0  0  0  0  0  0  0  0  0  0
   -5.8214   -1.5274    0.7736 H   0  0  0  0  0  0  0  0  0  0  0  0
  1  2  1  0
  2  3  1  0
  3  4  2  0
  4  5  1  0
  5  6  1  0
  4  7  1  0
  7  8  2  0
  8  9  1  0
  9 10  2  0
 10 11  1  0
 11 12  2  0
 12 13  1  0
 13 14  2  0
 14 15  1  0
 15 16  1  0
 16 17  2  0
 15 18  2  0
 18 19  1  0
 19 20  2  0
 20 21  1  0
 21 22  1  0
 19 23  1  0
 10  3  1  0
 20 13  1  0
 17  8  1  0
 14  9  1  0
  1 24  1  0
  1 25  1  0
  1 26  1  0
  6 27  1  0
  6 28  1  0
  6 29  1  0
  7 30  1  0
 11 31  1  0
 12 32  1  0
 16 33  1  0
 17 34  1  0
 18 35  1  0
 22 36  1  0
 22 37  1  0
 22 38  1  0
 23 39  1  0
M  END
$$$$
