
     RDKit          3D

 82 85  0  0  0  0  0  0  0  0999 V2000
   -8.1826    1.5574   -1.1640 C   0  0  0  0  0  0  0  0  0  0  0  0
   -7.4251    1.4408    0.1651 C   0  0  0  0  0  0  0  0  0  0  0  0
   -6.7039    0.1005    0.2862 C   0  0  0  0  0  0  0  0  0  0  0  0
   -7.4021   -1.0532    0.2100 C   0  0  0  0  0  0  0  0  0  0  0  0
   -5.1825    0.1371    0.3150 C   0  0  0  0  0  0  0  0  0  0  0  0
   -4.4823   -1.1752    0.7281 C   0  0  0  0  0  0  0  0  0  0  0  0
   -3.0002   -1.0143    1.2004 C   0  0  2  0  0  0  0  0  0  0  0  0
   -1.9978   -0.8101    0.0007 C   0  0  1  0  0  0  0  0  0  0  0  0
   -2.2461    0.5098   -0.7876 C   0  0  0  0  0  0  0  0  0  0  0  0
   -0.8816    1.0613   -1.2434 C   0  0  0  0  0  0  0  0  0  0  0  0
    0.0891   -0.0965   -1.0129 C   0  0  2  0  0  0  0  0  0  0  0  0
   -0.4651   -0.7327    0.3009 C   0  0  1  0  0  0  0  0  0  0  0  0
   -0.2255    0.1939    1.5499 C   0  0  0  0  0  0  0  0  0  0  0  0
    0.2989   -2.0642    0.5210 C   0  0  0  0  0  0  0  0  0  0  0  0
    1.8029   -1.8423    0.4721 C   0  0  0  0  0  0  0  0  0  0  0  0
    2.3985   -0.7318   -0.0528 C   0  0  0  0  0  0  0  0  0  0  0  0
    1.5583    0.2368   -0.8253 C   0  0  0  0  0  0  0  0  0  0  0  0
    2.1332    1.1972   -1.5532 C   0  0  0  0  0  0  0  0  0  0  0  0
    3.6135    1.2805   -1.6981 C   0  0  0  0  0  0  0  0  0  0  0  0
    4.3510    0.9561   -0.3719 C   0  0  0  0  0  0  0  0  0  0  0  0
    3.9123   -0.4779    0.1636 C   0  0  1  0  0  0  0  0  0  0  0  0
    4.1468   -0.5164    1.7044 C   0  0  0  0  0  0  0  0  0  0  0  0
    4.7017   -1.6389   -0.5364 C   0  0  0  0  0  0  0  0  0  0  0  0
    5.9671   -1.2162   -1.2915 C   0  0  0  0  0  0  0  0  0  0  0  0
    6.7576   -0.1404   -0.5408 C   0  0  1  0  0  0  0  0  0  0  0  0
    5.9407    1.2012   -0.4407 C   0  0  0  0  0  0  0  0  0  0  0  0
    6.3975    2.0192    0.7982 C   0  0  0  0  0  0  0  0  0  0  0  0
    6.3576    2.0754   -1.6645 C   0  0  0  0  0  0  0  0  0  0  0  0
    7.1526   -0.6272    0.7198 O   0  0  0  0  0  0  0  0  0  0  0  0
    0.0237   -1.0232   -2.2731 C   0  0  0  0  0  0  0  0  0  0  0  0
   -2.6398   -2.2705    2.0254 C   0  0  0  0  0  0  0  0  0  0  0  0
   -8.3495    1.6965    1.3660 C   0  0  0  0  0  0  0  0  0  0  0  0
   -7.5138    1.2800   -2.0087 H   0  0  0  0  0  0  0  0  0  0  0  0
   -8.5295    2.6068   -1.3152 H   0  0  0  0  0  0  0  0  0  0  0  0
   -9.0689    0.8859   -1.1798 H   0  0  0  0  0  0  0  0  0  0  0  0
   -6.6715    2.2618    0.1708 H   0  0  0  0  0  0  0  0  0  0  0  0
   -8.4856   -1.0481    0.1402 H   0  0  0  0  0  0  0  0  0  0  0  0
   -6.9179   -2.0254    0.2020 H   0  0  0  0  0  0  0  0  0  0  0  0
   -4.8696    0.9471    1.0131 H   0  0  0  0  0  0  0  0  0  0  0  0
   -4.8732    0.4183   -0.7105 H   0  0  0  0  0  0  0  0  0  0  0  0
   -4.5315   -1.8972   -0.1110 H   0  0  0  0  0  0  0  0  0  0  0  0
   -5.0738   -1.5993    1.5636 H   0  0  0  0  0  0  0  0  0  0  0  0
   -2.9439   -0.1424    1.8877 H   0  0  0  0  0  0  0  0  0  0  0  0
   -2.1729   -1.6665   -0.6869 H   0  0  0  0  0  0  0  0  0  0  0  0
   -2.8702    0.3101   -1.6825 H   0  0  0  0  0  0  0  0  0  0  0  0
   -2.7382    1.2754   -0.1531 H   0  0  0  0  0  0  0  0  0  0  0  0
   -0.9174    1.3952   -2.3029 H   0  0  0  0  0  0  0  0  0  0  0  0
   -0.6001    1.9422   -0.6256 H   0  0  0  0  0  0  0  0  0  0  0  0
    0.8252    0.5389    1.6421 H   0  0  0  0  0  0  0  0  0  0  0  0
   -0.4574   -0.3323    2.4976 H   0  0  0  0  0  0  0  0  0  0  0  0
   -0.8613    1.1034    1.5239 H   0  0  0  0  0  0  0  0  0  0  0  0
    0.0701   -2.4967    1.5130 H   0  0  0  0  0  0  0  0  0  0  0  0
    0.0058   -2.8342   -0.2221 H   0  0  0  0  0  0  0  0  0  0  0  0
    2.4046   -2.6180    0.9283 H   0  0  0  0  0  0  0  0  0  0  0  0
    1.5334    1.8457   -2.1790 H   0  0  0  0  0  0  0  0  0  0  0  0
    3.8206    2.3158   -2.0322 H   0  0  0  0  0  0  0  0  0  0  0  0
    3.9231    0.5798   -2.5021 H   0  0  0  0  0  0  0  0  0  0  0  0
    3.9333    1.7078    0.3421 H   0  0  0  0  0  0  0  0  0  0  0  0
    3.5624    0.2815    2.2117 H   0  0  0  0  0  0  0  0  0  0  0  0
    3.8542   -1.4846    2.1578 H   0  0  0  0  0  0  0  0  0  0  0  0
    5.1993   -0.3957    1.9830 H   0  0  0  0  0  0  0  0  0  0  0  0
    4.0568   -2.1621   -1.2762 H   0  0  0  0  0  0  0  0  0  0  0  0
    4.9839   -2.4128    0.2100 H   0  0  0  0  0  0  0  0  0  0  0  0
    6.6128   -2.1093   -1.4538 H   0  0  0  0  0  0  0  0  0  0  0  0
    5.6954   -0.8386   -2.3017 H   0  0  0  0  0  0  0  0  0  0  0  0
    7.6917    0.0395   -1.1273 H   0  0  0  0  0  0  0  0  0  0  0  0
    7.5057    2.1439    0.8098 H   0  0  0  0  0  0  0  0  0  0  0  0
    5.9417    3.0311    0.7848 H   0  0  0  0  0  0  0  0  0  0  0  0
    6.1007    1.5520    1.7501 H   0  0  0  0  0  0  0  0  0  0  0  0
    7.4508    2.2822   -1.6547 H   0  0  0  0  0  0  0  0  0  0  0  0
    5.8599    3.0689   -1.6463 H   0  0  0  0  0  0  0  0  0  0  0  0
    6.1365    1.5641   -2.6234 H   0  0  0  0  0  0  0  0  0  0  0  0
    7.8452   -1.3261    0.5600 H   0  0  0  0  0  0  0  0  0  0  0  0
    0.6762   -1.9169   -2.1747 H   0  0  0  0  0  0  0  0  0  0  0  0
   -1.0034   -1.3634   -2.5157 H   0  0  0  0  0  0  0  0  0  0  0  0
    0.3879   -0.4693   -3.1678 H   0  0  0  0  0  0  0  0  0  0  0  0
   -2.4594   -3.1419    1.3603 H   0  0  0  0  0  0  0  0  0  0  0  0
   -3.4454   -2.5380    2.7417 H   0  0  0  0  0  0  0  0  0  0  0  0
   -1.7585   -2.0966    2.6639 H   0  0  0  0  0  0  0  0  0  0  0  0
   -8.8366    2.6936    1.2617 H   0  0  0  0  0  0  0  0  0  0  0  0
   -7.7560    1.6931    2.3077 H   0  0  0  0  0  0  0  0  0  0  0  0
   -9.1401    0.9187    1.4366 H   0  0  0  0  0  0  0  0  0  0  0  0
  1  2  1  0
  2  3  1  0
  3  4  2  3
  3  5  1  0
  5  6  1  0
  6  7  1  0
  7  8  1  0
  8  9  1  0
  9 10  1  0
 10 11  1  0
 11 12  1  0
 12 13  1  1
 12 14  1  0
 14 15  1  0
 15 16  2  0
 16 17  1  0
 17 18  2  0
 18 19  1  0
 19 20  1  0
 20 21  1  0
 21 22  1  1
 21 23  1  0
 23 24  1  0
 24 25  1  0
 25 26  1  0
 26 27  1  0
 26 28  1  0
 25 29  1  0
 11 30  1  6
  7 31  1  0
  2 32  1  0
 12  8  1  0
 21 16  1  0
 17 11  1  0
 26 20  1  0
  1 33  1  0
  1 34  1  0
  1 35  1  0
  2 36  1  0
  4 37  1  0
  4 38  1  0
  5 39  1  0
  5 40  1  0
  6 41  1  0
  6 42  1  0
  7 43  1  1
  8 44  1  6
  9 45  1  0
  9 46  1  0
 10 47  1  0
 10 48  1  0
 13 49  1  0
 13 50  1  0
 13 51  1  0
 14 52  1  0
 14 53  1  0
 15 54  1  0
 18 55  1  0
 19 56  1  0
 19 57  1  0
 20 58  1  0
 22 59  1  0
 22 60  1  0
 22 61  1  0
 23 62  1  0
 23 63  1  0
 24 64  1  0
 24 65  1  0
 25 66  1  6
 27 67  1  0
 27 68  1  0
 27 69  1  0
 28 70  1  0
 28 71  1  0
 28 72  1  0
 29 73  1  0
 30 74  1  0
 30 75  1  0
 30 76  1  0
 31 77  1  0
 31 78  1  0
 31 79  1  0
 32 80  1  0
 32 81  1  0
 32 82  1  0
M  END
$$$$
