
     RDKit          3D

 45 47  0  0  0  0  0  0  0  0999 V2000
   -2.6255   -1.3498    0.7690 O   0  0  0  0  0  0  0  0  0  0  0  0
   -3.2287   -0.0853    0.6326 C   0  0  0  0  0  0  0  0  0  0  0  0
   -4.7719   -0.2544    0.4586 C   0  0  0  0  0  0  0  0  0  0  0  0
   -5.2394   -0.9804    1.5736 O   0  0  0  0  0  0  0  0  0  0  0  0
   -5.1113   -1.0365   -0.8307 C   0  0  0  0  0  0  0  0  0  0  0  0
   -5.4792    1.1192    0.4343 C   0  0  0  0  0  0  0  0  0  0  0  0
   -2.5342    0.6728   -0.5194 C   0  0  0  0  0  0  0  0  0  0  0  0
   -1.0800    0.8915   -0.2150 C   0  0  0  0  0  0  0  0  0  0  0  0
   -0.5396    1.9401    0.5236 C   0  0  0  0  0  0  0  0  0  0  0  0
    0.7964    1.7812    0.6619 N   0  0  0  0  0  0  0  0  0  0  0  0
    1.1015    0.6352    0.0279 C   0  0  0  0  0  0  0  0  0  0  0  0
   -0.0185    0.0598   -0.5160 C   0  0  0  0  0  0  0  0  0  0  0  0
    0.0381   -1.1527   -1.2062 C   0  0  0  0  0  0  0  0  0  0  0  0
    1.2916   -1.7794   -1.3359 C   0  0  0  0  0  0  0  0  0  0  0  0
    2.4492   -1.1830   -0.7818 C   0  0  0  0  0  0  0  0  0  0  0  0
    2.3558    0.0399   -0.0930 C   0  0  0  0  0  0  0  0  0  0  0  0
    3.4978    0.6166    0.4694 O   0  0  0  0  0  0  0  0  0  0  0  0
    4.8291    0.1907    0.1392 C   0  0  0  0  0  0  0  0  0  0  0  0
    4.8566   -1.2363   -0.3874 C   0  0  0  0  0  0  0  0  0  0  0  0
    3.7618   -1.8389   -0.8630 C   0  0  0  0  0  0  0  0  0  0  0  0
    5.3869    1.1284   -0.9388 C   0  0  0  0  0  0  0  0  0  0  0  0
    5.6888    0.2812    1.4049 C   0  0  0  0  0  0  0  0  0  0  0  0
   -2.6992   -1.6104    1.7242 H   0  0  0  0  0  0  0  0  0  0  0  0
   -3.0555    0.5074    1.5641 H   0  0  0  0  0  0  0  0  0  0  0  0
   -6.2193   -1.1125    1.4766 H   0  0  0  0  0  0  0  0  0  0  0  0
   -4.5842   -2.0139   -0.8462 H   0  0  0  0  0  0  0  0  0  0  0  0
   -6.2032   -1.2344   -0.8874 H   0  0  0  0  0  0  0  0  0  0  0  0
   -4.8317   -0.4615   -1.7379 H   0  0  0  0  0  0  0  0  0  0  0  0
   -5.2419    1.6846   -0.4903 H   0  0  0  0  0  0  0  0  0  0  0  0
   -5.1818    1.7256    1.3163 H   0  0  0  0  0  0  0  0  0  0  0  0
   -6.5821    0.9875    0.4633 H   0  0  0  0  0  0  0  0  0  0  0  0
   -3.0005    1.6672   -0.6712 H   0  0  0  0  0  0  0  0  0  0  0  0
   -2.6209    0.1065   -1.4695 H   0  0  0  0  0  0  0  0  0  0  0  0
   -1.0963    2.7665    0.9458 H   0  0  0  0  0  0  0  0  0  0  0  0
    1.4512    2.4158    1.1707 H   0  0  0  0  0  0  0  0  0  0  0  0
   -0.8514   -1.6053   -1.6242 H   0  0  0  0  0  0  0  0  0  0  0  0
    1.3609   -2.7255   -1.8581 H   0  0  0  0  0  0  0  0  0  0  0  0
    5.8092   -1.7457   -0.4755 H   0  0  0  0  0  0  0  0  0  0  0  0
    3.8446   -2.8283   -1.2960 H   0  0  0  0  0  0  0  0  0  0  0  0
    5.3788    2.1791   -0.5774 H   0  0  0  0  0  0  0  0  0  0  0  0
    4.7614    1.0726   -1.8558 H   0  0  0  0  0  0  0  0  0  0  0  0
    6.4304    0.8505   -1.2032 H   0  0  0  0  0  0  0  0  0  0  0  0
    6.7417   -0.0040    1.1907 H   0  0  0  0  0  0  0  0  0  0  0  0
    5.6763    1.3175    1.8060 H   0  0  0  0  0  0  0  0  0  0  0  0
    5.2880   -0.3988    2.1871 H   0  0  0  0  0  0  0  0  0  0  0  0
  1  2  1  0
  2  3  1  0
  3  4  1  0
  3  5  1  0
  3  6  1  0
  2  7  1  0
  7  8  1  0
  8  9  2  0
  9 10  1  0
 10 11  1  0
 11 12  2  0
 12 13  1  0
 13 14  2  0
 14 15  1  0
 15 16  2  0
 16 17  1  0
 17 18  1  0
 18 19  1  0
 19 20  2  0
 18 21  1  0
 18 22  1  0
 12  8  1  0
 20 15  1  0
 16 11  1  0
  1 23  1  0
  2 24  1  0
  4 25  1  0
  5 26  1  0
  5 27  1  0
  5 28  1  0
  6 29  1  0
  6 30  1  0
  6 31  1  0
  7 32  1  0
  7 33  1  0
  9 34  1  0
 10 35  1  0
 13 36  1  0
 14 37  1  0
 19 38  1  0
 20 39  1  0
 21 40  1  0
 21 41  1  0
 21 42  1  0
 22 43  1  0
 22 44  1  0
 22 45  1  0
M  END
$$$$
