
     RDKit          3D

 42 45  0  0  0  0  0  0  0  0999 V2000
    5.4496   -0.0768   -1.1965 C   0  0  0  0  0  0  0  0  0  0  0  0
    4.5241   -0.0831    0.0251 C   0  0  0  0  0  0  0  0  0  0  0  0
    5.0675   -1.0477    1.0867 C   0  0  0  0  0  0  0  0  0  0  0  0
    4.4626    1.3168    0.6176 C   0  0  0  0  0  0  0  0  0  0  0  0
    3.3198    1.8501    1.0623 C   0  0  0  0  0  0  0  0  0  0  0  0
    2.0430    1.1452    0.8824 C   0  0  0  0  0  0  0  0  0  0  0  0
    2.0381   -0.0461    0.1342 C   0  0  0  0  0  0  0  0  0  0  0  0
    3.2311   -0.5473   -0.3936 O   0  0  0  0  0  0  0  0  0  0  0  0
    0.8186   -0.6862   -0.0794 C   0  0  0  0  0  0  0  0  0  0  0  0
    0.5947   -1.8104   -0.7826 N   0  0  0  0  0  0  0  0  0  0  0  0
   -0.7389   -2.0290   -0.7227 C   0  0  0  0  0  0  0  0  0  0  0  0
   -1.3590   -1.0414    0.0368 C   0  0  0  0  0  0  0  0  0  0  0  0
   -0.3508   -0.1842    0.4315 C   0  0  0  0  0  0  0  0  0  0  0  0
   -0.3832    0.9956    1.1768 C   0  0  0  0  0  0  0  0  0  0  0  0
    0.8336    1.6666    1.4011 C   0  0  0  0  0  0  0  0  0  0  0  0
   -2.8296   -0.8903    0.2767 C   0  0  0  0  0  0  0  0  0  0  0  0
   -3.4239    0.1087   -0.7238 C   0  0  0  0  0  0  0  0  0  0  0  0
   -4.2880   -0.5202   -1.6503 O   0  0  0  0  0  0  0  0  0  0  0  0
   -4.8958    0.3402   -0.7127 C   0  0  0  0  0  0  0  0  0  0  0  0
   -5.8029   -0.4062    0.2716 C   0  0  0  0  0  0  0  0  0  0  0  0
   -5.4117    1.6270   -1.3553 C   0  0  0  0  0  0  0  0  0  0  0  0
    5.0594    0.6230   -1.9666 H   0  0  0  0  0  0  0  0  0  0  0  0
    5.5028   -1.0921   -1.6451 H   0  0  0  0  0  0  0  0  0  0  0  0
    6.4769    0.2411   -0.9146 H   0  0  0  0  0  0  0  0  0  0  0  0
    4.3947   -1.0622    1.9712 H   0  0  0  0  0  0  0  0  0  0  0  0
    5.1236   -2.0793    0.6774 H   0  0  0  0  0  0  0  0  0  0  0  0
    6.0831   -0.7399    1.4178 H   0  0  0  0  0  0  0  0  0  0  0  0
    5.3862    1.8603    0.7789 H   0  0  0  0  0  0  0  0  0  0  0  0
    3.3373    2.8201    1.5441 H   0  0  0  0  0  0  0  0  0  0  0  0
    1.3006   -2.3919   -1.2867 H   0  0  0  0  0  0  0  0  0  0  0  0
   -1.2381   -2.8546   -1.2130 H   0  0  0  0  0  0  0  0  0  0  0  0
   -1.3132    1.3898    1.5653 H   0  0  0  0  0  0  0  0  0  0  0  0
    0.8348    2.5890    1.9682 H   0  0  0  0  0  0  0  0  0  0  0  0
   -2.9940   -0.5161    1.3093 H   0  0  0  0  0  0  0  0  0  0  0  0
   -3.3097   -1.8890    0.1904 H   0  0  0  0  0  0  0  0  0  0  0  0
   -2.7812    0.8787   -1.2037 H   0  0  0  0  0  0  0  0  0  0  0  0
   -6.8660   -0.2715   -0.0183 H   0  0  0  0  0  0  0  0  0  0  0  0
   -5.6587    0.0072    1.2914 H   0  0  0  0  0  0  0  0  0  0  0  0
   -5.5941   -1.4962    0.2857 H   0  0  0  0  0  0  0  0  0  0  0  0
   -4.7057    2.0165   -2.1202 H   0  0  0  0  0  0  0  0  0  0  0  0
   -6.3882    1.4341   -1.8469 H   0  0  0  0  0  0  0  0  0  0  0  0
   -5.5497    2.3995   -0.5706 H   0  0  0  0  0  0  0  0  0  0  0  0
  1  2  1  0
  2  3  1  0
  2  4  1  0
  4  5  2  0
  5  6  1  0
  6  7  2  0
  7  8  1  0
  7  9  1  0
  9 10  1  0
 10 11  1  0
 11 12  2  0
 12 13  1  0
 13 14  1  0
 14 15  2  0
 12 16  1  0
 16 17  1  0
 17 18  1  0
 18 19  1  0
 19 20  1  0
 19 21  1  0
  8  2  1  0
 13  9  2  0
 19 17  1  0
 15  6  1  0
  1 22  1  0
  1 23  1  0
  1 24  1  0
  3 25  1  0
  3 26  1  0
  3 27  1  0
  4 28  1  0
  5 29  1  0
 10 30  1  0
 11 31  1  0
 14 32  1  0
 15 33  1  0
 16 34  1  0
 16 35  1  0
 17 36  1  0
 20 37  1  0
 20 38  1  0
 20 39  1  0
 21 40  1  0
 21 41  1  0
 21 42  1  0
M  END
$$$$
