
     RDKit          3D

 60 63  0  0  0  0  0  0  0  0999 V2000
   11.6439   -2.5416    1.3094 O   0  0  0  0  0  0  0  0  0  0  0  0
   10.5840   -1.6525    1.1483 C   0  0  0  0  0  0  0  0  0  0  0  0
    9.5360   -1.9766    0.2824 C   0  0  0  0  0  0  0  0  0  0  0  0
    8.4616   -1.0972    0.1139 C   0  0  0  0  0  0  0  0  0  0  0  0
    8.4192    0.1217    0.8227 C   0  0  0  0  0  0  0  0  0  0  0  0
    9.4871    0.4450    1.6772 C   0  0  0  0  0  0  0  0  0  0  0  0
   10.5591   -0.4374    1.8427 C   0  0  0  0  0  0  0  0  0  0  0  0
    7.3093    1.0955    0.6736 C   0  0  0  0  0  0  0  0  0  0  0  0
    6.0909    0.7718    0.2171 C   0  0  0  0  0  0  0  0  0  0  0  0
    5.0046    1.7687    0.0961 C   0  0  0  0  0  0  0  0  0  0  0  0
    5.1480    2.9195    0.5931 O   0  0  0  0  0  0  0  0  0  0  0  0
    3.7219    1.4233   -0.5599 C   0  0  0  0  0  0  0  0  0  0  0  0
    2.5212    1.8962   -0.0040 C   0  0  0  0  0  0  0  0  0  0  0  0
    1.2863    1.5716   -0.5753 C   0  0  0  0  0  0  0  0  0  0  0  0
    0.1190    2.0570    0.0304 O   0  0  0  0  0  0  0  0  0  0  0  0
   -1.0411    1.3024    0.2592 C   0  0  0  0  0  0  0  0  0  0  0  0
   -1.0032   -0.0955    0.3997 C   0  0  0  0  0  0  0  0  0  0  0  0
   -2.1790   -0.8125    0.6368 C   0  0  0  0  0  0  0  0  0  0  0  0
   -3.4128   -0.1497    0.7357 C   0  0  0  0  0  0  0  0  0  0  0  0
   -3.4408    1.2545    0.6259 C   0  0  0  0  0  0  0  0  0  0  0  0
   -2.2623    1.9695    0.3925 C   0  0  0  0  0  0  0  0  0  0  0  0
   -4.6336   -0.9513    0.9923 C   0  0  0  0  0  0  0  0  0  0  0  0
   -5.8686   -0.5425    0.6678 C   0  0  0  0  0  0  0  0  0  0  0  0
   -7.0651   -1.3701    0.9341 C   0  0  0  0  0  0  0  0  0  0  0  0
   -6.9752   -2.3796    1.6861 O   0  0  0  0  0  0  0  0  0  0  0  0
   -8.3885   -1.0024    0.3790 C   0  0  0  0  0  0  0  0  0  0  0  0
   -9.5334   -1.1613    1.1794 C   0  0  0  0  0  0  0  0  0  0  0  0
  -10.7961   -0.8158    0.6914 C   0  0  0  0  0  0  0  0  0  0  0  0
  -10.9368   -0.3165   -0.6051 C   0  0  0  0  0  0  0  0  0  0  0  0
   -9.8075   -0.1711   -1.4197 C   0  0  0  0  0  0  0  0  0  0  0  0
   -8.5353   -0.5206   -0.9411 C   0  0  0  0  0  0  0  0  0  0  0  0
   -7.4294   -0.4132   -1.7849 O   0  0  0  0  0  0  0  0  0  0  0  0
  -12.2021    0.0276   -1.0761 O   0  0  0  0  0  0  0  0  0  0  0  0
    1.2463    0.8074   -1.7557 C   0  0  0  0  0  0  0  0  0  0  0  0
    2.4389    0.3436   -2.3238 C   0  0  0  0  0  0  0  0  0  0  0  0
    3.6753    0.6521   -1.7404 C   0  0  0  0  0  0  0  0  0  0  0  0
    4.8520    0.2190   -2.3520 O   0  0  0  0  0  0  0  0  0  0  0  0
    0.0272    0.5347   -2.3752 O   0  0  0  0  0  0  0  0  0  0  0  0
   12.4150   -2.3387    1.9349 H   0  0  0  0  0  0  0  0  0  0  0  0
    9.5558   -2.9104   -0.2645 H   0  0  0  0  0  0  0  0  0  0  0  0
    7.6858   -1.3691   -0.5878 H   0  0  0  0  0  0  0  0  0  0  0  0
    9.4878    1.3799    2.2249 H   0  0  0  0  0  0  0  0  0  0  0  0
   11.3687   -0.1750    2.5120 H   0  0  0  0  0  0  0  0  0  0  0  0
    7.4991    2.1164    0.9845 H   0  0  0  0  0  0  0  0  0  0  0  0
    5.8607   -0.2521   -0.0402 H   0  0  0  0  0  0  0  0  0  0  0  0
    2.5390    2.4959    0.8985 H   0  0  0  0  0  0  0  0  0  0  0  0
   -0.0642   -0.6304    0.3398 H   0  0  0  0  0  0  0  0  0  0  0  0
   -2.1254   -1.8898    0.7405 H   0  0  0  0  0  0  0  0  0  0  0  0
   -4.3608    1.8089    0.7477 H   0  0  0  0  0  0  0  0  0  0  0  0
   -2.2983    3.0487    0.3145 H   0  0  0  0  0  0  0  0  0  0  0  0
   -4.5010   -1.9402    1.4167 H   0  0  0  0  0  0  0  0  0  0  0  0
   -6.0140    0.4141    0.1857 H   0  0  0  0  0  0  0  0  0  0  0  0
   -9.4483   -1.5391    2.1913 H   0  0  0  0  0  0  0  0  0  0  0  0
  -11.6673   -0.9353    1.3234 H   0  0  0  0  0  0  0  0  0  0  0  0
   -9.9190    0.2034   -2.4298 H   0  0  0  0  0  0  0  0  0  0  0  0
   -7.5164   -0.0775   -2.7372 H   0  0  0  0  0  0  0  0  0  0  0  0
  -12.3381    0.3915   -2.0124 H   0  0  0  0  0  0  0  0  0  0  0  0
    2.4064   -0.2401   -3.2354 H   0  0  0  0  0  0  0  0  0  0  0  0
    4.8391   -0.3273   -3.2056 H   0  0  0  0  0  0  0  0  0  0  0  0
   -0.0256   -0.0075   -3.2296 H   0  0  0  0  0  0  0  0  0  0  0  0
  1  2  1  0
  2  3  2  0
  3  4  1  0
  4  5  2  0
  5  6  1  0
  6  7  2  0
  5  8  1  0
  8  9  2  0
  9 10  1  0
 10 11  2  0
 10 12  1  0
 12 13  2  0
 13 14  1  0
 14 15  1  0
 15 16  1  0
 16 17  2  0
 17 18  1  0
 18 19  2  0
 19 20  1  0
 20 21  2  0
 19 22  1  0
 22 23  2  0
 23 24  1  0
 24 25  2  0
 24 26  1  0
 26 27  2  0
 27 28  1  0
 28 29  2  0
 29 30  1  0
 30 31  2  0
 31 32  1  0
 29 33  1  0
 14 34  2  0
 34 35  1  0
 35 36  2  0
 36 37  1  0
 34 38  1  0
  7  2  1  0
 36 12  1  0
 21 16  1  0
 31 26  1  0
  1 39  1  0
  3 40  1  0
  4 41  1  0
  6 42  1  0
  7 43  1  0
  8 44  1  0
  9 45  1  0
 13 46  1  0
 17 47  1  0
 18 48  1  0
 20 49  1  0
 21 50  1  0
 22 51  1  0
 23 52  1  0
 27 53  1  0
 28 54  1  0
 30 55  1  0
 32 56  1  0
 33 57  1  0
 35 58  1  0
 37 59  1  0
 38 60  1  0
M  END
$$$$
