
     RDKit          3D

 30 31  0  0  0  0  0  0  0  0999 V2000
   -4.3823   -0.0391    2.2965 O   0  0  0  0  0  0  0  0  0  0  0  0
   -3.6771    0.2040    1.1199 C   0  0  0  0  0  0  0  0  0  0  0  0
   -3.8840    1.3830    0.3958 C   0  0  0  0  0  0  0  0  0  0  0  0
   -3.1693    1.6169   -0.7804 C   0  0  0  0  0  0  0  0  0  0  0  0
   -2.2417    0.6789   -1.2482 C   0  0  0  0  0  0  0  0  0  0  0  0
   -2.0299   -0.5188   -0.5239 C   0  0  0  0  0  0  0  0  0  0  0  0
   -2.7540   -0.7403    0.6613 C   0  0  0  0  0  0  0  0  0  0  0  0
   -1.0292   -1.5508   -0.9816 C   0  0  0  0  0  0  0  0  0  0  0  0
    0.2955   -1.0271   -0.9134 O   0  0  0  0  0  0  0  0  0  0  0  0
    0.9681   -0.7849    0.2910 C   0  0  0  0  0  0  0  0  0  0  0  0
    0.4295   -1.0933    1.3900 O   0  0  0  0  0  0  0  0  0  0  0  0
    2.3123   -0.1679    0.2704 C   0  0  0  0  0  0  0  0  0  0  0  0
    3.0141    0.0673    1.4679 C   0  0  0  0  0  0  0  0  0  0  0  0
    4.2835    0.6533    1.4402 C   0  0  0  0  0  0  0  0  0  0  0  0
    4.8643    1.0105    0.2212 C   0  0  0  0  0  0  0  0  0  0  0  0
    4.1767    0.7825   -0.9730 C   0  0  0  0  0  0  0  0  0  0  0  0
    2.9071    0.1967   -0.9513 C   0  0  0  0  0  0  0  0  0  0  0  0
   -1.5507    0.9661   -2.4273 O   0  0  0  0  0  0  0  0  0  0  0  0
   -5.0579    0.6252    2.6560 H   0  0  0  0  0  0  0  0  0  0  0  0
   -4.5969    2.1195    0.7441 H   0  0  0  0  0  0  0  0  0  0  0  0
   -3.3351    2.5337   -1.3320 H   0  0  0  0  0  0  0  0  0  0  0  0
   -2.6012   -1.6467    1.2344 H   0  0  0  0  0  0  0  0  0  0  0  0
   -1.0939   -2.4834   -0.3790 H   0  0  0  0  0  0  0  0  0  0  0  0
   -1.2524   -1.8353   -2.0311 H   0  0  0  0  0  0  0  0  0  0  0  0
    2.5836   -0.2010    2.4246 H   0  0  0  0  0  0  0  0  0  0  0  0
    4.8172    0.8308    2.3650 H   0  0  0  0  0  0  0  0  0  0  0  0
    5.8468    1.4641    0.2020 H   0  0  0  0  0  0  0  0  0  0  0  0
    4.6276    1.0604   -1.9170 H   0  0  0  0  0  0  0  0  0  0  0  0
    2.3928    0.0313   -1.8898 H   0  0  0  0  0  0  0  0  0  0  0  0
   -0.8634    0.3441   -2.8324 H   0  0  0  0  0  0  0  0  0  0  0  0
  1  2  1  0
  2  3  2  0
  3  4  1  0
  4  5  2  0
  5  6  1  0
  6  7  2  0
  6  8  1  0
  8  9  1  0
  9 10  1  0
 10 11  2  0
 10 12  1  0
 12 13  2  0
 13 14  1  0
 14 15  2  0
 15 16  1  0
 16 17  2  0
  5 18  1  0
  7  2  1  0
 17 12  1  0
  1 19  1  0
  3 20  1  0
  4 21  1  0
  7 22  1  0
  8 23  1  0
  8 24  1  0
 13 25  1  0
 14 26  1  0
 15 27  1  0
 16 28  1  0
 17 29  1  0
 18 30  1  0
M  END
$$$$
