
     RDKit          3D

 36 39  0  0  0  0  0  0  0  0999 V2000
    4.4088   -1.5403    0.7569 C   0  0  0  0  0  0  0  0  0  0  0  0
    3.7381   -1.0879   -0.4124 O   0  0  0  0  0  0  0  0  0  0  0  0
    2.8413   -0.0175   -0.3647 C   0  0  0  0  0  0  0  0  0  0  0  0
    3.3171    1.2994   -0.5112 C   0  0  0  0  0  0  0  0  0  0  0  0
    4.6708    1.5573   -0.7277 O   0  0  0  0  0  0  0  0  0  0  0  0
    2.4302    2.3779   -0.4461 C   0  0  0  0  0  0  0  0  0  0  0  0
    1.0605    2.1632   -0.2475 C   0  0  0  0  0  0  0  0  0  0  0  0
    0.5715    0.8445   -0.1164 C   0  0  0  0  0  0  0  0  0  0  0  0
    1.4628   -0.2514   -0.1783 C   0  0  0  0  0  0  0  0  0  0  0  0
    0.9553   -1.5557   -0.0501 C   0  0  0  0  0  0  0  0  0  0  0  0
   -0.4115   -1.7738    0.1397 C   0  0  0  0  0  0  0  0  0  0  0  0
   -1.3084   -0.6938    0.2037 C   0  0  0  0  0  0  0  0  0  0  0  0
   -0.8113    0.6239    0.0769 C   0  0  0  0  0  0  0  0  0  0  0  0
   -1.6953    1.7236    0.1429 C   0  0  0  0  0  0  0  0  0  0  0  0
   -1.1955    3.0276    0.0130 C   0  0  0  0  0  0  0  0  0  0  0  0
    0.1708    3.2455   -0.1819 C   0  0  0  0  0  0  0  0  0  0  0  0
   -3.0639    1.5017    0.3417 C   0  0  0  0  0  0  0  0  0  0  0  0
   -3.5624    0.2022    0.4708 C   0  0  0  0  0  0  0  0  0  0  0  0
   -2.6913   -0.9009    0.3895 C   0  0  0  0  0  0  0  0  0  0  0  0
   -3.2016   -2.1968    0.5008 O   0  0  0  0  0  0  0  0  0  0  0  0
   -3.6837   -2.8996   -0.6373 C   0  0  0  0  0  0  0  0  0  0  0  0
   -4.9296    0.0272    0.6851 O   0  0  0  0  0  0  0  0  0  0  0  0
    5.0729   -2.3881    0.4915 H   0  0  0  0  0  0  0  0  0  0  0  0
    5.0228   -0.7214    1.1874 H   0  0  0  0  0  0  0  0  0  0  0  0
    3.6691   -1.8833    1.5108 H   0  0  0  0  0  0  0  0  0  0  0  0
    5.3563    0.8167   -0.8119 H   0  0  0  0  0  0  0  0  0  0  0  0
    2.8154    3.3851   -0.5557 H   0  0  0  0  0  0  0  0  0  0  0  0
    1.6125   -2.4150   -0.0974 H   0  0  0  0  0  0  0  0  0  0  0  0
   -0.7617   -2.7938    0.2376 H   0  0  0  0  0  0  0  0  0  0  0  0
   -1.8623    3.8803    0.0618 H   0  0  0  0  0  0  0  0  0  0  0  0
    0.5324    4.2622   -0.2810 H   0  0  0  0  0  0  0  0  0  0  0  0
   -3.7502    2.3385    0.4016 H   0  0  0  0  0  0  0  0  0  0  0  0
   -2.8668   -3.0286   -1.3785 H   0  0  0  0  0  0  0  0  0  0  0  0
   -4.5224   -2.3421   -1.1050 H   0  0  0  0  0  0  0  0  0  0  0  0
   -4.0459   -3.8994   -0.3222 H   0  0  0  0  0  0  0  0  0  0  0  0
   -5.3447   -0.8874    0.8139 H   0  0  0  0  0  0  0  0  0  0  0  0
  1  2  1  0
  2  3  1  0
  3  4  2  0
  4  5  1  0
  4  6  1  0
  6  7  2  0
  7  8  1  0
  8  9  2  0
  9 10  1  0
 10 11  2  0
 11 12  1  0
 12 13  2  0
 13 14  1  0
 14 15  1  0
 15 16  2  0
 14 17  2  0
 17 18  1  0
 18 19  2  0
 19 20  1  0
 20 21  1  0
 18 22  1  0
  9  3  1  0
 19 12  1  0
 16  7  1  0
 13  8  1  0
  1 23  1  0
  1 24  1  0
  1 25  1  0
  5 26  1  0
  6 27  1  0
 10 28  1  0
 11 29  1  0
 15 30  1  0
 16 31  1  0
 17 32  1  0
 21 33  1  0
 21 34  1  0
 21 35  1  0
 22 36  1  0
M  END
$$$$
