
     RDKit          3D

 63 67  0  0  0  0  0  0  0  0999 V2000
    6.8983   -1.2166    2.2347 C   0  0  0  0  0  0  0  0  0  0  0  0
    5.5616   -0.7534    2.3967 O   0  0  0  0  0  0  0  0  0  0  0  0
    4.6028   -0.7258    1.3728 C   0  0  0  0  0  0  0  0  0  0  0  0
    4.8832   -1.1676    0.0657 C   0  0  0  0  0  0  0  0  0  0  0  0
    3.8972   -1.1179   -0.9226 C   0  0  0  0  0  0  0  0  0  0  0  0
    2.6223   -0.6305   -0.6227 C   0  0  0  0  0  0  0  0  0  0  0  0
    2.3254   -0.1894    0.6838 C   0  0  0  0  0  0  0  0  0  0  0  0
    3.3246   -0.2389    1.6735 C   0  0  0  0  0  0  0  0  0  0  0  0
    1.0319    0.2921    0.9495 C   0  0  0  0  0  0  0  0  0  0  0  0
    0.7414    0.7214    2.1006 O   0  0  0  0  0  0  0  0  0  0  0  0
    0.0624    0.2908   -0.0765 C   0  0  0  0  0  0  0  0  0  0  0  0
    0.4688   -0.1309   -1.3568 C   0  0  0  0  0  0  0  0  0  0  0  0
    1.6997   -0.5772   -1.5750 O   0  0  0  0  0  0  0  0  0  0  0  0
   -1.3406    0.8612    0.1429 C   0  0  0  0  0  0  0  0  0  0  0  0
   -1.5579    2.0275   -0.8166 C   0  0  0  0  0  0  0  0  0  0  0  0
   -2.6295    2.1299   -1.4734 O   0  0  0  0  0  0  0  0  0  0  0  0
   -0.5355    3.0909   -0.9629 C   0  0  0  0  0  0  0  0  0  0  0  0
    0.0052    3.6932    0.1872 C   0  0  0  0  0  0  0  0  0  0  0  0
    0.9465    4.7186    0.0768 C   0  0  0  0  0  0  0  0  0  0  0  0
    1.3612    5.1597   -1.1841 C   0  0  0  0  0  0  0  0  0  0  0  0
    0.8384    4.5624   -2.3336 C   0  0  0  0  0  0  0  0  0  0  0  0
   -0.0952    3.5232   -2.2371 C   0  0  0  0  0  0  0  0  0  0  0  0
   -0.5389    2.9275   -3.4198 O   0  0  0  0  0  0  0  0  0  0  0  0
    2.2928    6.1884   -1.3060 O   0  0  0  0  0  0  0  0  0  0  0  0
   -2.5053   -0.1995    0.1237 C   0  0  0  0  0  0  0  0  0  0  0  0
   -2.5138   -1.1428   -1.0766 C   0  0  0  0  0  0  0  0  0  0  0  0
   -1.7173   -2.3064   -1.1177 C   0  0  0  0  0  0  0  0  0  0  0  0
   -1.7378   -3.1456   -2.2350 C   0  0  0  0  0  0  0  0  0  0  0  0
   -2.5552   -2.8455   -3.3268 C   0  0  0  0  0  0  0  0  0  0  0  0
   -3.3573   -1.6994   -3.2974 C   0  0  0  0  0  0  0  0  0  0  0  0
   -3.3388   -0.8569   -2.1826 C   0  0  0  0  0  0  0  0  0  0  0  0
   -2.5636   -3.6912   -4.4336 O   0  0  0  0  0  0  0  0  0  0  0  0
   -2.6986   -0.9523    1.4419 C   0  0  0  0  0  0  0  0  0  0  0  0
   -1.6352   -1.5841    2.1171 C   0  0  0  0  0  0  0  0  0  0  0  0
   -1.8559   -2.2754    3.3117 C   0  0  0  0  0  0  0  0  0  0  0  0
   -3.1416   -2.3617    3.8490 C   0  0  0  0  0  0  0  0  0  0  0  0
   -4.2123   -1.7574    3.1816 C   0  0  0  0  0  0  0  0  0  0  0  0
   -3.9949   -1.0657    1.9870 C   0  0  0  0  0  0  0  0  0  0  0  0
   -3.3455   -3.0535    5.0408 O   0  0  0  0  0  0  0  0  0  0  0  0
    7.4337   -1.1246    3.2018 H   0  0  0  0  0  0  0  0  0  0  0  0
    7.4264   -0.6006    1.4764 H   0  0  0  0  0  0  0  0  0  0  0  0
    6.8982   -2.2839    1.9282 H   0  0  0  0  0  0  0  0  0  0  0  0
    5.8604   -1.5490   -0.1972 H   0  0  0  0  0  0  0  0  0  0  0  0
    4.1261   -1.4565   -1.9254 H   0  0  0  0  0  0  0  0  0  0  0  0
    3.1189    0.0978    2.6825 H   0  0  0  0  0  0  0  0  0  0  0  0
   -0.2200   -0.0902   -2.1898 H   0  0  0  0  0  0  0  0  0  0  0  0
   -1.3929    1.3203    1.1526 H   0  0  0  0  0  0  0  0  0  0  0  0
   -0.3151    3.3875    1.1745 H   0  0  0  0  0  0  0  0  0  0  0  0
    1.3471    5.1756    0.9729 H   0  0  0  0  0  0  0  0  0  0  0  0
    1.1713    4.8960   -3.3085 H   0  0  0  0  0  0  0  0  0  0  0  0
   -1.1313    2.1074   -3.4395 H   0  0  0  0  0  0  0  0  0  0  0  0
    2.6913    6.6419   -0.4919 H   0  0  0  0  0  0  0  0  0  0  0  0
   -3.4275    0.4171    0.0383 H   0  0  0  0  0  0  0  0  0  0  0  0
   -1.0581   -2.5620   -0.3033 H   0  0  0  0  0  0  0  0  0  0  0  0
   -1.1128   -4.0296   -2.2539 H   0  0  0  0  0  0  0  0  0  0  0  0
   -3.9977   -1.4609   -4.1373 H   0  0  0  0  0  0  0  0  0  0  0  0
   -3.9784    0.0161   -2.1845 H   0  0  0  0  0  0  0  0  0  0  0  0
   -3.1455   -3.5002   -5.2412 H   0  0  0  0  0  0  0  0  0  0  0  0
   -0.6350   -1.5714    1.7218 H   0  0  0  0  0  0  0  0  0  0  0  0
   -1.0254   -2.7530    3.8164 H   0  0  0  0  0  0  0  0  0  0  0  0
   -5.2145   -1.8260    3.5853 H   0  0  0  0  0  0  0  0  0  0  0  0
   -4.8450   -0.6173    1.4874 H   0  0  0  0  0  0  0  0  0  0  0  0
   -4.2672   -3.1355    5.4541 H   0  0  0  0  0  0  0  0  0  0  0  0
  1  2  1  0
  2  3  1  0
  3  4  2  0
  4  5  1  0
  5  6  2  0
  6  7  1  0
  7  8  2  0
  7  9  1  0
  9 10  2  0
  9 11  1  0
 11 12  2  0
 12 13  1  0
 11 14  1  0
 14 15  1  0
 15 16  2  0
 15 17  1  0
 17 18  2  0
 18 19  1  0
 19 20  2  0
 20 21  1  0
 21 22  2  0
 22 23  1  0
 20 24  1  0
 14 25  1  0
 25 26  1  0
 26 27  2  0
 27 28  1  0
 28 29  2  0
 29 30  1  0
 30 31  2  0
 29 32  1  0
 25 33  1  0
 33 34  2  0
 34 35  1  0
 35 36  2  0
 36 37  1  0
 37 38  2  0
 36 39  1  0
  8  3  1  0
 22 17  1  0
 31 26  1  0
 38 33  1  0
 13  6  1  0
  1 40  1  0
  1 41  1  0
  1 42  1  0
  4 43  1  0
  5 44  1  0
  8 45  1  0
 12 46  1  0
 14 47  1  0
 18 48  1  0
 19 49  1  0
 21 50  1  0
 23 51  1  0
 24 52  1  0
 25 53  1  0
 27 54  1  0
 28 55  1  0
 30 56  1  0
 31 57  1  0
 32 58  1  0
 34 59  1  0
 35 60  1  0
 37 61  1  0
 38 62  1  0
 39 63  1  0
M  END
$$$$
