
     RDKit          3D

 45 46  0  0  0  0  0  0  0  0999 V2000
    5.7114    0.4259    1.8955 C   0  0  0  0  0  0  0  0  0  0  0  0
    5.2939    1.2323    0.6907 C   0  0  0  0  0  0  0  0  0  0  0  0
    4.1006    1.0702    0.0826 C   0  0  0  0  0  0  0  0  0  0  0  0
    3.0272    0.1372    0.5128 C   0  0  0  0  0  0  0  0  0  0  0  0
    2.9935   -0.2903    1.6989 O   0  0  0  0  0  0  0  0  0  0  0  0
    1.9457   -0.2606   -0.4223 C   0  0  0  0  0  0  0  0  0  0  0  0
    2.1555   -0.2616   -1.8285 C   0  0  0  0  0  0  0  0  0  0  0  0
    1.1314   -0.6499   -2.7109 C   0  0  0  0  0  0  0  0  0  0  0  0
   -0.0909   -1.0312   -2.1666 C   0  0  0  0  0  0  0  0  0  0  0  0
   -0.3054   -1.0384   -0.8140 C   0  0  0  0  0  0  0  0  0  0  0  0
    0.6921   -0.6713    0.0896 C   0  0  0  0  0  0  0  0  0  0  0  0
   -1.6039   -1.4715   -0.6167 C   0  0  0  0  0  0  0  0  0  0  0  0
   -2.1138   -1.7173   -1.8890 C   0  0  0  0  0  0  0  0  0  0  0  0
   -1.1840   -1.4429   -2.8314 N   0  0  0  0  0  0  0  0  0  0  0  0
   -2.3321   -1.6359    0.6897 C   0  0  0  0  0  0  0  0  0  0  0  0
   -2.9341   -0.3173    1.2400 C   0  0  0  0  0  0  0  0  0  0  0  0
   -4.0696    0.3117    0.3725 C   0  0  0  0  0  0  0  0  0  0  0  0
   -3.5341    0.7233   -0.8631 O   0  0  0  0  0  0  0  0  0  0  0  0
   -5.2180   -0.6962    0.1403 C   0  0  0  0  0  0  0  0  0  0  0  0
   -4.6387    1.5459    1.1079 C   0  0  0  0  0  0  0  0  0  0  0  0
   -1.9086    0.6281    1.4236 O   0  0  0  0  0  0  0  0  0  0  0  0
    6.2547    2.2379    0.1144 C   0  0  0  0  0  0  0  0  0  0  0  0
    5.6197   -0.6601    1.6784 H   0  0  0  0  0  0  0  0  0  0  0  0
    5.0794    0.6937    2.7689 H   0  0  0  0  0  0  0  0  0  0  0  0
    6.7678    0.6234    2.1726 H   0  0  0  0  0  0  0  0  0  0  0  0
    3.8973    1.6718   -0.7966 H   0  0  0  0  0  0  0  0  0  0  0  0
    3.1149    0.0144   -2.2460 H   0  0  0  0  0  0  0  0  0  0  0  0
    1.2926   -0.6580   -3.7807 H   0  0  0  0  0  0  0  0  0  0  0  0
    0.5026   -0.6959    1.1546 H   0  0  0  0  0  0  0  0  0  0  0  0
   -3.1101   -2.0733   -2.1141 H   0  0  0  0  0  0  0  0  0  0  0  0
   -1.2961   -1.5358   -3.8656 H   0  0  0  0  0  0  0  0  0  0  0  0
   -1.6166   -2.0372    1.4397 H   0  0  0  0  0  0  0  0  0  0  0  0
   -3.1187   -2.4116    0.5848 H   0  0  0  0  0  0  0  0  0  0  0  0
   -3.3806   -0.5661    2.2333 H   0  0  0  0  0  0  0  0  0  0  0  0
   -4.2721    1.1052   -1.4080 H   0  0  0  0  0  0  0  0  0  0  0  0
   -5.5543   -1.1381    1.1028 H   0  0  0  0  0  0  0  0  0  0  0  0
   -4.9012   -1.5111   -0.5417 H   0  0  0  0  0  0  0  0  0  0  0  0
   -6.0884   -0.1943   -0.3359 H   0  0  0  0  0  0  0  0  0  0  0  0
   -5.4630    2.0075    0.5217 H   0  0  0  0  0  0  0  0  0  0  0  0
   -3.8515    2.3175    1.2462 H   0  0  0  0  0  0  0  0  0  0  0  0
   -5.0373    1.2605    2.1059 H   0  0  0  0  0  0  0  0  0  0  0  0
   -1.4517    0.4014    2.2761 H   0  0  0  0  0  0  0  0  0  0  0  0
    6.5161    1.9536   -0.9280 H   0  0  0  0  0  0  0  0  0  0  0  0
    7.1938    2.2999    0.7054 H   0  0  0  0  0  0  0  0  0  0  0  0
    5.7846    3.2454    0.1100 H   0  0  0  0  0  0  0  0  0  0  0  0
  1  2  1  0
  2  3  2  3
  3  4  1  0
  4  5  2  0
  4  6  1  0
  6  7  2  0
  7  8  1  0
  8  9  2  0
  9 10  1  0
 10 11  2  0
 10 12  1  0
 12 13  2  0
 13 14  1  0
 12 15  1  0
 15 16  1  0
 16 17  1  0
 17 18  1  0
 17 19  1  0
 17 20  1  0
 16 21  1  0
  2 22  1  0
 11  6  1  0
 14  9  1  0
  1 23  1  0
  1 24  1  0
  1 25  1  0
  3 26  1  0
  7 27  1  0
  8 28  1  0
 11 29  1  0
 13 30  1  0
 14 31  1  0
 15 32  1  0
 15 33  1  0
 16 34  1  0
 18 35  1  0
 19 36  1  0
 19 37  1  0
 19 38  1  0
 20 39  1  0
 20 40  1  0
 20 41  1  0
 21 42  1  0
 22 43  1  0
 22 44  1  0
 22 45  1  0
M  END
$$$$
