
     RDKit          3D

 56 59  0  0  0  0  0  0  0  0999 V2000
    6.3960   -1.2626   -1.2448 C   0  0  0  0  0  0  0  0  0  0  0  0
    6.9842   -0.0160   -0.6271 C   0  0  0  0  0  0  0  0  0  0  0  0
    6.6354    0.4029    0.6089 C   0  0  0  0  0  0  0  0  0  0  0  0
    5.6570   -0.3127    1.5080 C   0  0  0  0  0  0  0  0  0  0  0  0
    4.2353   -0.1053    1.0560 C   0  0  0  0  0  0  0  0  0  0  0  0
    3.6864    1.2028    1.0150 C   0  0  0  0  0  0  0  0  0  0  0  0
    2.3601    1.4141    0.6000 C   0  0  0  0  0  0  0  0  0  0  0  0
    1.6069    0.2991    0.2363 C   0  0  0  0  0  0  0  0  0  0  0  0
    2.1219   -0.9710    0.2924 C   0  0  0  0  0  0  0  0  0  0  0  0
    3.4335   -1.2123    0.6970 C   0  0  0  0  0  0  0  0  0  0  0  0
    1.2078   -1.8834   -0.0894 N   0  0  0  0  0  0  0  0  0  0  0  0
    0.0869   -1.1898   -0.3932 C   0  0  0  0  0  0  0  0  0  0  0  0
    0.3018    0.1703   -0.1950 C   0  0  0  0  0  0  0  0  0  0  0  0
   -0.6243    1.2296   -0.4812 N   0  0  0  0  0  0  0  0  0  0  0  0
   -0.3375    2.3789   -1.1392 C   0  0  0  0  0  0  0  0  0  0  0  0
   -1.4817    3.1525   -1.2944 C   0  0  0  0  0  0  0  0  0  0  0  0
   -2.4929    2.4295   -0.6994 C   0  0  0  0  0  0  0  0  0  0  0  0
   -1.9468    1.2688   -0.2160 C   0  0  0  0  0  0  0  0  0  0  0  0
   -2.7217    0.3366    0.4808 C   0  0  0  0  0  0  0  0  0  0  0  0
   -4.0966    0.6088    0.6585 C   0  0  0  0  0  0  0  0  0  0  0  0
   -4.9698   -0.3856    1.3720 C   0  0  0  0  0  0  0  0  0  0  0  0
   -5.3212   -1.5222    0.4443 C   0  0  0  0  0  0  0  0  0  0  0  0
   -6.5217   -1.6884   -0.1543 C   0  0  0  0  0  0  0  0  0  0  0  0
   -7.6801   -0.7507    0.0945 C   0  0  0  0  0  0  0  0  0  0  0  0
   -6.6983   -2.8504   -1.0973 C   0  0  0  0  0  0  0  0  0  0  0  0
   -4.6520    1.8019    0.1309 C   0  0  0  0  0  0  0  0  0  0  0  0
   -3.8438    2.7282   -0.5505 C   0  0  0  0  0  0  0  0  0  0  0  0
    7.9891    0.7963   -1.4029 C   0  0  0  0  0  0  0  0  0  0  0  0
    6.5758   -2.1405   -0.5895 H   0  0  0  0  0  0  0  0  0  0  0  0
    6.8539   -1.4807   -2.2314 H   0  0  0  0  0  0  0  0  0  0  0  0
    5.3059   -1.1295   -1.4021 H   0  0  0  0  0  0  0  0  0  0  0  0
    7.0889    1.3083    1.0013 H   0  0  0  0  0  0  0  0  0  0  0  0
    5.9165   -1.3906    1.5730 H   0  0  0  0  0  0  0  0  0  0  0  0
    5.7553    0.0982    2.5349 H   0  0  0  0  0  0  0  0  0  0  0  0
    4.2892    2.0537    1.3033 H   0  0  0  0  0  0  0  0  0  0  0  0
    1.9419    2.4112    0.5779 H   0  0  0  0  0  0  0  0  0  0  0  0
    3.8205   -2.2236    0.7270 H   0  0  0  0  0  0  0  0  0  0  0  0
    1.3376   -2.9184   -0.1520 H   0  0  0  0  0  0  0  0  0  0  0  0
   -0.8211   -1.6434   -0.7684 H   0  0  0  0  0  0  0  0  0  0  0  0
    0.6432    2.6377   -1.5173 H   0  0  0  0  0  0  0  0  0  0  0  0
   -1.5601    4.1141   -1.7828 H   0  0  0  0  0  0  0  0  0  0  0  0
   -2.2822   -0.5641    0.8876 H   0  0  0  0  0  0  0  0  0  0  0  0
   -5.8670    0.1127    1.7908 H   0  0  0  0  0  0  0  0  0  0  0  0
   -4.4177   -0.8009    2.2401 H   0  0  0  0  0  0  0  0  0  0  0  0
   -4.5214   -2.2217    0.2119 H   0  0  0  0  0  0  0  0  0  0  0  0
   -8.5708   -1.0353   -0.5041 H   0  0  0  0  0  0  0  0  0  0  0  0
   -7.9680   -0.7811    1.1674 H   0  0  0  0  0  0  0  0  0  0  0  0
   -7.3996    0.2843   -0.1890 H   0  0  0  0  0  0  0  0  0  0  0  0
   -6.5092   -3.8031   -0.5592 H   0  0  0  0  0  0  0  0  0  0  0  0
   -7.7257   -2.8867   -1.5187 H   0  0  0  0  0  0  0  0  0  0  0  0
   -5.9791   -2.7616   -1.9405 H   0  0  0  0  0  0  0  0  0  0  0  0
   -5.7046    2.0179    0.2573 H   0  0  0  0  0  0  0  0  0  0  0  0
   -4.2597    3.6469   -0.9434 H   0  0  0  0  0  0  0  0  0  0  0  0
    8.9417    0.8610   -0.8337 H   0  0  0  0  0  0  0  0  0  0  0  0
    8.2068    0.3443   -2.3915 H   0  0  0  0  0  0  0  0  0  0  0  0
    7.5950    1.8213   -1.5674 H   0  0  0  0  0  0  0  0  0  0  0  0
  1  2  1  0
  2  3  2  3
  3  4  1  0
  4  5  1  0
  5  6  2  0
  6  7  1  0
  7  8  2  0
  8  9  1  0
  9 10  2  0
  9 11  1  0
 11 12  1  0
 12 13  2  0
 13 14  1  0
 14 15  1  0
 15 16  2  0
 16 17  1  0
 17 18  2  0
 18 19  1  0
 19 20  2  0
 20 21  1  0
 21 22  1  0
 22 23  2  3
 23 24  1  0
 23 25  1  0
 20 26  1  0
 26 27  2  0
  2 28  1  0
 10  5  1  0
 18 14  1  0
 13  8  1  0
 27 17  1  0
  1 29  1  0
  1 30  1  0
  1 31  1  0
  3 32  1  0
  4 33  1  0
  4 34  1  0
  6 35  1  0
  7 36  1  0
 10 37  1  0
 11 38  1  0
 12 39  1  0
 15 40  1  0
 16 41  1  0
 19 42  1  0
 21 43  1  0
 21 44  1  0
 22 45  1  0
 24 46  1  0
 24 47  1  0
 24 48  1  0
 25 49  1  0
 25 50  1  0
 25 51  1  0
 26 52  1  0
 27 53  1  0
 28 54  1  0
 28 55  1  0
 28 56  1  0
M  END
$$$$
