
     RDKit          3D

 42 43  0  0  0  0  0  0  0  0999 V2000
   -0.3035    0.3138    2.6534 C   0  0  0  0  0  0  0  0  0  0  0  0
    0.3198   -0.0612    1.3300 C   0  0  0  0  0  0  0  0  0  0  0  0
   -0.2115   -1.0196    0.5371 C   0  0  0  0  0  0  0  0  0  0  0  0
   -1.4535   -1.8088    0.8665 C   0  0  0  0  0  0  0  0  0  0  0  0
   -2.6901   -0.9753    0.7029 C   0  0  0  0  0  0  0  0  0  0  0  0
   -3.6170   -0.6630    1.6932 C   0  0  0  0  0  0  0  0  0  0  0  0
   -4.6122    0.0993    1.1853 N   0  0  0  0  0  0  0  0  0  0  0  0
   -4.3254    0.2654   -0.1176 C   0  0  0  0  0  0  0  0  0  0  0  0
   -3.1616   -0.3791   -0.4512 C   0  0  0  0  0  0  0  0  0  0  0  0
   -2.6591   -0.3613   -1.7527 C   0  0  0  0  0  0  0  0  0  0  0  0
   -3.3843    0.3497   -2.7261 C   0  0  0  0  0  0  0  0  0  0  0  0
   -4.5814    1.0162   -2.3820 C   0  0  0  0  0  0  0  0  0  0  0  0
   -5.0651    0.9767   -1.0614 C   0  0  0  0  0  0  0  0  0  0  0  0
    1.5700    0.6577    0.8732 C   0  0  0  0  0  0  0  0  0  0  0  0
    2.8064   -0.2320    1.0462 C   0  0  0  0  0  0  0  0  0  0  0  0
    4.0456    0.4714    0.5518 C   0  0  0  0  0  0  0  0  0  0  0  0
    4.4721    0.4501   -0.7316 C   0  0  0  0  0  0  0  0  0  0  0  0
    3.7706   -0.3570   -1.7963 C   0  0  0  0  0  0  0  0  0  0  0  0
    5.7132    1.2104   -1.1216 C   0  0  0  0  0  0  0  0  0  0  0  0
    0.3186    1.0556    3.1961 H   0  0  0  0  0  0  0  0  0  0  0  0
   -1.3032    0.7640    2.4884 H   0  0  0  0  0  0  0  0  0  0  0  0
   -0.3971   -0.5818    3.3021 H   0  0  0  0  0  0  0  0  0  0  0  0
    0.2820   -1.2553   -0.4027 H   0  0  0  0  0  0  0  0  0  0  0  0
   -1.5239   -2.6718    0.1707 H   0  0  0  0  0  0  0  0  0  0  0  0
   -1.3890   -2.2227    1.8950 H   0  0  0  0  0  0  0  0  0  0  0  0
   -3.5633   -0.9741    2.7284 H   0  0  0  0  0  0  0  0  0  0  0  0
   -5.4362    0.4775    1.7034 H   0  0  0  0  0  0  0  0  0  0  0  0
   -1.7436   -0.8769   -2.0110 H   0  0  0  0  0  0  0  0  0  0  0  0
   -3.0230    0.3853   -3.7456 H   0  0  0  0  0  0  0  0  0  0  0  0
   -5.1312    1.5595   -3.1395 H   0  0  0  0  0  0  0  0  0  0  0  0
   -5.9826    1.4819   -0.7888 H   0  0  0  0  0  0  0  0  0  0  0  0
    1.7144    1.5922    1.4579 H   0  0  0  0  0  0  0  0  0  0  0  0
    1.4509    0.9622   -0.1887 H   0  0  0  0  0  0  0  0  0  0  0  0
    2.6724   -1.2070    0.5321 H   0  0  0  0  0  0  0  0  0  0  0  0
    2.9377   -0.4505    2.1283 H   0  0  0  0  0  0  0  0  0  0  0  0
    4.6052    1.0417    1.2886 H   0  0  0  0  0  0  0  0  0  0  0  0
    3.7943   -1.4355   -1.5346 H   0  0  0  0  0  0  0  0  0  0  0  0
    2.7190   -0.0233   -1.9075 H   0  0  0  0  0  0  0  0  0  0  0  0
    4.2735   -0.2345   -2.7791 H   0  0  0  0  0  0  0  0  0  0  0  0
    6.1081    1.8280   -0.2866 H   0  0  0  0  0  0  0  0  0  0  0  0
    5.4826    1.8862   -1.9718 H   0  0  0  0  0  0  0  0  0  0  0  0
    6.5017    0.4941   -1.4340 H   0  0  0  0  0  0  0  0  0  0  0  0
  1  2  1  0
  2  3  2  0
  3  4  1  0
  4  5  1  0
  5  6  2  0
  6  7  1  0
  7  8  1  0
  8  9  2  0
  9 10  1  0
 10 11  2  0
 11 12  1  0
 12 13  2  0
  2 14  1  0
 14 15  1  0
 15 16  1  0
 16 17  2  3
 17 18  1  0
 17 19  1  0
  9  5  1  0
 13  8  1  0
  1 20  1  0
  1 21  1  0
  1 22  1  0
  3 23  1  0
  4 24  1  0
  4 25  1  0
  6 26  1  0
  7 27  1  0
 10 28  1  0
 11 29  1  0
 12 30  1  0
 13 31  1  0
 14 32  1  0
 14 33  1  0
 15 34  1  0
 15 35  1  0
 16 36  1  0
 18 37  1  0
 18 38  1  0
 18 39  1  0
 19 40  1  0
 19 41  1  0
 19 42  1  0
M  END
$$$$
