
     RDKit          3D

 15 15  0  0  0  0  0  0  0  0999 V2000
    3.4179    0.4815    0.1335 O   0  0  0  0  0  0  0  0  0  0  0  0
    2.5365   -0.3618   -0.1815 C   0  0  0  0  0  0  0  0  0  0  0  0
    1.1018   -0.0533   -0.0383 C   0  0  0  0  0  0  0  0  0  0  0  0
    0.6718    1.1917    0.4542 C   0  0  0  0  0  0  0  0  0  0  0  0
   -0.6933    1.4647    0.5824 C   0  0  0  0  0  0  0  0  0  0  0  0
   -1.6386    0.5013    0.2216 C   0  0  0  0  0  0  0  0  0  0  0  0
   -1.2209   -0.7425   -0.2702 C   0  0  0  0  0  0  0  0  0  0  0  0
    0.1457   -1.0167   -0.3990 C   0  0  0  0  0  0  0  0  0  0  0  0
   -2.1536   -1.7114   -0.6334 O   0  0  0  0  0  0  0  0  0  0  0  0
    2.8473   -1.3262   -0.5627 H   0  0  0  0  0  0  0  0  0  0  0  0
    1.3883    1.9519    0.7394 H   0  0  0  0  0  0  0  0  0  0  0  0
   -1.0187    2.4247    0.9621 H   0  0  0  0  0  0  0  0  0  0  0  0
   -2.6935    0.7216    0.3244 H   0  0  0  0  0  0  0  0  0  0  0  0
    0.4591   -1.9813   -0.7802 H   0  0  0  0  0  0  0  0  0  0  0  0
   -3.1497   -1.5441   -0.5523 H   0  0  0  0  0  0  0  0  0  0  0  0
  1  2  2  0
  2  3  1  0
  3  4  2  0
  4  5  1  0
  5  6  2  0
  6  7  1  0
  7  8  2  0
  7  9  1  0
  8  3  1  0
  2 10  1  0
  4 11  1  0
  5 12  1  0
  6 13  1  0
  8 14  1  0
  9 15  1  0
M  END
$$$$
