
     RDKit          3D

 31 31  0  0  0  0  0  0  0  0999 V2000
   -1.9920    2.7226   -1.9834 C   0  0  0  0  0  0  0  0  0  0  0  0
   -1.7077    1.5254   -1.2642 O   0  0  0  0  0  0  0  0  0  0  0  0
   -0.4511    1.1619   -0.7433 C   0  0  0  0  0  0  0  0  0  0  0  0
    0.6181    1.9650   -0.9002 C   0  0  0  0  0  0  0  0  0  0  0  0
    1.9348    1.5986   -0.3622 C   0  0  0  0  0  0  0  0  0  0  0  0
    2.9804    2.4155   -0.5327 C   0  0  0  0  0  0  0  0  0  0  0  0
    2.0588    0.3202    0.3594 C   0  0  0  0  0  0  0  0  0  0  0  0
    3.1749   -0.0233    0.8332 O   0  0  0  0  0  0  0  0  0  0  0  0
    0.8554   -0.5459    0.5155 C   0  0  0  0  0  0  0  0  0  0  0  0
   -0.3357   -0.1449   -0.0086 C   0  0  0  0  0  0  0  0  0  0  0  0
   -1.5961   -1.0080    0.1312 C   0  0  0  0  0  0  0  0  0  0  0  0
   -2.0257   -1.1810    1.5952 C   0  0  0  0  0  0  0  0  0  0  0  0
   -1.4616   -2.3583   -0.5874 C   0  0  0  0  0  0  0  0  0  0  0  0
    0.9121   -1.7776    1.1946 O   0  0  0  0  0  0  0  0  0  0  0  0
    2.0605   -2.3562    1.8035 C   0  0  0  0  0  0  0  0  0  0  0  0
   -3.0650    2.7291   -2.2643 H   0  0  0  0  0  0  0  0  0  0  0  0
   -1.3833    2.7652   -2.9112 H   0  0  0  0  0  0  0  0  0  0  0  0
   -1.7877    3.6091   -1.3467 H   0  0  0  0  0  0  0  0  0  0  0  0
    0.5272    2.9040   -1.4302 H   0  0  0  0  0  0  0  0  0  0  0  0
    2.8741    3.3525   -1.0656 H   0  0  0  0  0  0  0  0  0  0  0  0
    3.9602    2.1668   -0.1453 H   0  0  0  0  0  0  0  0  0  0  0  0
   -2.4506   -0.5016   -0.3628 H   0  0  0  0  0  0  0  0  0  0  0  0
   -3.0382   -1.6366    1.6385 H   0  0  0  0  0  0  0  0  0  0  0  0
   -1.3338   -1.8394    2.1578 H   0  0  0  0  0  0  0  0  0  0  0  0
   -2.0709   -0.1914    2.0981 H   0  0  0  0  0  0  0  0  0  0  0  0
   -2.4515   -2.8609   -0.6313 H   0  0  0  0  0  0  0  0  0  0  0  0
   -0.7588   -3.0394   -0.0669 H   0  0  0  0  0  0  0  0  0  0  0  0
   -1.1076   -2.2017   -1.6288 H   0  0  0  0  0  0  0  0  0  0  0  0
    1.7748   -3.3286    2.2541 H   0  0  0  0  0  0  0  0  0  0  0  0
    2.4402   -1.6971    2.6122 H   0  0  0  0  0  0  0  0  0  0  0  0
    2.8460   -2.5441    1.0418 H   0  0  0  0  0  0  0  0  0  0  0  0
  1  2  1  0
  2  3  1  0
  3  4  2  0
  4  5  1  0
  5  6  2  3
  5  7  1  0
  7  8  2  0
  7  9  1  0
  9 10  2  0
 10 11  1  0
 11 12  1  0
 11 13  1  0
  9 14  1  0
 14 15  1  0
 10  3  1  0
  1 16  1  0
  1 17  1  0
  1 18  1  0
  4 19  1  0
  6 20  1  0
  6 21  1  0
 11 22  1  0
 12 23  1  0
 12 24  1  0
 12 25  1  0
 13 26  1  0
 13 27  1  0
 13 28  1  0
 15 29  1  0
 15 30  1  0
 15 31  1  0
M  END
$$$$
