
     RDKit          3D

 25 25  0  0  0  0  0  0  0  0999 V2000
    0.2006   -3.0573   -0.4441 C   0  0  0  0  0  0  0  0  0  0  0  0
    0.9075   -1.8963   -0.0223 O   0  0  0  0  0  0  0  0  0  0  0  0
    0.4058   -0.5814    0.0344 C   0  0  0  0  0  0  0  0  0  0  0  0
    1.2923    0.4120    0.4864 C   0  0  0  0  0  0  0  0  0  0  0  0
    2.5950    0.0267    0.8434 O   0  0  0  0  0  0  0  0  0  0  0  0
    3.6007    0.9168    1.3167 C   0  0  0  0  0  0  0  0  0  0  0  0
    0.8657    1.7490    0.5710 C   0  0  0  0  0  0  0  0  0  0  0  0
   -0.4328    2.1006    0.2098 C   0  0  0  0  0  0  0  0  0  0  0  0
   -1.3204    1.1203   -0.2404 C   0  0  0  0  0  0  0  0  0  0  0  0
   -0.9191   -0.2270   -0.3349 C   0  0  0  0  0  0  0  0  0  0  0  0
   -1.8104   -1.2129   -0.7872 O   0  0  0  0  0  0  0  0  0  0  0  0
   -3.1578   -0.9772   -1.1836 C   0  0  0  0  0  0  0  0  0  0  0  0
   -0.8332    3.4321    0.3020 O   0  0  0  0  0  0  0  0  0  0  0  0
   -0.6724   -3.2380    0.2176 H   0  0  0  0  0  0  0  0  0  0  0  0
    0.8763   -3.9339   -0.3715 H   0  0  0  0  0  0  0  0  0  0  0  0
   -0.1162   -2.9516   -1.5029 H   0  0  0  0  0  0  0  0  0  0  0  0
    4.5269    0.3414    1.5204 H   0  0  0  0  0  0  0  0  0  0  0  0
    3.8226    1.6863    0.5475 H   0  0  0  0  0  0  0  0  0  0  0  0
    3.2692    1.4013    2.2593 H   0  0  0  0  0  0  0  0  0  0  0  0
    1.5347    2.5253    0.9166 H   0  0  0  0  0  0  0  0  0  0  0  0
   -2.3225    1.4198   -0.5145 H   0  0  0  0  0  0  0  0  0  0  0  0
   -3.7397   -0.5632   -0.3332 H   0  0  0  0  0  0  0  0  0  0  0  0
   -3.6171   -1.9385   -1.4921 H   0  0  0  0  0  0  0  0  0  0  0  0
   -3.1859   -0.2781   -2.0459 H   0  0  0  0  0  0  0  0  0  0  0  0
   -1.7698    3.7236    0.0476 H   0  0  0  0  0  0  0  0  0  0  0  0
  1  2  1  0
  2  3  1  0
  3  4  2  0
  4  5  1  0
  5  6  1  0
  4  7  1  0
  7  8  2  0
  8  9  1  0
  9 10  2  0
 10 11  1  0
 11 12  1  0
  8 13  1  0
 10  3  1  0
  1 14  1  0
  1 15  1  0
  1 16  1  0
  6 17  1  0
  6 18  1  0
  6 19  1  0
  7 20  1  0
  9 21  1  0
 12 22  1  0
 12 23  1  0
 12 24  1  0
 13 25  1  0
M  END
$$$$
