
     RDKit          3D

 44 47  0  0  0  0  0  0  0  0999 V2000
   -4.1141   -2.7921   -0.4810 C   0  0  0  0  0  0  0  0  0  0  0  0
   -3.7665   -1.6423    0.4713 C   0  0  0  0  0  0  0  0  0  0  0  0
   -4.5846   -1.4731    1.7509 C   0  0  0  0  0  0  0  0  0  0  0  0
   -2.3796   -1.5294    0.7046 O   0  0  0  0  0  0  0  0  0  0  0  0
   -2.9846   -0.4666   -0.0050 C   0  0  1  0  0  0  0  0  0  0  0  0
   -2.5277   -0.4229   -1.4686 C   0  0  0  0  0  0  0  0  0  0  0  0
   -1.5272    0.6824   -1.6576 C   0  0  0  0  0  0  0  0  0  0  0  0
   -1.9551    1.9738   -2.0601 C   0  0  0  0  0  0  0  0  0  0  0  0
   -1.0308    3.0250   -2.1980 C   0  0  0  0  0  0  0  0  0  0  0  0
    0.3078    2.7578   -1.9204 C   0  0  0  0  0  0  0  0  0  0  0  0
    0.7259    1.5151   -1.5224 C   0  0  0  0  0  0  0  0  0  0  0  0
   -0.1635    0.4522   -1.3721 C   0  0  0  0  0  0  0  0  0  0  0  0
    2.0874    1.6002   -1.3094 C   0  0  0  0  0  0  0  0  0  0  0  0
    2.4295    2.9216   -1.5801 C   0  0  0  0  0  0  0  0  0  0  0  0
    1.3369    3.6223   -1.9612 N   0  0  0  0  0  0  0  0  0  0  0  0
    2.9941    0.5312   -0.7822 C   0  0  0  0  0  0  0  0  0  0  0  0
    2.8726    0.4519    0.7442 C   0  0  1  0  0  0  0  0  0  0  0  0
    2.0729   -0.6394    1.1546 O   0  0  0  0  0  0  0  0  0  0  0  0
    3.4492   -0.7255    1.4525 C   0  0  0  0  0  0  0  0  0  0  0  0
    3.7271   -0.5823    2.9484 C   0  0  0  0  0  0  0  0  0  0  0  0
    4.1524   -1.8434    0.6742 C   0  0  0  0  0  0  0  0  0  0  0  0
   -3.2092   -3.2141   -0.9666 H   0  0  0  0  0  0  0  0  0  0  0  0
   -4.6074   -3.6136    0.0796 H   0  0  0  0  0  0  0  0  0  0  0  0
   -4.8145   -2.4279   -1.2612 H   0  0  0  0  0  0  0  0  0  0  0  0
   -4.1742   -0.6683    2.3982 H   0  0  0  0  0  0  0  0  0  0  0  0
   -4.5783   -2.4223    2.3267 H   0  0  0  0  0  0  0  0  0  0  0  0
   -5.6321   -1.2191    1.4862 H   0  0  0  0  0  0  0  0  0  0  0  0
   -3.0309    0.4674    0.5962 H   0  0  0  0  0  0  0  0  0  0  0  0
   -3.4142   -0.2494   -2.1159 H   0  0  0  0  0  0  0  0  0  0  0  0
   -2.0675   -1.3834   -1.7862 H   0  0  0  0  0  0  0  0  0  0  0  0
   -3.0023    2.1638   -2.2594 H   0  0  0  0  0  0  0  0  0  0  0  0
   -1.3527    4.0130   -2.5008 H   0  0  0  0  0  0  0  0  0  0  0  0
    0.1832   -0.5188   -1.0410 H   0  0  0  0  0  0  0  0  0  0  0  0
    3.4195    3.3490   -1.4883 H   0  0  0  0  0  0  0  0  0  0  0  0
    1.3009    4.6345   -2.2152 H   0  0  0  0  0  0  0  0  0  0  0  0
    2.7299   -0.4297   -1.2722 H   0  0  0  0  0  0  0  0  0  0  0  0
    4.0448    0.7752   -1.0469 H   0  0  0  0  0  0  0  0  0  0  0  0
    2.6689    1.3690    1.3386 H   0  0  0  0  0  0  0  0  0  0  0  0
    3.0894    0.2010    3.4121 H   0  0  0  0  0  0  0  0  0  0  0  0
    4.7926   -0.3111    3.0998 H   0  0  0  0  0  0  0  0  0  0  0  0
    3.5242   -1.5464    3.4601 H   0  0  0  0  0  0  0  0  0  0  0  0
    5.0760   -1.4442    0.2057 H   0  0  0  0  0  0  0  0  0  0  0  0
    4.4346   -2.6669    1.3632 H   0  0  0  0  0  0  0  0  0  0  0  0
    3.4970   -2.2738   -0.1119 H   0  0  0  0  0  0  0  0  0  0  0  0
  1  2  1  0
  2  3  1  0
  2  4  1  0
  4  5  1  0
  5  6  1  0
  6  7  1  0
  7  8  2  0
  8  9  1  0
  9 10  2  0
 10 11  1  0
 11 12  2  0
 11 13  1  0
 13 14  2  0
 14 15  1  0
 13 16  1  0
 16 17  1  0
 17 18  1  0
 18 19  1  0
 19 20  1  0
 19 21  1  0
  5  2  1  0
 12  7  1  0
 19 17  1  0
 15 10  1  0
  1 22  1  0
  1 23  1  0
  1 24  1  0
  3 25  1  0
  3 26  1  0
  3 27  1  0
  5 28  1  1
  6 29  1  0
  6 30  1  0
  8 31  1  0
  9 32  1  0
 12 33  1  0
 14 34  1  0
 15 35  1  0
 16 36  1  0
 16 37  1  0
 17 38  1  1
 20 39  1  0
 20 40  1  0
 20 41  1  0
 21 42  1  0
 21 43  1  0
 21 44  1  0
M  END
$$$$
