
     RDKit          3D

 37 38  0  0  0  0  0  0  0  0999 V2000
   -0.0735   -2.2755   -1.5280 O   0  0  0  0  0  0  0  0  0  0  0  0
   -0.0839   -1.1953   -0.8764 C   0  0  0  0  0  0  0  0  0  0  0  0
   -1.3683   -0.4972   -0.6544 C   0  0  0  0  0  0  0  0  0  0  0  0
   -2.1526   -0.0732   -1.7476 C   0  0  0  0  0  0  0  0  0  0  0  0
   -1.7175   -0.2535   -3.0656 O   0  0  0  0  0  0  0  0  0  0  0  0
   -3.3787    0.5775   -1.5231 C   0  0  0  0  0  0  0  0  0  0  0  0
   -4.1851    1.0846   -2.6932 C   0  0  0  0  0  0  0  0  0  0  0  0
   -3.8051    0.8452   -0.2087 C   0  0  0  0  0  0  0  0  0  0  0  0
   -3.0622    0.3571    0.8930 C   0  0  0  0  0  0  0  0  0  0  0  0
   -1.8112   -0.2644    0.6620 C   0  0  0  0  0  0  0  0  0  0  0  0
   -0.9852   -0.6622    1.7205 O   0  0  0  0  0  0  0  0  0  0  0  0
   -3.5973    0.4984    2.2991 C   0  0  0  0  0  0  0  0  0  0  0  0
   -4.9611    1.6140   -0.0292 O   0  0  0  0  0  0  0  0  0  0  0  0
    1.1718   -0.6289   -0.3423 C   0  0  0  0  0  0  0  0  0  0  0  0
    2.3472   -1.2632   -0.4579 C   0  0  0  0  0  0  0  0  0  0  0  0
    3.6261   -0.7315    0.0742 C   0  0  0  0  0  0  0  0  0  0  0  0
    3.8296    0.6405    0.3316 C   0  0  0  0  0  0  0  0  0  0  0  0
    5.0586    1.0924    0.8230 C   0  0  0  0  0  0  0  0  0  0  0  0
    6.0976    0.1886    1.0545 C   0  0  0  0  0  0  0  0  0  0  0  0
    5.9127   -1.1694    0.7884 C   0  0  0  0  0  0  0  0  0  0  0  0
    4.6867   -1.6272    0.2964 C   0  0  0  0  0  0  0  0  0  0  0  0
   -0.8146   -0.6399   -3.3082 H   0  0  0  0  0  0  0  0  0  0  0  0
   -4.0612    0.4298   -3.5812 H   0  0  0  0  0  0  0  0  0  0  0  0
   -5.2698    1.0996   -2.4564 H   0  0  0  0  0  0  0  0  0  0  0  0
   -3.8556    2.1126   -2.9514 H   0  0  0  0  0  0  0  0  0  0  0  0
   -1.1396   -0.4026    2.6854 H   0  0  0  0  0  0  0  0  0  0  0  0
   -3.3006   -0.3610    2.9332 H   0  0  0  0  0  0  0  0  0  0  0  0
   -3.2297    1.4438    2.7496 H   0  0  0  0  0  0  0  0  0  0  0  0
   -4.7053    0.4789    2.3185 H   0  0  0  0  0  0  0  0  0  0  0  0
   -5.2510    1.9961    0.8610 H   0  0  0  0  0  0  0  0  0  0  0  0
    1.1094    0.3192    0.1737 H   0  0  0  0  0  0  0  0  0  0  0  0
    2.3716   -2.2407   -0.9259 H   0  0  0  0  0  0  0  0  0  0  0  0
    3.0585    1.3719    0.1347 H   0  0  0  0  0  0  0  0  0  0  0  0
    5.2079    2.1467    1.0176 H   0  0  0  0  0  0  0  0  0  0  0  0
    7.0479    0.5416    1.4337 H   0  0  0  0  0  0  0  0  0  0  0  0
    6.7204   -1.8687    0.9624 H   0  0  0  0  0  0  0  0  0  0  0  0
    4.5631   -2.6848    0.0966 H   0  0  0  0  0  0  0  0  0  0  0  0
  1  2  2  0
  2  3  1  0
  3  4  2  0
  4  5  1  0
  4  6  1  0
  6  7  1  0
  6  8  2  0
  8  9  1  0
  9 10  2  0
 10 11  1  0
  9 12  1  0
  8 13  1  0
  2 14  1  0
 14 15  2  0
 15 16  1  0
 16 17  2  0
 17 18  1  0
 18 19  2  0
 19 20  1  0
 20 21  2  0
 10  3  1  0
 21 16  1  0
  5 22  1  0
  7 23  1  0
  7 24  1  0
  7 25  1  0
 11 26  1  0
 12 27  1  0
 12 28  1  0
 12 29  1  0
 13 30  1  0
 14 31  1  0
 15 32  1  0
 17 33  1  0
 18 34  1  0
 19 35  1  0
 20 36  1  0
 21 37  1  0
M  END
$$$$
