
     RDKit          3D

 41 42  0  0  0  0  0  0  0  0999 V2000
   -6.0297   -0.3119   -0.0505 C   0  0  0  0  0  0  0  0  0  0  0  0
   -4.5578   -0.2764   -0.3213 C   0  0  0  0  0  0  0  0  0  0  0  0
   -3.8098    0.7746    0.0577 C   0  0  0  0  0  0  0  0  0  0  0  0
   -2.3053    0.8555   -0.2006 C   0  0  0  0  0  0  0  0  0  0  0  0
   -1.5509   -0.2130    0.5979 C   0  0  0  0  0  0  0  0  0  0  0  0
   -2.0900   -1.0558    1.5790 C   0  0  0  0  0  0  0  0  0  0  0  0
   -1.1399   -1.8515    2.1116 N   0  0  0  0  0  0  0  0  0  0  0  0
    0.0076   -1.5187    1.5044 C   0  0  0  0  0  0  0  0  0  0  0  0
   -0.1880   -0.5188    0.5843 C   0  0  0  0  0  0  0  0  0  0  0  0
    0.8895    0.0178   -0.1302 C   0  0  0  0  0  0  0  0  0  0  0  0
    2.1845   -0.4998    0.0972 C   0  0  0  0  0  0  0  0  0  0  0  0
    3.3158    0.0666   -0.6778 C   0  0  0  0  0  0  0  0  0  0  0  0
    4.5972   -0.0163   -0.2927 C   0  0  0  0  0  0  0  0  0  0  0  0
    5.6955    0.5703   -1.0847 C   0  0  0  0  0  0  0  0  0  0  0  0
    5.4636    1.1537   -2.1786 O   0  0  0  0  0  0  0  0  0  0  0  0
    7.1019    0.4673   -0.5892 C   0  0  0  0  0  0  0  0  0  0  0  0
    2.3581   -1.5566    1.0311 C   0  0  0  0  0  0  0  0  0  0  0  0
    1.2642   -2.0639    1.7490 C   0  0  0  0  0  0  0  0  0  0  0  0
   -1.8196    2.2483    0.2478 C   0  0  0  0  0  0  0  0  0  0  0  0
   -2.0613    0.6911   -1.7190 C   0  0  0  0  0  0  0  0  0  0  0  0
   -6.2150   -0.2473    1.0426 H   0  0  0  0  0  0  0  0  0  0  0  0
   -6.5291    0.5381   -0.5616 H   0  0  0  0  0  0  0  0  0  0  0  0
   -6.4581   -1.2623   -0.4316 H   0  0  0  0  0  0  0  0  0  0  0  0
   -4.0998   -1.1264   -0.8180 H   0  0  0  0  0  0  0  0  0  0  0  0
   -4.3044    1.6020    0.5628 H   0  0  0  0  0  0  0  0  0  0  0  0
   -3.1220   -1.0805    1.9016 H   0  0  0  0  0  0  0  0  0  0  0  0
   -1.2730   -2.5668    2.8608 H   0  0  0  0  0  0  0  0  0  0  0  0
    0.7549    0.8304   -0.8251 H   0  0  0  0  0  0  0  0  0  0  0  0
    3.0743    0.6124   -1.5829 H   0  0  0  0  0  0  0  0  0  0  0  0
    4.8605   -0.5001    0.6379 H   0  0  0  0  0  0  0  0  0  0  0  0
    7.3911   -0.6013   -0.5065 H   0  0  0  0  0  0  0  0  0  0  0  0
    7.1827    0.9466    0.4090 H   0  0  0  0  0  0  0  0  0  0  0  0
    7.8009    0.9750   -1.2875 H   0  0  0  0  0  0  0  0  0  0  0  0
    3.3275   -2.0040    1.1990 H   0  0  0  0  0  0  0  0  0  0  0  0
    1.3956   -2.8599    2.4707 H   0  0  0  0  0  0  0  0  0  0  0  0
   -0.7366    2.3853    0.0530 H   0  0  0  0  0  0  0  0  0  0  0  0
   -2.3666    3.0471   -0.2992 H   0  0  0  0  0  0  0  0  0  0  0  0
   -1.9926    2.3877    1.3373 H   0  0  0  0  0  0  0  0  0  0  0  0
   -2.1832   -0.3691   -2.0277 H   0  0  0  0  0  0  0  0  0  0  0  0
   -1.0504    1.0211   -2.0216 H   0  0  0  0  0  0  0  0  0  0  0  0
   -2.7823    1.3090   -2.2976 H   0  0  0  0  0  0  0  0  0  0  0  0
  1  2  1  0
  2  3  2  0
  3  4  1  0
  4  5  1  0
  5  6  2  0
  6  7  1  0
  7  8  1  0
  8  9  2  0
  9 10  1  0
 10 11  2  0
 11 12  1  0
 12 13  2  0
 13 14  1  0
 14 15  2  0
 14 16  1  0
 11 17  1  0
 17 18  2  0
  4 19  1  0
  4 20  1  0
  9  5  1  0
 18  8  1  0
  1 21  1  0
  1 22  1  0
  1 23  1  0
  2 24  1  0
  3 25  1  0
  6 26  1  0
  7 27  1  0
 10 28  1  0
 12 29  1  0
 13 30  1  0
 16 31  1  0
 16 32  1  0
 16 33  1  0
 17 34  1  0
 18 35  1  0
 19 36  1  0
 19 37  1  0
 19 38  1  0
 20 39  1  0
 20 40  1  0
 20 41  1  0
M  END
$$$$
