
     RDKit          3D

 52 54  0  0  0  0  0  0  0  0999 V2000
   -3.2064    2.4838   -1.5499 C   0  0  0  0  0  0  0  0  0  0  0  0
   -3.3894    1.6217   -0.3483 C   0  0  0  0  0  0  0  0  0  0  0  0
   -3.6107    2.1545    0.7727 O   0  0  0  0  0  0  0  0  0  0  0  0
   -3.3546    0.2296   -0.4893 O   0  0  0  0  0  0  0  0  0  0  0  0
   -3.3268   -0.6842    0.6093 C   0  0  0  0  0  0  0  0  0  0  0  0
   -1.8700   -1.0580    0.9671 C   0  0  0  0  0  0  0  0  0  0  0  0
   -1.7631   -2.1785    2.0601 C   0  0  0  0  0  0  0  0  0  0  0  0
   -2.4463   -1.7640    3.2202 O   0  0  0  0  0  0  0  0  0  0  0  0
   -0.2765   -2.4455    2.4008 C   0  0  0  0  0  0  0  0  0  0  0  0
   -2.3849   -3.5004    1.5498 C   0  0  0  0  0  0  0  0  0  0  0  0
   -1.1059    0.1965    1.3492 C   0  0  0  0  0  0  0  0  0  0  0  0
   -1.2538    0.9555    2.5114 C   0  0  0  0  0  0  0  0  0  0  0  0
   -0.4656    2.0525    2.4662 N   0  0  0  0  0  0  0  0  0  0  0  0
    0.1682    2.0067    1.2830 C   0  0  0  0  0  0  0  0  0  0  0  0
   -0.1989    0.8952    0.5701 C   0  0  0  0  0  0  0  0  0  0  0  0
    0.2963    0.6519   -0.7117 C   0  0  0  0  0  0  0  0  0  0  0  0
    1.2130    1.5760   -1.2591 C   0  0  0  0  0  0  0  0  0  0  0  0
    1.5910    2.7197   -0.5107 C   0  0  0  0  0  0  0  0  0  0  0  0
    1.0625    2.9440    0.7721 C   0  0  0  0  0  0  0  0  0  0  0  0
    1.8012    1.3424   -2.6236 C   0  0  0  0  0  0  0  0  0  0  0  0
    3.2921    0.9978   -2.5139 C   0  0  0  0  0  0  0  0  0  0  0  0
    3.6842    0.0657   -3.5026 O   0  0  0  0  0  0  0  0  0  0  0  0
    3.7270   -0.3867   -2.1677 C   0  0  0  0  0  0  0  0  0  0  0  0
    2.7189   -1.5085   -1.8981 C   0  0  0  0  0  0  0  0  0  0  0  0
    5.1590   -0.5649   -1.6650 C   0  0  0  0  0  0  0  0  0  0  0  0
   -2.6501    1.9273   -2.3332 H   0  0  0  0  0  0  0  0  0  0  0  0
   -2.6277    3.3924   -1.2803 H   0  0  0  0  0  0  0  0  0  0  0  0
   -4.1986    2.7823   -1.9471 H   0  0  0  0  0  0  0  0  0  0  0  0
   -3.8641   -0.2690    1.4899 H   0  0  0  0  0  0  0  0  0  0  0  0
   -3.8765   -1.5885    0.2836 H   0  0  0  0  0  0  0  0  0  0  0  0
   -1.4119   -1.4684    0.0416 H   0  0  0  0  0  0  0  0  0  0  0  0
   -2.3568   -2.4795    3.9035 H   0  0  0  0  0  0  0  0  0  0  0  0
    0.2981   -2.6859    1.4802 H   0  0  0  0  0  0  0  0  0  0  0  0
    0.1855   -1.5621    2.8891 H   0  0  0  0  0  0  0  0  0  0  0  0
   -0.1800   -3.2981    3.1069 H   0  0  0  0  0  0  0  0  0  0  0  0
   -3.4897   -3.4248    1.4871 H   0  0  0  0  0  0  0  0  0  0  0  0
   -1.9793   -3.7699    0.5510 H   0  0  0  0  0  0  0  0  0  0  0  0
   -2.1635   -4.3345    2.2499 H   0  0  0  0  0  0  0  0  0  0  0  0
   -1.9205    0.7353    3.3335 H   0  0  0  0  0  0  0  0  0  0  0  0
   -0.3881    2.7962    3.1951 H   0  0  0  0  0  0  0  0  0  0  0  0
   -0.0134   -0.2196   -1.2721 H   0  0  0  0  0  0  0  0  0  0  0  0
    2.2923    3.4334   -0.9249 H   0  0  0  0  0  0  0  0  0  0  0  0
    1.3409    3.8204    1.3429 H   0  0  0  0  0  0  0  0  0  0  0  0
    1.2319    0.5679   -3.1798 H   0  0  0  0  0  0  0  0  0  0  0  0
    1.7048    2.2759   -3.2180 H   0  0  0  0  0  0  0  0  0  0  0  0
    4.0297    1.8228   -2.4162 H   0  0  0  0  0  0  0  0  0  0  0  0
    3.2255   -2.4929   -1.9793 H   0  0  0  0  0  0  0  0  0  0  0  0
    1.8800   -1.5082   -2.6230 H   0  0  0  0  0  0  0  0  0  0  0  0
    2.3196   -1.4057   -0.8680 H   0  0  0  0  0  0  0  0  0  0  0  0
    5.8200    0.2630   -2.0009 H   0  0  0  0  0  0  0  0  0  0  0  0
    5.5742   -1.5207   -2.0482 H   0  0  0  0  0  0  0  0  0  0  0  0
    5.1575   -0.5918   -0.5555 H   0  0  0  0  0  0  0  0  0  0  0  0
  1  2  1  0
  2  3  2  0
  2  4  1  0
  4  5  1  0
  5  6  1  0
  6  7  1  0
  7  8  1  0
  7  9  1  0
  7 10  1  0
  6 11  1  0
 11 12  2  0
 12 13  1  0
 13 14  1  0
 14 15  2  0
 15 16  1  0
 16 17  2  0
 17 18  1  0
 18 19  2  0
 17 20  1  0
 20 21  1  0
 21 22  1  0
 22 23  1  0
 23 24  1  0
 23 25  1  0
 15 11  1  0
 23 21  1  0
 19 14  1  0
  1 26  1  0
  1 27  1  0
  1 28  1  0
  5 29  1  0
  5 30  1  0
  6 31  1  0
  8 32  1  0
  9 33  1  0
  9 34  1  0
  9 35  1  0
 10 36  1  0
 10 37  1  0
 10 38  1  0
 12 39  1  0
 13 40  1  0
 16 41  1  0
 18 42  1  0
 19 43  1  0
 20 44  1  0
 20 45  1  0
 21 46  1  0
 24 47  1  0
 24 48  1  0
 24 49  1  0
 25 50  1  0
 25 51  1  0
 25 52  1  0
M  END
$$$$
