
     RDKit          3D

 29 30  0  0  0  0  0  0  0  0999 V2000
   -3.5478    1.3378   -1.0053 C   0  0  0  0  0  0  0  0  0  0  0  0
   -2.6744    0.4543   -0.1524 C   0  0  0  0  0  0  0  0  0  0  0  0
   -2.1674   -0.6723   -0.6998 C   0  0  0  0  0  0  0  0  0  0  0  0
   -1.2852   -1.6548    0.0314 C   0  0  0  0  0  0  0  0  0  0  0  0
    0.1138   -1.1230    0.2011 C   0  0  0  0  0  0  0  0  0  0  0  0
    0.6630   -0.9522    1.4990 C   0  0  0  0  0  0  0  0  0  0  0  0
    1.9712   -0.4632    1.6665 C   0  0  0  0  0  0  0  0  0  0  0  0
    2.7058   -0.1625    0.5222 C   0  0  0  0  0  0  0  0  0  0  0  0
    2.1864   -0.3340   -0.7322 C   0  0  0  0  0  0  0  0  0  0  0  0
    0.8959   -0.8156   -0.9358 C   0  0  0  0  0  0  0  0  0  0  0  0
    3.1550    0.0461   -1.6351 C   0  0  0  0  0  0  0  0  0  0  0  0
    4.2407    0.4394   -0.8589 C   0  0  0  0  0  0  0  0  0  0  0  0
    3.9613    0.3099    0.4584 N   0  0  0  0  0  0  0  0  0  0  0  0
   -2.3953    0.8427    1.2799 C   0  0  0  0  0  0  0  0  0  0  0  0
   -4.4393    0.7690   -1.3447 H   0  0  0  0  0  0  0  0  0  0  0  0
   -3.8968    2.2323   -0.4488 H   0  0  0  0  0  0  0  0  0  0  0  0
   -2.9776    1.6831   -1.8937 H   0  0  0  0  0  0  0  0  0  0  0  0
   -2.4090   -0.9072   -1.7337 H   0  0  0  0  0  0  0  0  0  0  0  0
   -1.2283   -2.5910   -0.5643 H   0  0  0  0  0  0  0  0  0  0  0  0
   -1.7436   -1.9280    1.0059 H   0  0  0  0  0  0  0  0  0  0  0  0
    0.0762   -1.1919    2.3768 H   0  0  0  0  0  0  0  0  0  0  0  0
    2.3925   -0.3266    2.6540 H   0  0  0  0  0  0  0  0  0  0  0  0
    0.5077   -0.9464   -1.9385 H   0  0  0  0  0  0  0  0  0  0  0  0
    3.0880    0.0408   -2.7150 H   0  0  0  0  0  0  0  0  0  0  0  0
    5.1857    0.8010   -1.2422 H   0  0  0  0  0  0  0  0  0  0  0  0
    4.5950    0.5321    1.2582 H   0  0  0  0  0  0  0  0  0  0  0  0
   -2.9504    1.7597    1.5672 H   0  0  0  0  0  0  0  0  0  0  0  0
   -1.3139    1.0487    1.4125 H   0  0  0  0  0  0  0  0  0  0  0  0
   -2.7093    0.0299    1.9672 H   0  0  0  0  0  0  0  0  0  0  0  0
  1  2  1  0
  2  3  2  3
  3  4  1  0
  4  5  1  0
  5  6  2  0
  6  7  1  0
  7  8  2  0
  8  9  1  0
  9 10  2  0
  9 11  1  0
 11 12  2  0
 12 13  1  0
  2 14  1  0
 10  5  1  0
 13  8  1  0
  1 15  1  0
  1 16  1  0
  1 17  1  0
  3 18  1  0
  4 19  1  0
  4 20  1  0
  6 21  1  0
  7 22  1  0
 10 23  1  0
 11 24  1  0
 12 25  1  0
 13 26  1  0
 14 27  1  0
 14 28  1  0
 14 29  1  0
M  END
$$$$
