
     RDKit          3D

 38 40  0  0  0  0  0  0  0  0999 V2000
   -4.7357    1.7620    0.2998 C   0  0  0  0  0  0  0  0  0  0  0  0
   -3.3357    1.2070    0.1738 C   0  0  0  0  0  0  0  0  0  0  0  0
   -2.2593    1.9920    0.4012 C   0  0  0  0  0  0  0  0  0  0  0  0
   -2.4125    3.3342    0.7734 O   0  0  0  0  0  0  0  0  0  0  0  0
   -0.8770    1.4522    0.2554 C   0  0  0  0  0  0  0  0  0  0  0  0
    0.2613    2.2800    0.3619 C   0  0  0  0  0  0  0  0  0  0  0  0
    0.1545    3.5172    0.5777 O   0  0  0  0  0  0  0  0  0  0  0  0
    1.5351    1.7317    0.2276 C   0  0  0  0  0  0  0  0  0  0  0  0
    1.6676    0.3591   -0.0158 C   0  0  0  0  0  0  0  0  0  0  0  0
    0.5758   -0.3933   -0.1038 O   0  0  0  0  0  0  0  0  0  0  0  0
   -0.6652    0.0788    0.0088 C   0  0  0  0  0  0  0  0  0  0  0  0
   -1.8119   -0.9095   -0.0921 C   0  0  0  0  0  0  0  0  0  0  0  0
   -3.1548   -0.2139   -0.2139 C   0  0  0  0  0  0  0  0  0  0  0  0
   -4.1564   -0.8841   -0.5904 O   0  0  0  0  0  0  0  0  0  0  0  0
   -1.8230   -1.7748    1.1798 C   0  0  0  0  0  0  0  0  0  0  0  0
   -1.5883   -1.8096   -1.3274 C   0  0  0  0  0  0  0  0  0  0  0  0
    2.9944   -0.2907   -0.1629 C   0  0  0  0  0  0  0  0  0  0  0  0
    4.1228    0.4190   -0.6220 C   0  0  0  0  0  0  0  0  0  0  0  0
    5.3564   -0.2252   -0.7599 C   0  0  0  0  0  0  0  0  0  0  0  0
    5.4788   -1.5811   -0.4503 C   0  0  0  0  0  0  0  0  0  0  0  0
    4.3659   -2.2985   -0.0075 C   0  0  0  0  0  0  0  0  0  0  0  0
    3.1297   -1.6605    0.1317 C   0  0  0  0  0  0  0  0  0  0  0  0
   -4.9004    2.1432    1.3298 H   0  0  0  0  0  0  0  0  0  0  0  0
   -4.8837    2.5836   -0.4327 H   0  0  0  0  0  0  0  0  0  0  0  0
   -5.5141    0.9958    0.1076 H   0  0  0  0  0  0  0  0  0  0  0  0
   -3.3040    3.7980    0.8896 H   0  0  0  0  0  0  0  0  0  0  0  0
    2.4019    2.3699    0.3405 H   0  0  0  0  0  0  0  0  0  0  0  0
   -0.8596   -2.3174    1.2962 H   0  0  0  0  0  0  0  0  0  0  0  0
   -2.6407   -2.5267    1.1375 H   0  0  0  0  0  0  0  0  0  0  0  0
   -1.9774   -1.1400    2.0797 H   0  0  0  0  0  0  0  0  0  0  0  0
   -0.6226   -2.3554   -1.2554 H   0  0  0  0  0  0  0  0  0  0  0  0
   -1.5768   -1.1965   -2.2548 H   0  0  0  0  0  0  0  0  0  0  0  0
   -2.3931   -2.5708   -1.4184 H   0  0  0  0  0  0  0  0  0  0  0  0
    4.0543    1.4618   -0.8999 H   0  0  0  0  0  0  0  0  0  0  0  0
    6.2173    0.3268   -1.1147 H   0  0  0  0  0  0  0  0  0  0  0  0
    6.4346   -2.0772   -0.5589 H   0  0  0  0  0  0  0  0  0  0  0  0
    4.4606   -3.3507    0.2282 H   0  0  0  0  0  0  0  0  0  0  0  0
    2.2812   -2.2364    0.4805 H   0  0  0  0  0  0  0  0  0  0  0  0
  1  2  1  0
  2  3  2  0
  3  4  1  0
  3  5  1  0
  5  6  1  0
  6  7  2  0
  6  8  1  0
  8  9  2  0
  9 10  1  0
 10 11  1  0
 11 12  1  0
 12 13  1  0
 13 14  2  0
 12 15  1  0
 12 16  1  0
  9 17  1  0
 17 18  2  0
 18 19  1  0
 19 20  2  0
 20 21  1  0
 21 22  2  0
 13  2  1  0
 22 17  1  0
 11  5  2  0
  1 23  1  0
  1 24  1  0
  1 25  1  0
  4 26  1  0
  8 27  1  0
 15 28  1  0
 15 29  1  0
 15 30  1  0
 16 31  1  0
 16 32  1  0
 16 33  1  0
 18 34  1  0
 19 35  1  0
 20 36  1  0
 21 37  1  0
 22 38  1  0
M  END
$$$$
