
     RDKit          3D

 30 31  0  0  0  0  0  0  0  0999 V2000
    6.1215   -1.1829   -0.4171 O   0  0  0  0  0  0  0  0  0  0  0  0
    4.9467   -0.7489   -0.2900 C   0  0  0  0  0  0  0  0  0  0  0  0
    4.5863    0.4970    0.4637 C   0  0  0  0  0  0  0  0  0  0  0  0
    3.1039    0.4907    0.2689 C   0  0  0  0  0  0  0  0  0  0  0  0
    2.7145   -0.5968   -0.4814 C   0  0  0  0  0  0  0  0  0  0  0  0
    3.8159   -1.4022   -0.8564 N   0  0  0  0  0  0  0  0  0  0  0  0
    1.3781   -0.8220   -0.8047 C   0  0  0  0  0  0  0  0  0  0  0  0
    0.4032    0.0861   -0.3395 C   0  0  0  0  0  0  0  0  0  0  0  0
    0.8142    1.2139    0.4210 C   0  0  0  0  0  0  0  0  0  0  0  0
    2.1698    1.4149    0.7301 C   0  0  0  0  0  0  0  0  0  0  0  0
   -1.0149   -0.1588   -0.6979 C   0  0  0  0  0  0  0  0  0  0  0  0
   -2.0552    0.3621   -0.0330 C   0  0  0  0  0  0  0  0  0  0  0  0
   -3.4751    0.0640   -0.4489 C   0  0  0  0  0  0  0  0  0  0  0  0
   -3.8531   -1.3760   -0.0823 C   0  0  0  0  0  0  0  0  0  0  0  0
   -4.4455    1.0526    0.2070 C   0  0  0  0  0  0  0  0  0  0  0  0
    5.0467    1.3929   -0.0035 H   0  0  0  0  0  0  0  0  0  0  0  0
    4.8482    0.4029    1.5387 H   0  0  0  0  0  0  0  0  0  0  0  0
    3.8033   -2.2788   -1.4235 H   0  0  0  0  0  0  0  0  0  0  0  0
    1.1030   -1.6864   -1.3967 H   0  0  0  0  0  0  0  0  0  0  0  0
    0.1023    1.9540    0.7577 H   0  0  0  0  0  0  0  0  0  0  0  0
    2.4827    2.2752    1.3077 H   0  0  0  0  0  0  0  0  0  0  0  0
   -1.2150   -0.8317   -1.5244 H   0  0  0  0  0  0  0  0  0  0  0  0
   -1.8937    1.0022    0.8242 H   0  0  0  0  0  0  0  0  0  0  0  0
   -3.5618    0.1867   -1.5517 H   0  0  0  0  0  0  0  0  0  0  0  0
   -4.8982   -1.5886   -0.3934 H   0  0  0  0  0  0  0  0  0  0  0  0
   -3.7651   -1.5366    1.0141 H   0  0  0  0  0  0  0  0  0  0  0  0
   -3.1881   -2.0965   -0.6041 H   0  0  0  0  0  0  0  0  0  0  0  0
   -5.4830    0.8579   -0.1396 H   0  0  0  0  0  0  0  0  0  0  0  0
   -4.1771    2.0936   -0.0738 H   0  0  0  0  0  0  0  0  0  0  0  0
   -4.4145    0.9596    1.3143 H   0  0  0  0  0  0  0  0  0  0  0  0
  1  2  2  0
  2  3  1  0
  3  4  1  0
  4  5  2  0
  5  6  1  0
  5  7  1  0
  7  8  2  0
  8  9  1  0
  9 10  2  0
  8 11  1  0
 11 12  2  0
 12 13  1  0
 13 14  1  0
 13 15  1  0
  6  2  1  0
 10  4  1  0
  3 16  1  0
  3 17  1  0
  6 18  1  0
  7 19  1  0
  9 20  1  0
 10 21  1  0
 11 22  1  0
 12 23  1  0
 13 24  1  0
 14 25  1  0
 14 26  1  0
 14 27  1  0
 15 28  1  0
 15 29  1  0
 15 30  1  0
M  END
$$$$
