
     RDKit          3D

 25 26  0  0  0  0  0  0  0  0999 V2000
    4.6111   -1.0525    1.6627 O   0  0  0  0  0  0  0  0  0  0  0  0
    3.9670   -1.3788    0.6320 C   0  0  0  0  0  0  0  0  0  0  0  0
    3.0685   -0.4119   -0.0066 C   0  0  0  0  0  0  0  0  0  0  0  0
    2.3730   -0.7331   -1.1003 C   0  0  0  0  0  0  0  0  0  0  0  0
    1.4517    0.2499   -1.7608 C   0  0  0  0  0  0  0  0  0  0  0  0
    0.2197    0.4697   -0.9250 C   0  0  0  0  0  0  0  0  0  0  0  0
    0.1272    1.5988   -0.0702 C   0  0  0  0  0  0  0  0  0  0  0  0
   -1.0079    1.7964    0.7367 C   0  0  0  0  0  0  0  0  0  0  0  0
   -2.0248    0.8482    0.6711 C   0  0  0  0  0  0  0  0  0  0  0  0
   -1.9405   -0.2480   -0.1441 C   0  0  0  0  0  0  0  0  0  0  0  0
   -0.8310   -0.4748   -0.9561 C   0  0  0  0  0  0  0  0  0  0  0  0
   -3.0370   -1.0147   -0.0272 N   0  0  0  0  0  0  0  0  0  0  0  0
   -3.8284   -0.3925    0.8765 C   0  0  0  0  0  0  0  0  0  0  0  0
   -3.2293    0.7762    1.3362 C   0  0  0  0  0  0  0  0  0  0  0  0
    4.0842   -2.3761    0.2266 H   0  0  0  0  0  0  0  0  0  0  0  0
    2.9741    0.5778    0.4248 H   0  0  0  0  0  0  0  0  0  0  0  0
    2.4726   -1.7203   -1.5371 H   0  0  0  0  0  0  0  0  0  0  0  0
    1.9873    1.2077   -1.9414 H   0  0  0  0  0  0  0  0  0  0  0  0
    1.1528   -0.1465   -2.7552 H   0  0  0  0  0  0  0  0  0  0  0  0
    0.9339    2.3199   -0.0294 H   0  0  0  0  0  0  0  0  0  0  0  0
   -1.0848    2.6563    1.3896 H   0  0  0  0  0  0  0  0  0  0  0  0
   -0.7801   -1.3528   -1.5882 H   0  0  0  0  0  0  0  0  0  0  0  0
   -3.2403   -1.9081   -0.5282 H   0  0  0  0  0  0  0  0  0  0  0  0
   -4.7941   -0.7659    1.1905 H   0  0  0  0  0  0  0  0  0  0  0  0
   -3.6249    1.4752    2.0611 H   0  0  0  0  0  0  0  0  0  0  0  0
  1  2  2  0
  2  3  1  0
  3  4  2  0
  4  5  1  0
  5  6  1  0
  6  7  2  0
  7  8  1  0
  8  9  2  0
  9 10  1  0
 10 11  2  0
 10 12  1  0
 12 13  1  0
 13 14  2  0
 11  6  1  0
 14  9  1  0
  2 15  1  0
  3 16  1  0
  4 17  1  0
  5 18  1  0
  5 19  1  0
  7 20  1  0
  8 21  1  0
 11 22  1  0
 12 23  1  0
 13 24  1  0
 14 25  1  0
M  END
$$$$
