
     RDKit          3D

 52 56  0  0  0  0  0  0  0  0999 V2000
   -2.7437    3.9779   -0.0537 C   0  0  0  0  0  0  0  0  0  0  0  0
   -1.8305    3.0737    0.5298 O   0  0  0  0  0  0  0  0  0  0  0  0
   -1.3235    2.1641   -0.4361 C   0  0  0  0  0  0  0  0  0  0  0  0
    0.1701    2.4233   -0.6744 C   0  0  0  0  0  0  0  0  0  0  0  0
    0.6531    3.8349   -1.0400 C   0  0  0  0  0  0  0  0  0  0  0  0
    2.0066    3.8417   -0.5958 O   0  0  0  0  0  0  0  0  0  0  0  0
    2.2160    2.8255    0.3221 C   0  0  0  0  0  0  0  0  0  0  0  0
    3.3011    2.6617    0.9384 O   0  0  0  0  0  0  0  0  0  0  0  0
    0.9624    2.0804    0.5804 C   0  0  2  0  0  0  0  0  0  0  0  0
    0.9780    0.5589    0.8080 C   0  0  1  0  0  0  0  0  0  0  0  0
   -0.4509    0.0143    0.7181 C   0  0  0  0  0  0  0  0  0  0  0  0
   -1.5120    0.7356    0.0900 C   0  0  0  0  0  0  0  0  0  0  0  0
   -2.7866    0.1413    0.0036 C   0  0  0  0  0  0  0  0  0  0  0  0
   -3.8254    0.8506   -0.6056 O   0  0  0  0  0  0  0  0  0  0  0  0
   -3.0233   -1.1496    0.5168 C   0  0  0  0  0  0  0  0  0  0  0  0
   -1.9662   -1.8622    1.1335 C   0  0  0  0  0  0  0  0  0  0  0  0
   -0.6969   -1.2672    1.2243 C   0  0  0  0  0  0  0  0  0  0  0  0
   -2.1916   -3.1510    1.6435 O   0  0  0  0  0  0  0  0  0  0  0  0
   -1.2089   -3.9674    2.2733 C   0  0  0  0  0  0  0  0  0  0  0  0
   -4.3283   -1.6635    0.3813 O   0  0  0  0  0  0  0  0  0  0  0  0
   -4.7965   -2.9334    0.8219 C   0  0  0  0  0  0  0  0  0  0  0  0
    1.9370   -0.1893   -0.1120 C   0  0  0  0  0  0  0  0  0  0  0  0
    1.5292   -0.6851   -1.3843 C   0  0  0  0  0  0  0  0  0  0  0  0
    2.4374   -1.3621   -2.2173 C   0  0  0  0  0  0  0  0  0  0  0  0
    3.7380   -1.5321   -1.7583 C   0  0  0  0  0  0  0  0  0  0  0  0
    4.1380   -1.0700   -0.5486 C   0  0  0  0  0  0  0  0  0  0  0  0
    3.2729   -0.3960    0.3073 C   0  0  0  0  0  0  0  0  0  0  0  0
    5.4701   -1.3805   -0.3546 O   0  0  0  0  0  0  0  0  0  0  0  0
    5.9354   -2.0813   -1.5165 C   0  0  0  0  0  0  0  0  0  0  0  0
    4.7978   -2.1565   -2.3870 O   0  0  0  0  0  0  0  0  0  0  0  0
   -3.0379    4.7262    0.7101 H   0  0  0  0  0  0  0  0  0  0  0  0
   -3.6642    3.4518   -0.3847 H   0  0  0  0  0  0  0  0  0  0  0  0
   -2.2879    4.5267   -0.9071 H   0  0  0  0  0  0  0  0  0  0  0  0
   -1.8269    2.2363   -1.4321 H   0  0  0  0  0  0  0  0  0  0  0  0
    0.4939    1.7738   -1.5167 H   0  0  0  0  0  0  0  0  0  0  0  0
    0.5970    4.0221   -2.1334 H   0  0  0  0  0  0  0  0  0  0  0  0
    0.0874    4.6123   -0.4848 H   0  0  0  0  0  0  0  0  0  0  0  0
    0.4912    2.5593    1.4695 H   0  0  0  0  0  0  0  0  0  0  0  0
    1.3185    0.4022    1.8569 H   0  0  0  0  0  0  0  0  0  0  0  0
   -4.7634    0.4806   -0.6984 H   0  0  0  0  0  0  0  0  0  0  0  0
    0.1230   -1.8025    1.6843 H   0  0  0  0  0  0  0  0  0  0  0  0
   -1.6745   -4.9294    2.5697 H   0  0  0  0  0  0  0  0  0  0  0  0
   -0.3779   -4.1786    1.5675 H   0  0  0  0  0  0  0  0  0  0  0  0
   -0.8220   -3.4653    3.1851 H   0  0  0  0  0  0  0  0  0  0  0  0
   -4.2457   -3.7473    0.3053 H   0  0  0  0  0  0  0  0  0  0  0  0
   -5.8713   -3.0273    0.5647 H   0  0  0  0  0  0  0  0  0  0  0  0
   -4.6966   -3.0196    1.9243 H   0  0  0  0  0  0  0  0  0  0  0  0
    0.5118   -0.5579   -1.7294 H   0  0  0  0  0  0  0  0  0  0  0  0
    2.1337   -1.7412   -3.1841 H   0  0  0  0  0  0  0  0  0  0  0  0
    3.6253   -0.0448    1.2686 H   0  0  0  0  0  0  0  0  0  0  0  0
    6.2734   -3.1017   -1.2387 H   0  0  0  0  0  0  0  0  0  0  0  0
    6.7542   -1.5124   -2.0047 H   0  0  0  0  0  0  0  0  0  0  0  0
  1  2  1  0
  2  3  1  0
  3  4  1  0
  4  5  1  0
  5  6  1  0
  6  7  1  0
  7  8  2  0
  7  9  1  0
  9 10  1  0
 10 11  1  0
 11 12  2  0
 12 13  1  0
 13 14  1  0
 13 15  2  0
 15 16  1  0
 16 17  2  0
 16 18  1  0
 18 19  1  0
 15 20  1  0
 20 21  1  0
 10 22  1  0
 22 23  2  0
 23 24  1  0
 24 25  2  0
 25 26  1  0
 26 27  2  0
 26 28  1  0
 28 29  1  0
 29 30  1  0
 12  3  1  0
 27 22  1  0
  9  4  1  0
 17 11  1  0
 30 25  1  0
  1 31  1  0
  1 32  1  0
  1 33  1  0
  3 34  1  0
  4 35  1  0
  5 36  1  0
  5 37  1  0
  9 38  1  1
 10 39  1  1
 14 40  1  0
 17 41  1  0
 19 42  1  0
 19 43  1  0
 19 44  1  0
 21 45  1  0
 21 46  1  0
 21 47  1  0
 23 48  1  0
 24 49  1  0
 27 50  1  0
 29 51  1  0
 29 52  1  0
M  END
$$$$
