
     RDKit          3D

 61 61  0  0  0  0  0  0  0  0999 V2000
   -8.6372    0.6321    1.1928 C   0  0  0  0  0  0  0  0  0  0  0  0
   -8.0717    1.9146    0.5858 C   0  0  0  0  0  0  0  0  0  0  0  0
   -6.7262    2.3369    1.2049 C   0  0  0  0  0  0  0  0  0  0  0  0
   -5.5867    1.3128    1.0479 C   0  0  0  0  0  0  0  0  0  0  0  0
   -5.1536    1.1170   -0.4160 C   0  0  0  0  0  0  0  0  0  0  0  0
   -4.0463    0.0622   -0.5686 C   0  0  0  0  0  0  0  0  0  0  0  0
   -2.6687    0.5700   -0.1067 C   0  0  0  0  0  0  0  0  0  0  0  0
   -1.5791   -0.5068   -0.2370 C   0  0  0  0  0  0  0  0  0  0  0  0
   -1.0598   -0.6517   -1.6790 C   0  0  0  0  0  0  0  0  0  0  0  0
   -0.1342   -1.8710   -1.8554 C   0  0  0  0  0  0  0  0  0  0  0  0
    1.2521   -1.7178   -1.2002 C   0  0  0  0  0  0  0  0  0  0  0  0
    2.2035   -0.8478   -2.0365 C   0  0  0  0  0  0  0  0  0  0  0  0
    3.5473   -0.5925   -1.3355 C   0  0  0  0  0  0  0  0  0  0  0  0
    4.3751   -1.8755   -1.1511 C   0  0  0  0  0  0  0  0  0  0  0  0
    5.8082   -1.5831   -0.6828 C   0  0  0  0  0  0  0  0  0  0  0  0
    5.8449   -1.0174    0.7244 C   0  0  0  0  0  0  0  0  0  0  0  0
    5.6300   -1.9017    1.7935 C   0  0  0  0  0  0  0  0  0  0  0  0
    5.5904   -1.4423    3.1077 C   0  0  0  0  0  0  0  0  0  0  0  0
    5.7584   -0.0852    3.3754 C   0  0  0  0  0  0  0  0  0  0  0  0
    5.9801    0.8235    2.3359 C   0  0  0  0  0  0  0  0  0  0  0  0
    6.0182    0.3685    0.9952 C   0  0  0  0  0  0  0  0  0  0  0  0
    6.2103    1.3426   -0.0952 C   0  0  0  0  0  0  0  0  0  0  0  0
    7.2293    1.2777   -0.8323 O   0  0  0  0  0  0  0  0  0  0  0  0
    5.2741    2.3495   -0.2947 O   0  0  0  0  0  0  0  0  0  0  0  0
    6.1719    2.1676    2.6694 O   0  0  0  0  0  0  0  0  0  0  0  0
   -8.6532    0.7020    2.3004 H   0  0  0  0  0  0  0  0  0  0  0  0
   -8.0343   -0.2458    0.8815 H   0  0  0  0  0  0  0  0  0  0  0  0
   -9.6761    0.4784    0.8328 H   0  0  0  0  0  0  0  0  0  0  0  0
   -8.8056    2.7297    0.7643 H   0  0  0  0  0  0  0  0  0  0  0  0
   -7.9793    1.8005   -0.5136 H   0  0  0  0  0  0  0  0  0  0  0  0
   -6.4119    3.2997    0.7477 H   0  0  0  0  0  0  0  0  0  0  0  0
   -6.8779    2.5284    2.2898 H   0  0  0  0  0  0  0  0  0  0  0  0
   -5.8798    0.3410    1.4980 H   0  0  0  0  0  0  0  0  0  0  0  0
   -4.7239    1.6934    1.6332 H   0  0  0  0  0  0  0  0  0  0  0  0
   -4.8186    2.0844   -0.8484 H   0  0  0  0  0  0  0  0  0  0  0  0
   -6.0225    0.7653   -1.0086 H   0  0  0  0  0  0  0  0  0  0  0  0
   -4.3239   -0.8544   -0.0017 H   0  0  0  0  0  0  0  0  0  0  0  0
   -3.9909   -0.2125   -1.6431 H   0  0  0  0  0  0  0  0  0  0  0  0
   -2.3790    1.4741   -0.6855 H   0  0  0  0  0  0  0  0  0  0  0  0
   -2.7276    0.8575    0.9639 H   0  0  0  0  0  0  0  0  0  0  0  0
   -0.7357   -0.2130    0.4210 H   0  0  0  0  0  0  0  0  0  0  0  0
   -1.9689   -1.4811    0.1318 H   0  0  0  0  0  0  0  0  0  0  0  0
   -1.9200   -0.7915   -2.3672 H   0  0  0  0  0  0  0  0  0  0  0  0
   -0.5446    0.2814   -1.9887 H   0  0  0  0  0  0  0  0  0  0  0  0
   -0.6374   -2.7690   -1.4332 H   0  0  0  0  0  0  0  0  0  0  0  0
   -0.0048   -2.0705   -2.9422 H   0  0  0  0  0  0  0  0  0  0  0  0
    1.6861   -2.7354   -1.1133 H   0  0  0  0  0  0  0  0  0  0  0  0
    1.1631   -1.3098   -0.1729 H   0  0  0  0  0  0  0  0  0  0  0  0
    2.3836   -1.3311   -3.0204 H   0  0  0  0  0  0  0  0  0  0  0  0
    1.7339    0.1368   -2.2262 H   0  0  0  0  0  0  0  0  0  0  0  0
    3.3645   -0.1139   -0.3493 H   0  0  0  0  0  0  0  0  0  0  0  0
    4.1267    0.1245   -1.9578 H   0  0  0  0  0  0  0  0  0  0  0  0
    3.8796   -2.5445   -0.4145 H   0  0  0  0  0  0  0  0  0  0  0  0
    4.4313   -2.4200   -2.1190 H   0  0  0  0  0  0  0  0  0  0  0  0
    6.3102   -0.9275   -1.4199 H   0  0  0  0  0  0  0  0  0  0  0  0
    6.3802   -2.5367   -0.6957 H   0  0  0  0  0  0  0  0  0  0  0  0
    5.4896   -2.9602    1.6074 H   0  0  0  0  0  0  0  0  0  0  0  0
    5.4169   -2.1368    3.9206 H   0  0  0  0  0  0  0  0  0  0  0  0
    5.7268    0.2627    4.3999 H   0  0  0  0  0  0  0  0  0  0  0  0
    5.3915    3.0306   -1.0361 H   0  0  0  0  0  0  0  0  0  0  0  0
    6.4017    2.8810    1.9881 H   0  0  0  0  0  0  0  0  0  0  0  0
  1  2  1  0
  2  3  1  0
  3  4  1  0
  4  5  1  0
  5  6  1  0
  6  7  1  0
  7  8  1  0
  8  9  1  0
  9 10  1  0
 10 11  1  0
 11 12  1  0
 12 13  1  0
 13 14  1  0
 14 15  1  0
 15 16  1  0
 16 17  2  0
 17 18  1  0
 18 19  2  0
 19 20  1  0
 20 21  2  0
 21 22  1  0
 22 23  2  0
 22 24  1  0
 20 25  1  0
 21 16  1  0
  1 26  1  0
  1 27  1  0
  1 28  1  0
  2 29  1  0
  2 30  1  0
  3 31  1  0
  3 32  1  0
  4 33  1  0
  4 34  1  0
  5 35  1  0
  5 36  1  0
  6 37  1  0
  6 38  1  0
  7 39  1  0
  7 40  1  0
  8 41  1  0
  8 42  1  0
  9 43  1  0
  9 44  1  0
 10 45  1  0
 10 46  1  0
 11 47  1  0
 11 48  1  0
 12 49  1  0
 12 50  1  0
 13 51  1  0
 13 52  1  0
 14 53  1  0
 14 54  1  0
 15 55  1  0
 15 56  1  0
 17 57  1  0
 18 58  1  0
 19 59  1  0
 24 60  1  0
 25 61  1  0
M  END
$$$$
