
     RDKit          3D

 30 32  0  0  0  0  0  0  0  0999 V2000
   -5.7871    1.1531    0.1876 C   0  0  0  0  0  0  0  0  0  0  0  0
   -4.3967    1.4571    0.1448 O   0  0  0  0  0  0  0  0  0  0  0  0
   -3.3876    0.5107   -0.0863 C   0  0  0  0  0  0  0  0  0  0  0  0
   -2.0593    0.9399   -0.1036 C   0  0  0  0  0  0  0  0  0  0  0  0
   -1.0413    0.0048   -0.3291 C   0  0  0  0  0  0  0  0  0  0  0  0
   -1.3432   -1.2748   -0.5353 O   0  0  0  0  0  0  0  0  0  0  0  0
   -2.5939   -1.7260   -0.5275 C   0  0  0  0  0  0  0  0  0  0  0  0
   -2.8158   -2.9492   -0.7256 O   0  0  0  0  0  0  0  0  0  0  0  0
   -3.6603   -0.8501   -0.3014 C   0  0  0  0  0  0  0  0  0  0  0  0
    0.3887    0.4395   -0.3651 C   0  0  1  0  0  0  0  0  0  0  0  0
    0.7924    0.9817    0.8710 O   0  0  0  0  0  0  0  0  0  0  0  0
    1.3030   -0.2918    0.5467 C   0  0  2  0  0  0  0  0  0  0  0  0
    2.7590   -0.2302    0.1941 C   0  0  0  0  0  0  0  0  0  0  0  0
    3.6770    0.3687    1.0714 C   0  0  0  0  0  0  0  0  0  0  0  0
    5.0385    0.3951    0.7526 C   0  0  0  0  0  0  0  0  0  0  0  0
    5.4913   -0.1861   -0.4355 C   0  0  0  0  0  0  0  0  0  0  0  0
    4.5837   -0.7989   -1.3044 C   0  0  0  0  0  0  0  0  0  0  0  0
    3.2215   -0.8273   -0.9889 C   0  0  0  0  0  0  0  0  0  0  0  0
   -6.1168    0.7360   -0.7874 H   0  0  0  0  0  0  0  0  0  0  0  0
   -6.3559    2.0844    0.3864 H   0  0  0  0  0  0  0  0  0  0  0  0
   -5.9945    0.4285    1.0031 H   0  0  0  0  0  0  0  0  0  0  0  0
   -1.8228    1.9849    0.0565 H   0  0  0  0  0  0  0  0  0  0  0  0
   -4.6738   -1.2295   -0.2972 H   0  0  0  0  0  0  0  0  0  0  0  0
    0.7934    1.0156   -1.2243 H   0  0  0  0  0  0  0  0  0  0  0  0
    0.9103   -1.0812    1.2225 H   0  0  0  0  0  0  0  0  0  0  0  0
    3.3384    0.8141    1.9987 H   0  0  0  0  0  0  0  0  0  0  0  0
    5.7429    0.8628    1.4282 H   0  0  0  0  0  0  0  0  0  0  0  0
    6.5454   -0.1659   -0.6803 H   0  0  0  0  0  0  0  0  0  0  0  0
    4.9361   -1.2547   -2.2207 H   0  0  0  0  0  0  0  0  0  0  0  0
    2.5275   -1.3111   -1.6653 H   0  0  0  0  0  0  0  0  0  0  0  0
  1  2  1  0
  2  3  1  0
  3  4  1  0
  4  5  2  0
  5  6  1  0
  6  7  1  0
  7  8  2  0
  7  9  1  0
  5 10  1  0
 10 11  1  0
 11 12  1  0
 12 13  1  0
 13 14  2  0
 14 15  1  0
 15 16  2  0
 16 17  1  0
 17 18  2  0
  9  3  2  0
 12 10  1  0
 18 13  1  0
  1 19  1  0
  1 20  1  0
  1 21  1  0
  4 22  1  0
  9 23  1  0
 10 24  1  6
 12 25  1  1
 14 26  1  0
 15 27  1  0
 16 28  1  0
 17 29  1  0
 18 30  1  0
M  END
$$$$
