
     RDKit          3D

 33 34  0  0  0  0  0  0  0  0999 V2000
    4.5656    1.1380    1.7780 C   0  0  0  0  0  0  0  0  0  0  0  0
    4.6382   -0.0384    0.9791 O   0  0  0  0  0  0  0  0  0  0  0  0
    3.5806   -0.5327    0.2015 C   0  0  0  0  0  0  0  0  0  0  0  0
    2.3287    0.1001    0.1363 C   0  0  0  0  0  0  0  0  0  0  0  0
    1.3228   -0.4592   -0.6672 C   0  0  0  0  0  0  0  0  0  0  0  0
    1.5623   -1.5806   -1.3453 O   0  0  0  0  0  0  0  0  0  0  0  0
    2.7342   -2.2068   -1.3092 C   0  0  0  0  0  0  0  0  0  0  0  0
    2.8978   -3.2616   -1.9763 O   0  0  0  0  0  0  0  0  0  0  0  0
    3.7814   -1.7008   -0.5349 C   0  0  0  0  0  0  0  0  0  0  0  0
   -0.0438    0.1782   -0.7458 C   0  0  2  0  0  0  0  0  0  0  0  0
   -1.0596   -0.5876    0.1419 C   0  0  2  0  0  0  0  0  0  0  0  0
   -2.4531    0.0036    0.0376 C   0  0  0  0  0  0  0  0  0  0  0  0
   -3.4956   -0.7445   -0.5398 C   0  0  0  0  0  0  0  0  0  0  0  0
   -4.7801   -0.2027   -0.6484 C   0  0  0  0  0  0  0  0  0  0  0  0
   -5.0371    1.0897   -0.1855 C   0  0  0  0  0  0  0  0  0  0  0  0
   -4.0097    1.8439    0.3856 C   0  0  0  0  0  0  0  0  0  0  0  0
   -2.7234    1.3073    0.4968 C   0  0  0  0  0  0  0  0  0  0  0  0
   -0.6455   -0.6305    1.4866 O   0  0  0  0  0  0  0  0  0  0  0  0
   -0.4764    0.2318   -2.0838 O   0  0  0  0  0  0  0  0  0  0  0  0
    3.7772    1.0257    2.5520 H   0  0  0  0  0  0  0  0  0  0  0  0
    4.3512    2.0207    1.1391 H   0  0  0  0  0  0  0  0  0  0  0  0
    5.5405    1.2936    2.2837 H   0  0  0  0  0  0  0  0  0  0  0  0
    2.1311    1.0035    0.6977 H   0  0  0  0  0  0  0  0  0  0  0  0
    4.7376   -2.2091   -0.5027 H   0  0  0  0  0  0  0  0  0  0  0  0
    0.0260    1.2279   -0.3856 H   0  0  0  0  0  0  0  0  0  0  0  0
   -1.0875   -1.6413   -0.2150 H   0  0  0  0  0  0  0  0  0  0  0  0
   -3.3163   -1.7468   -0.9084 H   0  0  0  0  0  0  0  0  0  0  0  0
   -5.5765   -0.7854   -1.0931 H   0  0  0  0  0  0  0  0  0  0  0  0
   -6.0320    1.5073   -0.2711 H   0  0  0  0  0  0  0  0  0  0  0  0
   -4.2095    2.8466    0.7411 H   0  0  0  0  0  0  0  0  0  0  0  0
   -1.9415    1.9122    0.9368 H   0  0  0  0  0  0  0  0  0  0  0  0
   -0.4428    0.2961    1.7782 H   0  0  0  0  0  0  0  0  0  0  0  0
   -0.6446   -0.6982   -2.3891 H   0  0  0  0  0  0  0  0  0  0  0  0
  1  2  1  0
  2  3  1  0
  3  4  1  0
  4  5  2  0
  5  6  1  0
  6  7  1  0
  7  8  2  0
  7  9  1  0
  5 10  1  0
 10 11  1  0
 11 12  1  0
 12 13  2  0
 13 14  1  0
 14 15  2  0
 15 16  1  0
 16 17  2  0
 11 18  1  0
 10 19  1  0
  9  3  2  0
 17 12  1  0
  1 20  1  0
  1 21  1  0
  1 22  1  0
  4 23  1  0
  9 24  1  0
 10 25  1  1
 11 26  1  6
 13 27  1  0
 14 28  1  0
 15 29  1  0
 16 30  1  0
 17 31  1  0
 18 32  1  0
 19 33  1  0
M  END
$$$$
