
     RDKit          3D

 52 51  0  0  0  0  0  0  0  0999 V2000
   -7.4653    1.1629   -2.8460 C   0  0  0  0  0  0  0  0  0  0  0  0
   -6.8846    2.4011   -2.1642 C   0  0  0  0  0  0  0  0  0  0  0  0
   -6.7666    2.2489   -0.6371 C   0  0  0  0  0  0  0  0  0  0  0  0
   -5.8385    1.1137   -0.1674 C   0  0  0  0  0  0  0  0  0  0  0  0
   -4.3743    1.3253   -0.5902 C   0  0  0  0  0  0  0  0  0  0  0  0
   -3.4335    0.2564   -0.0091 C   0  0  0  0  0  0  0  0  0  0  0  0
   -3.0699    0.5287    1.4612 C   0  0  0  0  0  0  0  0  0  0  0  0
   -2.1860   -0.5748    2.0647 C   0  0  0  0  0  0  0  0  0  0  0  0
   -0.7511   -0.5560    1.5123 C   0  0  0  0  0  0  0  0  0  0  0  0
    0.1535   -1.5537    2.2583 C   0  0  0  0  0  0  0  0  0  0  0  0
    1.5363   -1.4652    1.7615 C   0  0  0  0  0  0  0  0  0  0  0  0
    2.6683   -1.3922    1.3536 C   0  0  0  0  0  0  0  0  0  0  0  0
    3.9929   -1.3065    0.8749 C   0  0  0  0  0  0  0  0  0  0  0  0
    5.1241   -1.2340    0.4648 C   0  0  0  0  0  0  0  0  0  0  0  0
    6.5026   -1.1471   -0.0358 C   0  0  0  0  0  0  0  0  0  0  0  0
    6.8625    0.2313   -0.1164 O   0  0  0  0  0  0  0  0  0  0  0  0
    8.1846    0.6805   -0.2119 C   0  0  0  0  0  0  0  0  0  0  0  0
    9.1486   -0.1309   -0.1598 O   0  0  0  0  0  0  0  0  0  0  0  0
    8.4565    2.1423   -0.3180 C   0  0  0  0  0  0  0  0  0  0  0  0
    6.6178   -1.8066   -1.4222 C   0  0  0  0  0  0  0  0  0  0  0  0
    6.4210   -3.3220   -1.3635 C   0  0  0  0  0  0  0  0  0  0  0  0
   -0.3206   -2.8709    2.1305 O   0  0  0  0  0  0  0  0  0  0  0  0
   -7.6753    1.3931   -3.9118 H   0  0  0  0  0  0  0  0  0  0  0  0
   -8.4143    0.8575   -2.3563 H   0  0  0  0  0  0  0  0  0  0  0  0
   -6.7416    0.3223   -2.8128 H   0  0  0  0  0  0  0  0  0  0  0  0
   -7.5593    3.2596   -2.3726 H   0  0  0  0  0  0  0  0  0  0  0  0
   -5.8997    2.6494   -2.6116 H   0  0  0  0  0  0  0  0  0  0  0  0
   -6.4032    3.2100   -0.2123 H   0  0  0  0  0  0  0  0  0  0  0  0
   -7.7806    2.0730   -0.2160 H   0  0  0  0  0  0  0  0  0  0  0  0
   -5.9023    1.0761    0.9397 H   0  0  0  0  0  0  0  0  0  0  0  0
   -6.2056    0.1361   -0.5451 H   0  0  0  0  0  0  0  0  0  0  0  0
   -4.0290    2.3388   -0.2897 H   0  0  0  0  0  0  0  0  0  0  0  0
   -4.3095    1.2600   -1.6970 H   0  0  0  0  0  0  0  0  0  0  0  0
   -2.5038    0.2629   -0.6163 H   0  0  0  0  0  0  0  0  0  0  0  0
   -3.8955   -0.7501   -0.1111 H   0  0  0  0  0  0  0  0  0  0  0  0
   -3.9976    0.5819    2.0678 H   0  0  0  0  0  0  0  0  0  0  0  0
   -2.5567    1.5114    1.5489 H   0  0  0  0  0  0  0  0  0  0  0  0
   -2.6517   -1.5681    1.8830 H   0  0  0  0  0  0  0  0  0  0  0  0
   -2.1477   -0.4181    3.1651 H   0  0  0  0  0  0  0  0  0  0  0  0
   -0.7587   -0.8086    0.4302 H   0  0  0  0  0  0  0  0  0  0  0  0
   -0.3309    0.4681    1.6269 H   0  0  0  0  0  0  0  0  0  0  0  0
    0.1684   -1.2904    3.3375 H   0  0  0  0  0  0  0  0  0  0  0  0
    7.1666   -1.6635    0.6922 H   0  0  0  0  0  0  0  0  0  0  0  0
    9.3336    2.3205   -0.9754 H   0  0  0  0  0  0  0  0  0  0  0  0
    8.6647    2.5539    0.6913 H   0  0  0  0  0  0  0  0  0  0  0  0
    7.5748    2.6614   -0.7487 H   0  0  0  0  0  0  0  0  0  0  0  0
    7.6269   -1.6078   -1.8420 H   0  0  0  0  0  0  0  0  0  0  0  0
    5.8720   -1.3632   -2.1183 H   0  0  0  0  0  0  0  0  0  0  0  0
    6.5596   -3.7531   -2.3774 H   0  0  0  0  0  0  0  0  0  0  0  0
    5.3968   -3.5708   -1.0139 H   0  0  0  0  0  0  0  0  0  0  0  0
    7.1650   -3.7814   -0.6785 H   0  0  0  0  0  0  0  0  0  0  0  0
   -0.3438   -3.0920    1.1619 H   0  0  0  0  0  0  0  0  0  0  0  0
  1  2  1  0
  2  3  1  0
  3  4  1  0
  4  5  1  0
  5  6  1  0
  6  7  1  0
  7  8  1  0
  8  9  1  0
  9 10  1  0
 10 11  1  0
 11 12  3  0
 12 13  1  0
 13 14  3  0
 14 15  1  0
 15 16  1  0
 16 17  1  0
 17 18  2  0
 17 19  1  0
 15 20  1  0
 20 21  1  0
 10 22  1  0
  1 23  1  0
  1 24  1  0
  1 25  1  0
  2 26  1  0
  2 27  1  0
  3 28  1  0
  3 29  1  0
  4 30  1  0
  4 31  1  0
  5 32  1  0
  5 33  1  0
  6 34  1  0
  6 35  1  0
  7 36  1  0
  7 37  1  0
  8 38  1  0
  8 39  1  0
  9 40  1  0
  9 41  1  0
 10 42  1  0
 15 43  1  0
 19 44  1  0
 19 45  1  0
 19 46  1  0
 20 47  1  0
 20 48  1  0
 21 49  1  0
 21 50  1  0
 21 51  1  0
 22 52  1  0
M  END
$$$$
