
     RDKit          3D

 57 60  0  0  0  0  0  0  0  0999 V2000
   -0.0102    3.1182    2.5108 C   0  0  0  0  0  0  0  0  0  0  0  0
    0.2286    2.1329    1.5112 O   0  0  0  0  0  0  0  0  0  0  0  0
   -0.7485    1.2665    0.9895 C   0  0  0  0  0  0  0  0  0  0  0  0
   -2.0819    1.3192    1.4180 C   0  0  0  0  0  0  0  0  0  0  0  0
   -3.0440    0.4752    0.8591 C   0  0  0  0  0  0  0  0  0  0  0  0
   -4.4735    0.5533    1.3350 C   0  0  0  0  0  0  0  0  0  0  0  0
   -5.4215    0.1783    0.1855 C   0  0  2  0  0  0  0  0  0  0  0  0
   -6.8644    0.0636    0.6722 C   0  0  0  0  0  0  0  0  0  0  0  0
   -5.0023   -1.0884   -0.4157 N   0  0  0  0  0  0  0  0  0  0  0  0
   -3.7531   -1.4100   -0.5966 C   0  0  0  0  0  0  0  0  0  0  0  0
   -2.6746   -0.4945   -0.0972 C   0  0  0  0  0  0  0  0  0  0  0  0
   -1.3292   -0.5638   -0.5368 C   0  0  0  0  0  0  0  0  0  0  0  0
   -0.3726    0.3394   -0.0000 C   0  0  0  0  0  0  0  0  0  0  0  0
    1.0163    0.4010   -0.5169 C   0  0  0  0  0  0  0  0  0  0  0  0
    1.2886    0.9890   -1.7701 C   0  0  0  0  0  0  0  0  0  0  0  0
    0.1893    1.5732   -2.6200 C   0  0  0  0  0  0  0  0  0  0  0  0
    2.5951    0.9706   -2.2662 C   0  0  0  0  0  0  0  0  0  0  0  0
    3.6500    0.4677   -1.4960 C   0  0  0  0  0  0  0  0  0  0  0  0
    3.4088   -0.0502   -0.1936 C   0  0  0  0  0  0  0  0  0  0  0  0
    2.0610   -0.1470    0.2557 C   0  0  0  0  0  0  0  0  0  0  0  0
    1.7037   -0.8228    1.4275 O   0  0  0  0  0  0  0  0  0  0  0  0
    4.5260   -0.4120    0.6119 C   0  0  0  0  0  0  0  0  0  0  0  0
    4.3447   -0.7441    1.9645 O   0  0  0  0  0  0  0  0  0  0  0  0
    5.3858   -1.1066    2.8664 C   0  0  0  0  0  0  0  0  0  0  0  0
    5.8199   -0.3820    0.0529 C   0  0  0  0  0  0  0  0  0  0  0  0
    6.0243    0.0573   -1.2513 C   0  0  0  0  0  0  0  0  0  0  0  0
    4.9514    0.4996   -2.0157 C   0  0  0  0  0  0  0  0  0  0  0  0
   -0.9901   -1.5026   -1.5256 O   0  0  0  0  0  0  0  0  0  0  0  0
    0.1756   -2.3215   -1.5092 C   0  0  0  0  0  0  0  0  0  0  0  0
   -3.4595   -2.7431   -1.2194 C   0  0  0  0  0  0  0  0  0  0  0  0
    0.9391    3.6483    2.7301 H   0  0  0  0  0  0  0  0  0  0  0  0
   -0.7544    3.8580    2.1477 H   0  0  0  0  0  0  0  0  0  0  0  0
   -0.3713    2.6360    3.4436 H   0  0  0  0  0  0  0  0  0  0  0  0
   -2.3856    2.0288    2.1759 H   0  0  0  0  0  0  0  0  0  0  0  0
   -4.6022   -0.1516    2.1852 H   0  0  0  0  0  0  0  0  0  0  0  0
   -4.7140    1.5810    1.6864 H   0  0  0  0  0  0  0  0  0  0  0  0
   -5.3725    0.9738   -0.5914 H   0  0  0  0  0  0  0  0  0  0  0  0
   -6.9547   -0.7374    1.4371 H   0  0  0  0  0  0  0  0  0  0  0  0
   -7.1971    1.0269    1.1144 H   0  0  0  0  0  0  0  0  0  0  0  0
   -7.5318   -0.1806   -0.1815 H   0  0  0  0  0  0  0  0  0  0  0  0
   -0.3852    0.7543   -3.1005 H   0  0  0  0  0  0  0  0  0  0  0  0
    0.5990    2.2319   -3.4150 H   0  0  0  0  0  0  0  0  0  0  0  0
   -0.4962    2.1880   -1.9994 H   0  0  0  0  0  0  0  0  0  0  0  0
    2.7959    1.3764   -3.2519 H   0  0  0  0  0  0  0  0  0  0  0  0
    2.2263   -1.6018    1.8024 H   0  0  0  0  0  0  0  0  0  0  0  0
    6.1105   -0.2715    2.9696 H   0  0  0  0  0  0  0  0  0  0  0  0
    4.9444   -1.3170    3.8620 H   0  0  0  0  0  0  0  0  0  0  0  0
    5.9014   -2.0220    2.5070 H   0  0  0  0  0  0  0  0  0  0  0  0
    6.6856   -0.6760    0.6298 H   0  0  0  0  0  0  0  0  0  0  0  0
    7.0258    0.0837   -1.6614 H   0  0  0  0  0  0  0  0  0  0  0  0
    5.1404    0.8741   -3.0151 H   0  0  0  0  0  0  0  0  0  0  0  0
    1.0271   -1.7999   -1.9885 H   0  0  0  0  0  0  0  0  0  0  0  0
   -0.0271   -3.2409   -2.0953 H   0  0  0  0  0  0  0  0  0  0  0  0
    0.4301   -2.6170   -0.4693 H   0  0  0  0  0  0  0  0  0  0  0  0
   -4.3626   -3.3903   -1.2010 H   0  0  0  0  0  0  0  0  0  0  0  0
   -3.1547   -2.6070   -2.2778 H   0  0  0  0  0  0  0  0  0  0  0  0
   -2.6604   -3.2645   -0.6521 H   0  0  0  0  0  0  0  0  0  0  0  0
  1  2  1  0
  2  3  1  0
  3  4  2  0
  4  5  1  0
  5  6  1  0
  6  7  1  0
  7  8  1  0
  7  9  1  0
  9 10  2  0
 10 11  1  0
 11 12  1  0
 12 13  2  0
 13 14  1  0
 14 15  2  0
 15 16  1  0
 15 17  1  0
 17 18  2  0
 18 19  1  0
 19 20  2  0
 20 21  1  0
 19 22  1  0
 22 23  1  0
 23 24  1  0
 22 25  2  0
 25 26  1  0
 26 27  2  0
 12 28  1  0
 28 29  1  0
 10 30  1  0
 13  3  1  0
 20 14  1  0
 11  5  2  0
 27 18  1  0
  1 31  1  0
  1 32  1  0
  1 33  1  0
  4 34  1  0
  6 35  1  0
  6 36  1  0
  7 37  1  6
  8 38  1  0
  8 39  1  0
  8 40  1  0
 16 41  1  0
 16 42  1  0
 16 43  1  0
 17 44  1  0
 21 45  1  0
 24 46  1  0
 24 47  1  0
 24 48  1  0
 25 49  1  0
 26 50  1  0
 27 51  1  0
 29 52  1  0
 29 53  1  0
 29 54  1  0
 30 55  1  0
 30 56  1  0
 30 57  1  0
M  END
$$$$
