
     RDKit          3D

 65 68  0  0  0  0  0  0  0  0999 V2000
    0.3764   -4.0991   -1.9469 C   0  0  0  0  0  0  0  0  0  0  0  0
    0.4803   -2.8980   -1.1889 O   0  0  0  0  0  0  0  0  0  0  0  0
   -0.5939   -2.0399   -0.8952 C   0  0  0  0  0  0  0  0  0  0  0  0
   -1.8961   -2.3000   -1.3482 C   0  0  0  0  0  0  0  0  0  0  0  0
   -2.9593   -1.4415   -1.0205 C   0  0  0  0  0  0  0  0  0  0  0  0
   -4.2694   -1.6976   -1.4618 O   0  0  0  0  0  0  0  0  0  0  0  0
   -4.6601   -2.8219   -2.2427 C   0  0  0  0  0  0  0  0  0  0  0  0
   -2.7165   -0.2956   -0.2317 C   0  0  0  0  0  0  0  0  0  0  0  0
   -1.4020    0.0028    0.1725 C   0  0  0  0  0  0  0  0  0  0  0  0
   -0.3471   -0.8900   -0.1297 C   0  0  0  0  0  0  0  0  0  0  0  0
    1.0374   -0.6327    0.3502 C   0  0  0  0  0  0  0  0  0  0  0  0
    1.4232   -1.1012    1.6219 C   0  0  0  0  0  0  0  0  0  0  0  0
    0.4564   -1.8573    2.4999 C   0  0  0  0  0  0  0  0  0  0  0  0
    2.7167   -0.8515    2.0885 C   0  0  0  0  0  0  0  0  0  0  0  0
    3.6539   -0.1486    1.3126 C   0  0  0  0  0  0  0  0  0  0  0  0
    3.2859    0.3241    0.0262 C   0  0  0  0  0  0  0  0  0  0  0  0
    1.9657    0.0770   -0.4540 C   0  0  0  0  0  0  0  0  0  0  0  0
    1.5964    0.5528   -1.7292 C   0  0  0  0  0  0  0  0  0  0  0  0
    2.5014    1.2495   -2.5196 C   0  0  0  0  0  0  0  0  0  0  0  0
    3.7903    1.4921   -2.0626 C   0  0  0  0  0  0  0  0  0  0  0  0
    4.2021    1.0409   -0.7952 C   0  0  0  0  0  0  0  0  0  0  0  0
    5.5076    1.2938   -0.3378 O   0  0  0  0  0  0  0  0  0  0  0  0
    6.5078    2.0013   -1.0638 C   0  0  0  0  0  0  0  0  0  0  0  0
    4.9514    0.0888    1.8014 O   0  0  0  0  0  0  0  0  0  0  0  0
    5.4424   -0.3337    3.0702 C   0  0  0  0  0  0  0  0  0  0  0  0
   -1.1567    1.2784    0.9264 C   0  0  0  0  0  0  0  0  0  0  0  0
   -2.1339    2.3576    0.4462 C   0  0  1  0  0  0  0  0  0  0  0  0
   -3.5220    1.9277    0.7457 N   0  0  0  0  0  0  0  0  0  0  0  0
   -3.8906    0.5785    0.2156 C   0  0  2  0  0  0  0  0  0  0  0  0
   -4.6663   -0.1608    1.3130 C   0  0  0  0  0  0  0  0  0  0  0  0
   -4.5146    2.9353    0.3151 C   0  0  0  0  0  0  0  0  0  0  0  0
   -1.7839    3.6831    1.1509 C   0  0  0  0  0  0  0  0  0  0  0  0
    0.0217   -3.8728   -2.9746 H   0  0  0  0  0  0  0  0  0  0  0  0
    1.3767   -4.5728   -2.0128 H   0  0  0  0  0  0  0  0  0  0  0  0
   -0.3184   -4.8069   -1.4474 H   0  0  0  0  0  0  0  0  0  0  0  0
   -2.0843   -3.1766   -1.9485 H   0  0  0  0  0  0  0  0  0  0  0  0
   -4.1282   -2.8139   -3.2171 H   0  0  0  0  0  0  0  0  0  0  0  0
   -5.7508   -2.7670   -2.4355 H   0  0  0  0  0  0  0  0  0  0  0  0
   -4.4429   -3.7616   -1.6928 H   0  0  0  0  0  0  0  0  0  0  0  0
    0.0504   -2.7335    1.9512 H   0  0  0  0  0  0  0  0  0  0  0  0
   -0.3815   -1.1912    2.7955 H   0  0  0  0  0  0  0  0  0  0  0  0
    0.9438   -2.2330    3.4251 H   0  0  0  0  0  0  0  0  0  0  0  0
    2.9915   -1.2132    3.0701 H   0  0  0  0  0  0  0  0  0  0  0  0
    0.6038    0.3924   -2.1288 H   0  0  0  0  0  0  0  0  0  0  0  0
    2.2002    1.6058   -3.4966 H   0  0  0  0  0  0  0  0  0  0  0  0
    4.4640    2.0372   -2.7091 H   0  0  0  0  0  0  0  0  0  0  0  0
    6.7373    1.4724   -2.0121 H   0  0  0  0  0  0  0  0  0  0  0  0
    7.4323    2.0498   -0.4529 H   0  0  0  0  0  0  0  0  0  0  0  0
    6.1669    3.0365   -1.2721 H   0  0  0  0  0  0  0  0  0  0  0  0
    4.8454    0.1292    3.8840 H   0  0  0  0  0  0  0  0  0  0  0  0
    6.4975   -0.0074    3.1766 H   0  0  0  0  0  0  0  0  0  0  0  0
    5.4043   -1.4410    3.1452 H   0  0  0  0  0  0  0  0  0  0  0  0
   -1.2939    1.0906    2.0137 H   0  0  0  0  0  0  0  0  0  0  0  0
   -0.1196    1.6387    0.7589 H   0  0  0  0  0  0  0  0  0  0  0  0
   -2.0047    2.5007   -0.6524 H   0  0  0  0  0  0  0  0  0  0  0  0
   -4.5622    0.6834   -0.6682 H   0  0  0  0  0  0  0  0  0  0  0  0
   -4.0144   -0.3283    2.1976 H   0  0  0  0  0  0  0  0  0  0  0  0
   -5.5452    0.4371    1.6318 H   0  0  0  0  0  0  0  0  0  0  0  0
   -5.0374   -1.1424    0.9505 H   0  0  0  0  0  0  0  0  0  0  0  0
   -4.3553    3.2260   -0.7472 H   0  0  0  0  0  0  0  0  0  0  0  0
   -4.4625    3.8332    0.9635 H   0  0  0  0  0  0  0  0  0  0  0  0
   -5.5509    2.5466    0.4268 H   0  0  0  0  0  0  0  0  0  0  0  0
   -2.3131    4.5346    0.6756 H   0  0  0  0  0  0  0  0  0  0  0  0
   -2.0556    3.6338    2.2276 H   0  0  0  0  0  0  0  0  0  0  0  0
   -0.6974    3.8994    1.0652 H   0  0  0  0  0  0  0  0  0  0  0  0
  1  2  1  0
  2  3  1  0
  3  4  2  0
  4  5  1  0
  5  6  1  0
  6  7  1  0
  5  8  2  0
  8  9  1  0
  9 10  2  0
 10 11  1  0
 11 12  2  0
 12 13  1  0
 12 14  1  0
 14 15  2  0
 15 16  1  0
 16 17  2  0
 17 18  1  0
 18 19  2  0
 19 20  1  0
 20 21  2  0
 21 22  1  0
 22 23  1  0
 15 24  1  0
 24 25  1  0
  9 26  1  0
 26 27  1  0
 27 28  1  0
 28 29  1  0
 29 30  1  0
 28 31  1  0
 27 32  1  0
 10  3  1  0
 17 11  1  0
 29  8  1  0
 21 16  1  0
  1 33  1  0
  1 34  1  0
  1 35  1  0
  4 36  1  0
  7 37  1  0
  7 38  1  0
  7 39  1  0
 13 40  1  0
 13 41  1  0
 13 42  1  0
 14 43  1  0
 18 44  1  0
 19 45  1  0
 20 46  1  0
 23 47  1  0
 23 48  1  0
 23 49  1  0
 25 50  1  0
 25 51  1  0
 25 52  1  0
 26 53  1  0
 26 54  1  0
 27 55  1  6
 29 56  1  6
 30 57  1  0
 30 58  1  0
 30 59  1  0
 31 60  1  0
 31 61  1  0
 31 62  1  0
 32 63  1  0
 32 64  1  0
 32 65  1  0
M  END
$$$$
