
     RDKit          3D

 30 31  0  0  0  0  0  0  0  0999 V2000
   -2.5263    2.8802   -0.1368 C   0  0  0  0  0  0  0  0  0  0  0  0
   -1.2553    2.2632   -0.3111 O   0  0  0  0  0  0  0  0  0  0  0  0
   -0.9236    0.9119   -0.0804 C   0  0  0  0  0  0  0  0  0  0  0  0
   -1.8722   -0.0414    0.3702 C   0  0  0  0  0  0  0  0  0  0  0  0
   -3.2052    0.3399    0.5927 O   0  0  0  0  0  0  0  0  0  0  0  0
   -4.2420   -0.5266    1.0433 C   0  0  0  0  0  0  0  0  0  0  0  0
   -1.4611   -1.3631    0.5959 C   0  0  0  0  0  0  0  0  0  0  0  0
   -0.1482   -1.7546    0.3657 C   0  0  0  0  0  0  0  0  0  0  0  0
    0.8064   -0.8433   -0.1139 C   0  0  0  0  0  0  0  0  0  0  0  0
    0.4198    0.5076   -0.3100 C   0  0  0  0  0  0  0  0  0  0  0  0
    1.4584    1.4827   -0.7337 C   0  0  0  0  0  0  0  0  0  0  0  0
    1.1779    2.6912   -0.9583 O   0  0  0  0  0  0  0  0  0  0  0  0
    2.8447    1.0348   -0.8876 C   0  0  0  0  0  0  0  0  0  0  0  0
    3.7363    1.8684   -1.2048 O   0  0  0  0  0  0  0  0  0  0  0  0
    3.1835   -0.3899   -0.6906 C   0  0  0  0  0  0  0  0  0  0  0  0
    2.2195   -1.2843   -0.3854 C   0  0  0  0  0  0  0  0  0  0  0  0
    2.5759   -2.6383   -0.3488 O   0  0  0  0  0  0  0  0  0  0  0  0
    4.5961   -0.8572   -0.9470 C   0  0  0  0  0  0  0  0  0  0  0  0
   -3.2748    2.4193   -0.8150 H   0  0  0  0  0  0  0  0  0  0  0  0
   -2.4405    3.9544   -0.3992 H   0  0  0  0  0  0  0  0  0  0  0  0
   -2.8472    2.8093    0.9236 H   0  0  0  0  0  0  0  0  0  0  0  0
   -5.1861    0.0502    1.1220 H   0  0  0  0  0  0  0  0  0  0  0  0
   -3.9913   -0.9340    2.0454 H   0  0  0  0  0  0  0  0  0  0  0  0
   -4.3915   -1.3537    0.3175 H   0  0  0  0  0  0  0  0  0  0  0  0
   -2.1556   -2.1084    0.9585 H   0  0  0  0  0  0  0  0  0  0  0  0
    0.1012   -2.7788    0.5913 H   0  0  0  0  0  0  0  0  0  0  0  0
    1.9170   -3.4002   -0.2842 H   0  0  0  0  0  0  0  0  0  0  0  0
    4.6585   -1.3129   -1.9574 H   0  0  0  0  0  0  0  0  0  0  0  0
    4.9045   -1.6072   -0.1877 H   0  0  0  0  0  0  0  0  0  0  0  0
    5.3210   -0.0190   -0.8885 H   0  0  0  0  0  0  0  0  0  0  0  0
  1  2  1  0
  2  3  1  0
  3  4  2  0
  4  5  1  0
  5  6  1  0
  4  7  1  0
  7  8  2  0
  8  9  1  0
  9 10  2  0
 10 11  1  0
 11 12  2  0
 11 13  1  0
 13 14  2  0
 13 15  1  0
 15 16  2  0
 16 17  1  0
 15 18  1  0
 10  3  1  0
 16  9  1  0
  1 19  1  0
  1 20  1  0
  1 21  1  0
  6 22  1  0
  6 23  1  0
  6 24  1  0
  7 25  1  0
  8 26  1  0
 17 27  1  0
 18 28  1  0
 18 29  1  0
 18 30  1  0
M  END
$$$$
