
     RDKit          3D

 62 65  0  0  0  0  0  0  0  0999 V2000
    0.4277   -2.6591   -3.4774 C   0  0  0  0  0  0  0  0  0  0  0  0
    0.7120   -1.9651   -2.2674 O   0  0  0  0  0  0  0  0  0  0  0  0
   -0.2538   -1.3514   -1.4513 C   0  0  0  0  0  0  0  0  0  0  0  0
   -1.6159   -1.3623   -1.7795 C   0  0  0  0  0  0  0  0  0  0  0  0
   -2.5581   -0.7120   -0.9727 C   0  0  0  0  0  0  0  0  0  0  0  0
   -4.0092   -0.8007   -1.3817 C   0  0  0  0  0  0  0  0  0  0  0  0
   -4.9422   -0.2789   -0.2799 C   0  0  2  0  0  0  0  0  0  0  0  0
   -6.4006   -0.1919   -0.7539 C   0  0  0  0  0  0  0  0  0  0  0  0
   -4.4515    1.0062    0.2709 N   0  0  0  0  0  0  0  0  0  0  0  0
   -3.1837    0.7726    1.0166 C   0  0  1  0  0  0  0  0  0  0  0  0
   -2.1361    0.0313    0.1619 C   0  0  0  0  0  0  0  0  0  0  0  0
   -0.7746   -0.0573    0.5504 C   0  0  0  0  0  0  0  0  0  0  0  0
    0.1613   -0.7179   -0.2710 C   0  0  0  0  0  0  0  0  0  0  0  0
    1.5951   -0.7464    0.1117 C   0  0  0  0  0  0  0  0  0  0  0  0
    2.1671   -1.9340    0.6225 C   0  0  0  0  0  0  0  0  0  0  0  0
    1.3622   -3.2020    0.7691 C   0  0  0  0  0  0  0  0  0  0  0  0
    3.5210   -1.9533    0.9704 C   0  0  0  0  0  0  0  0  0  0  0  0
    4.3110   -0.8051    0.8543 C   0  0  0  0  0  0  0  0  0  0  0  0
    3.7528    0.4026    0.3590 C   0  0  0  0  0  0  0  0  0  0  0  0
    2.3872    0.4198   -0.0252 C   0  0  0  0  0  0  0  0  0  0  0  0
    1.8299    1.5906   -0.5528 O   0  0  0  0  0  0  0  0  0  0  0  0
    4.5831    1.5532    0.2566 C   0  0  0  0  0  0  0  0  0  0  0  0
    4.0515    2.7623   -0.2256 O   0  0  0  0  0  0  0  0  0  0  0  0
    4.7825    3.9760   -0.3709 C   0  0  0  0  0  0  0  0  0  0  0  0
    5.9353    1.4666    0.6442 C   0  0  0  0  0  0  0  0  0  0  0  0
    6.4644    0.2720    1.1247 C   0  0  0  0  0  0  0  0  0  0  0  0
    5.6605   -0.8578    1.2303 C   0  0  0  0  0  0  0  0  0  0  0  0
   -0.3366    0.5073    1.7500 O   0  0  0  0  0  0  0  0  0  0  0  0
   -0.2325   -0.2620    2.9416 C   0  0  0  0  0  0  0  0  0  0  0  0
   -2.6827    2.0901    1.6497 C   0  0  0  0  0  0  0  0  0  0  0  0
   -4.3250    2.0746   -0.7522 C   0  0  0  0  0  0  0  0  0  0  0  0
   -0.2392   -3.5233   -3.2737 H   0  0  0  0  0  0  0  0  0  0  0  0
   -0.0465   -1.9719   -4.2095 H   0  0  0  0  0  0  0  0  0  0  0  0
    1.3769   -3.0375   -3.9087 H   0  0  0  0  0  0  0  0  0  0  0  0
   -1.9575   -1.8791   -2.6667 H   0  0  0  0  0  0  0  0  0  0  0  0
   -4.2687   -1.8605   -1.5986 H   0  0  0  0  0  0  0  0  0  0  0  0
   -4.1525   -0.2201   -2.3188 H   0  0  0  0  0  0  0  0  0  0  0  0
   -4.9472   -1.0357    0.5392 H   0  0  0  0  0  0  0  0  0  0  0  0
   -7.0165    0.3342    0.0059 H   0  0  0  0  0  0  0  0  0  0  0  0
   -6.4912    0.3340   -1.7266 H   0  0  0  0  0  0  0  0  0  0  0  0
   -6.8112   -1.2156   -0.8876 H   0  0  0  0  0  0  0  0  0  0  0  0
   -3.4181    0.1042    1.8753 H   0  0  0  0  0  0  0  0  0  0  0  0
    0.3432   -2.9829    1.1510 H   0  0  0  0  0  0  0  0  0  0  0  0
    1.8393   -3.9010    1.4887 H   0  0  0  0  0  0  0  0  0  0  0  0
    1.2830   -3.7086   -0.2149 H   0  0  0  0  0  0  0  0  0  0  0  0
    3.9618   -2.8713    1.3439 H   0  0  0  0  0  0  0  0  0  0  0  0
    0.8775    1.6581   -0.8880 H   0  0  0  0  0  0  0  0  0  0  0  0
    5.1676    4.3108    0.6154 H   0  0  0  0  0  0  0  0  0  0  0  0
    5.6220    3.8336   -1.0838 H   0  0  0  0  0  0  0  0  0  0  0  0
    4.1069    4.7591   -0.7715 H   0  0  0  0  0  0  0  0  0  0  0  0
    6.5920    2.3229    0.5782 H   0  0  0  0  0  0  0  0  0  0  0  0
    7.5053    0.2221    1.4180 H   0  0  0  0  0  0  0  0  0  0  0  0
    6.0952   -1.7759    1.6081 H   0  0  0  0  0  0  0  0  0  0  0  0
    0.0724    0.4012    3.7765 H   0  0  0  0  0  0  0  0  0  0  0  0
   -1.2142   -0.7204    3.1853 H   0  0  0  0  0  0  0  0  0  0  0  0
    0.5299   -1.0579    2.8223 H   0  0  0  0  0  0  0  0  0  0  0  0
   -2.0648    2.6680    0.9295 H   0  0  0  0  0  0  0  0  0  0  0  0
   -3.5446    2.7138    1.9692 H   0  0  0  0  0  0  0  0  0  0  0  0
   -2.0993    1.8997    2.5722 H   0  0  0  0  0  0  0  0  0  0  0  0
   -3.4232    1.9381   -1.3866 H   0  0  0  0  0  0  0  0  0  0  0  0
   -4.2626    3.0672   -0.2615 H   0  0  0  0  0  0  0  0  0  0  0  0
   -5.2176    2.1264   -1.4046 H   0  0  0  0  0  0  0  0  0  0  0  0
  1  2  1  0
  2  3  1  0
  3  4  2  0
  4  5  1  0
  5  6  1  0
  6  7  1  0
  7  8  1  0
  7  9  1  0
  9 10  1  0
 10 11  1  0
 11 12  1  0
 12 13  2  0
 13 14  1  0
 14 15  2  0
 15 16  1  0
 15 17  1  0
 17 18  2  0
 18 19  1  0
 19 20  2  0
 20 21  1  0
 19 22  1  0
 22 23  1  0
 23 24  1  0
 22 25  2  0
 25 26  1  0
 26 27  2  0
 12 28  1  0
 28 29  1  0
 10 30  1  0
  9 31  1  0
 13  3  1  0
 20 14  1  0
 11  5  2  0
 27 18  1  0
  1 32  1  0
  1 33  1  0
  1 34  1  0
  4 35  1  0
  6 36  1  0
  6 37  1  0
  7 38  1  1
  8 39  1  0
  8 40  1  0
  8 41  1  0
 10 42  1  1
 16 43  1  0
 16 44  1  0
 16 45  1  0
 17 46  1  0
 21 47  1  0
 24 48  1  0
 24 49  1  0
 24 50  1  0
 25 51  1  0
 26 52  1  0
 27 53  1  0
 29 54  1  0
 29 55  1  0
 29 56  1  0
 30 57  1  0
 30 58  1  0
 30 59  1  0
 31 60  1  0
 31 61  1  0
 31 62  1  0
M  END
$$$$
