
     RDKit          3D

 60 63  0  0  0  0  0  0  0  0999 V2000
   -0.6027   -3.0881   -2.8793 C   0  0  0  0  0  0  0  0  0  0  0  0
   -0.2298   -1.9747   -2.0744 O   0  0  0  0  0  0  0  0  0  0  0  0
   -1.0990   -1.2786   -1.2158 C   0  0  0  0  0  0  0  0  0  0  0  0
   -2.4411   -1.6541   -1.0674 C   0  0  0  0  0  0  0  0  0  0  0  0
   -3.2759   -0.9774   -0.1760 C   0  0  0  0  0  0  0  0  0  0  0  0
   -4.7055   -1.4270   -0.0020 C   0  0  0  0  0  0  0  0  0  0  0  0
   -5.5860   -0.2212    0.3619 C   0  0  1  0  0  0  0  0  0  0  0  0
   -7.0017   -0.6599    0.7302 C   0  0  0  0  0  0  0  0  0  0  0  0
   -4.9917    0.5137    1.4793 N   0  0  0  0  0  0  0  0  0  0  0  0
   -3.7089    0.7034    1.6016 C   0  0  0  0  0  0  0  0  0  0  0  0
   -2.7716    0.0778    0.6126 C   0  0  0  0  0  0  0  0  0  0  0  0
   -1.4393    0.5191    0.4202 C   0  0  0  0  0  0  0  0  0  0  0  0
   -0.5972   -0.1850   -0.4848 C   0  0  0  0  0  0  0  0  0  0  0  0
    0.8468    0.1417   -0.6245 C   0  0  0  0  0  0  0  0  0  0  0  0
    1.2950    0.8301   -1.7731 C   0  0  0  0  0  0  0  0  0  0  0  0
    0.3485    1.2239   -2.8819 C   0  0  0  0  0  0  0  0  0  0  0  0
    2.6538    1.1181   -1.9209 C   0  0  0  0  0  0  0  0  0  0  0  0
    3.5921    0.7616   -0.9391 C   0  0  0  0  0  0  0  0  0  0  0  0
    3.1627    0.0710    0.2231 C   0  0  0  0  0  0  0  0  0  0  0  0
    1.7805   -0.2513    0.3710 C   0  0  0  0  0  0  0  0  0  0  0  0
    1.3603   -0.9655    1.5130 C   0  0  0  0  0  0  0  0  0  0  0  0
    2.2683   -1.3378    2.4959 C   0  0  0  0  0  0  0  0  0  0  0  0
    3.6125   -1.0151    2.3676 C   0  0  0  0  0  0  0  0  0  0  0  0
    4.0807   -0.3146    1.2412 C   0  0  0  0  0  0  0  0  0  0  0  0
    5.4447    0.0047    1.1170 O   0  0  0  0  0  0  0  0  0  0  0  0
    6.4536   -0.3268    2.0661 C   0  0  0  0  0  0  0  0  0  0  0  0
    4.9526    1.0795   -1.1033 O   0  0  0  0  0  0  0  0  0  0  0  0
    5.5068    1.7701   -2.2190 C   0  0  0  0  0  0  0  0  0  0  0  0
   -0.9967    1.6398    1.1457 O   0  0  0  0  0  0  0  0  0  0  0  0
   -0.1406    2.6668    0.6550 C   0  0  0  0  0  0  0  0  0  0  0  0
   -3.2261    1.4681    2.7989 C   0  0  0  0  0  0  0  0  0  0  0  0
   -0.9538   -3.9232   -2.2371 H   0  0  0  0  0  0  0  0  0  0  0  0
   -1.3989   -2.7922   -3.5947 H   0  0  0  0  0  0  0  0  0  0  0  0
    0.2815   -3.4306   -3.4547 H   0  0  0  0  0  0  0  0  0  0  0  0
   -2.8426   -2.4854   -1.6311 H   0  0  0  0  0  0  0  0  0  0  0  0
   -5.0876   -1.8890   -0.9391 H   0  0  0  0  0  0  0  0  0  0  0  0
   -4.7408   -2.1874    0.8084 H   0  0  0  0  0  0  0  0  0  0  0  0
   -5.6438    0.4570   -0.5188 H   0  0  0  0  0  0  0  0  0  0  0  0
   -7.4674   -1.2034   -0.1193 H   0  0  0  0  0  0  0  0  0  0  0  0
   -7.6240    0.2307    0.9615 H   0  0  0  0  0  0  0  0  0  0  0  0
   -6.9840   -1.3246    1.6205 H   0  0  0  0  0  0  0  0  0  0  0  0
   -0.6212    1.5774   -2.4745 H   0  0  0  0  0  0  0  0  0  0  0  0
    0.1688    0.3512   -3.5435 H   0  0  0  0  0  0  0  0  0  0  0  0
    0.7670    2.0513   -3.4937 H   0  0  0  0  0  0  0  0  0  0  0  0
    2.9774    1.6309   -2.8164 H   0  0  0  0  0  0  0  0  0  0  0  0
    0.3263   -1.2475    1.6592 H   0  0  0  0  0  0  0  0  0  0  0  0
    1.9261   -1.8827    3.3666 H   0  0  0  0  0  0  0  0  0  0  0  0
    4.2854   -1.3218    3.1562 H   0  0  0  0  0  0  0  0  0  0  0  0
    6.2305    0.1504    3.0437 H   0  0  0  0  0  0  0  0  0  0  0  0
    6.5219   -1.4291    2.1823 H   0  0  0  0  0  0  0  0  0  0  0  0
    7.4305    0.0519    1.7022 H   0  0  0  0  0  0  0  0  0  0  0  0
    6.6001    1.8811   -2.0682 H   0  0  0  0  0  0  0  0  0  0  0  0
    5.3352    1.1912   -3.1509 H   0  0  0  0  0  0  0  0  0  0  0  0
    5.0568    2.7817   -2.3047 H   0  0  0  0  0  0  0  0  0  0  0  0
   -0.3838    2.9063   -0.4008 H   0  0  0  0  0  0  0  0  0  0  0  0
    0.9228    2.3762    0.7619 H   0  0  0  0  0  0  0  0  0  0  0  0
   -0.2980    3.5803    1.2637 H   0  0  0  0  0  0  0  0  0  0  0  0
   -2.9795    2.5100    2.5066 H   0  0  0  0  0  0  0  0  0  0  0  0
   -2.3360    0.9721    3.2399 H   0  0  0  0  0  0  0  0  0  0  0  0
   -4.0141    1.5048    3.5816 H   0  0  0  0  0  0  0  0  0  0  0  0
  1  2  1  0
  2  3  1  0
  3  4  2  0
  4  5  1  0
  5  6  1  0
  6  7  1  0
  7  8  1  0
  7  9  1  0
  9 10  2  0
 10 11  1  0
 11 12  1  0
 12 13  2  0
 13 14  1  0
 14 15  2  0
 15 16  1  0
 15 17  1  0
 17 18  2  0
 18 19  1  0
 19 20  2  0
 20 21  1  0
 21 22  2  0
 22 23  1  0
 23 24  2  0
 24 25  1  0
 25 26  1  0
 18 27  1  0
 27 28  1  0
 12 29  1  0
 29 30  1  0
 10 31  1  0
 13  3  1  0
 20 14  1  0
 11  5  2  0
 24 19  1  0
  1 32  1  0
  1 33  1  0
  1 34  1  0
  4 35  1  0
  6 36  1  0
  6 37  1  0
  7 38  1  6
  8 39  1  0
  8 40  1  0
  8 41  1  0
 16 42  1  0
 16 43  1  0
 16 44  1  0
 17 45  1  0
 21 46  1  0
 22 47  1  0
 23 48  1  0
 26 49  1  0
 26 50  1  0
 26 51  1  0
 28 52  1  0
 28 53  1  0
 28 54  1  0
 30 55  1  0
 30 56  1  0
 30 57  1  0
 31 58  1  0
 31 59  1  0
 31 60  1  0
M  END
$$$$
