
     RDKit          3D

 59 62  0  0  0  0  0  0  0  0999 V2000
   -5.8074    1.5863    1.8181 C   0  0  0  0  0  0  0  0  0  0  0  0
   -5.0852    0.7478    0.9222 O   0  0  0  0  0  0  0  0  0  0  0  0
   -3.7098    0.8575    0.6526 C   0  0  0  0  0  0  0  0  0  0  0  0
   -2.9224    1.8476    1.2611 C   0  0  0  0  0  0  0  0  0  0  0  0
   -1.5633    1.9584    0.9776 C   0  0  0  0  0  0  0  0  0  0  0  0
   -0.8353    2.9651    1.6169 O   0  0  0  0  0  0  0  0  0  0  0  0
   -0.9605    1.0709    0.0652 C   0  0  0  0  0  0  0  0  0  0  0  0
   -1.7330    0.0518   -0.5438 C   0  0  0  0  0  0  0  0  0  0  0  0
   -3.1159   -0.0483   -0.2524 C   0  0  0  0  0  0  0  0  0  0  0  0
   -3.9655   -1.1558   -0.8655 C   0  0  2  0  0  0  0  0  0  0  0  0
   -4.2844   -2.2477    0.1672 C   0  0  0  0  0  0  0  0  0  0  0  0
   -3.3540   -1.7453   -2.0699 N   0  0  0  0  0  0  0  0  0  0  0  0
   -1.9433   -2.1007   -1.8612 C   0  0  2  0  0  0  0  0  0  0  0  0
   -1.1059   -0.8445   -1.5912 C   0  0  0  0  0  0  0  0  0  0  0  0
   -1.4145   -2.8535   -3.0846 C   0  0  0  0  0  0  0  0  0  0  0  0
    0.4803    1.2169   -0.2551 C   0  0  0  0  0  0  0  0  0  0  0  0
    0.8343    2.0631   -1.3066 C   0  0  0  0  0  0  0  0  0  0  0  0
    2.1669    2.2384   -1.6572 C   0  0  0  0  0  0  0  0  0  0  0  0
    3.1911    1.5682   -0.9651 C   0  0  0  0  0  0  0  0  0  0  0  0
    2.8572    0.6988    0.1092 C   0  0  0  0  0  0  0  0  0  0  0  0
    1.4863    0.5278    0.4650 C   0  0  0  0  0  0  0  0  0  0  0  0
    1.1470   -0.3319    1.5276 C   0  0  0  0  0  0  0  0  0  0  0  0
    2.1329   -1.0083    2.2470 C   0  0  0  0  0  0  0  0  0  0  0  0
    1.7464   -1.9509    3.3499 C   0  0  0  0  0  0  0  0  0  0  0  0
    3.4740   -0.8589    1.8897 C   0  0  0  0  0  0  0  0  0  0  0  0
    3.8545   -0.0096    0.8339 C   0  0  0  0  0  0  0  0  0  0  0  0
    5.2101    0.1399    0.4904 O   0  0  0  0  0  0  0  0  0  0  0  0
    6.2973   -0.5134    1.1383 C   0  0  0  0  0  0  0  0  0  0  0  0
    4.5372    1.7520   -1.3282 O   0  0  0  0  0  0  0  0  0  0  0  0
    4.9932    2.5930   -2.3834 C   0  0  0  0  0  0  0  0  0  0  0  0
   -6.8698    1.2678    1.8346 H   0  0  0  0  0  0  0  0  0  0  0  0
   -5.7586    2.6419    1.4767 H   0  0  0  0  0  0  0  0  0  0  0  0
   -5.3935    1.4947    2.8444 H   0  0  0  0  0  0  0  0  0  0  0  0
   -3.3580    2.5472    1.9614 H   0  0  0  0  0  0  0  0  0  0  0  0
    0.1564    3.1067    1.4703 H   0  0  0  0  0  0  0  0  0  0  0  0
   -4.9392   -0.7149   -1.1773 H   0  0  0  0  0  0  0  0  0  0  0  0
   -4.9847   -1.8600    0.9362 H   0  0  0  0  0  0  0  0  0  0  0  0
   -4.7695   -3.1133   -0.3319 H   0  0  0  0  0  0  0  0  0  0  0  0
   -3.3666   -2.5960    0.6852 H   0  0  0  0  0  0  0  0  0  0  0  0
   -3.4188   -1.0464   -2.8487 H   0  0  0  0  0  0  0  0  0  0  0  0
   -1.8474   -2.7896   -0.9941 H   0  0  0  0  0  0  0  0  0  0  0  0
   -0.0949   -1.1702   -1.2642 H   0  0  0  0  0  0  0  0  0  0  0  0
   -0.9955   -0.2545   -2.5274 H   0  0  0  0  0  0  0  0  0  0  0  0
   -1.4769   -2.2186   -3.9944 H   0  0  0  0  0  0  0  0  0  0  0  0
   -0.3561   -3.1509   -2.9241 H   0  0  0  0  0  0  0  0  0  0  0  0
   -2.0162   -3.7725   -3.2497 H   0  0  0  0  0  0  0  0  0  0  0  0
    0.0685    2.5921   -1.8615 H   0  0  0  0  0  0  0  0  0  0  0  0
    2.3908    2.9046   -2.4786 H   0  0  0  0  0  0  0  0  0  0  0  0
    0.1119   -0.4854    1.8069 H   0  0  0  0  0  0  0  0  0  0  0  0
    0.8212   -1.6034    3.8573 H   0  0  0  0  0  0  0  0  0  0  0  0
    2.5505   -2.0145    4.1138 H   0  0  0  0  0  0  0  0  0  0  0  0
    1.5689   -2.9614    2.9261 H   0  0  0  0  0  0  0  0  0  0  0  0
    4.2201   -1.4124    2.4437 H   0  0  0  0  0  0  0  0  0  0  0  0
    6.1950   -1.6148    1.0400 H   0  0  0  0  0  0  0  0  0  0  0  0
    6.3339   -0.2237    2.2097 H   0  0  0  0  0  0  0  0  0  0  0  0
    7.2458   -0.2018    0.6550 H   0  0  0  0  0  0  0  0  0  0  0  0
    4.6991    3.6458   -2.1874 H   0  0  0  0  0  0  0  0  0  0  0  0
    6.0998    2.5387   -2.4362 H   0  0  0  0  0  0  0  0  0  0  0  0
    4.5749    2.2504   -3.3533 H   0  0  0  0  0  0  0  0  0  0  0  0
  1  2  1  0
  2  3  1  0
  3  4  2  0
  4  5  1  0
  5  6  1  0
  5  7  2  0
  7  8  1  0
  8  9  2  0
  9 10  1  0
 10 11  1  0
 10 12  1  0
 12 13  1  0
 13 14  1  0
 13 15  1  0
  7 16  1  0
 16 17  2  0
 17 18  1  0
 18 19  2  0
 19 20  1  0
 20 21  2  0
 21 22  1  0
 22 23  2  0
 23 24  1  0
 23 25  1  0
 25 26  2  0
 26 27  1  0
 27 28  1  0
 19 29  1  0
 29 30  1  0
  9  3  1  0
 21 16  1  0
 14  8  1  0
 26 20  1  0
  1 31  1  0
  1 32  1  0
  1 33  1  0
  4 34  1  0
  6 35  1  0
 10 36  1  6
 11 37  1  0
 11 38  1  0
 11 39  1  0
 12 40  1  0
 13 41  1  1
 14 42  1  0
 14 43  1  0
 15 44  1  0
 15 45  1  0
 15 46  1  0
 17 47  1  0
 18 48  1  0
 22 49  1  0
 24 50  1  0
 24 51  1  0
 24 52  1  0
 25 53  1  0
 28 54  1  0
 28 55  1  0
 28 56  1  0
 30 57  1  0
 30 58  1  0
 30 59  1  0
M  END
$$$$
