
     RDKit          3D

 62 65  0  0  0  0  0  0  0  0999 V2000
   -4.2643    0.4474   -4.2604 C   0  0  0  0  0  0  0  0  0  0  0  0
   -4.0358    0.3488   -2.8584 O   0  0  0  0  0  0  0  0  0  0  0  0
   -2.8020    0.5859   -2.2273 C   0  0  0  0  0  0  0  0  0  0  0  0
   -1.6623    0.9465   -2.9641 C   0  0  0  0  0  0  0  0  0  0  0  0
   -0.4382    1.1599   -2.3346 C   0  0  0  0  0  0  0  0  0  0  0  0
    0.6558    1.5228   -3.1243 O   0  0  0  0  0  0  0  0  0  0  0  0
   -0.3267    0.9952   -0.9404 C   0  0  0  0  0  0  0  0  0  0  0  0
   -1.4631    0.6144   -0.1862 C   0  0  0  0  0  0  0  0  0  0  0  0
   -2.7137    0.4509   -0.8239 C   0  0  0  0  0  0  0  0  0  0  0  0
   -3.9770    0.1292   -0.0170 C   0  0  2  0  0  0  0  0  0  0  0  0
   -4.8726    1.3768    0.0137 C   0  0  0  0  0  0  0  0  0  0  0  0
   -3.7259   -0.2931    1.3906 N   0  0  0  0  0  0  0  0  0  0  0  0
   -4.7509   -1.2287    1.8898 C   0  0  0  0  0  0  0  0  0  0  0  0
   -2.3517   -0.7394    1.7066 C   0  0  2  0  0  0  0  0  0  0  0  0
   -1.3677    0.3571    1.2960 C   0  0  0  0  0  0  0  0  0  0  0  0
   -1.9898   -2.1039    1.0766 C   0  0  0  0  0  0  0  0  0  0  0  0
    0.9880    1.1914   -0.2840 C   0  0  0  0  0  0  0  0  0  0  0  0
    1.3300    2.4804    0.1256 C   0  0  0  0  0  0  0  0  0  0  0  0
    2.5490    2.7266    0.7447 C   0  0  0  0  0  0  0  0  0  0  0  0
    3.4667    1.6863    0.9752 C   0  0  0  0  0  0  0  0  0  0  0  0
    3.1416    0.3631    0.5687 C   0  0  0  0  0  0  0  0  0  0  0  0
    1.8882    0.1196   -0.0667 C   0  0  0  0  0  0  0  0  0  0  0  0
    1.5541   -1.1897   -0.4643 C   0  0  0  0  0  0  0  0  0  0  0  0
    2.4231   -2.2550   -0.2299 C   0  0  0  0  0  0  0  0  0  0  0  0
    2.0528   -3.6368   -0.6848 C   0  0  0  0  0  0  0  0  0  0  0  0
    3.6615   -2.0176    0.3693 C   0  0  0  0  0  0  0  0  0  0  0  0
    4.0348   -0.7234    0.7778 C   0  0  0  0  0  0  0  0  0  0  0  0
    5.2816   -0.4985    1.3883 O   0  0  0  0  0  0  0  0  0  0  0  0
    6.2587   -1.5007    1.6513 C   0  0  0  0  0  0  0  0  0  0  0  0
    4.6972    1.9458    1.6044 O   0  0  0  0  0  0  0  0  0  0  0  0
    5.1334    3.2245    2.0546 C   0  0  0  0  0  0  0  0  0  0  0  0
   -4.0597    1.4817   -4.6091 H   0  0  0  0  0  0  0  0  0  0  0  0
   -5.3261    0.2056   -4.4718 H   0  0  0  0  0  0  0  0  0  0  0  0
   -3.6206   -0.2761   -4.8042 H   0  0  0  0  0  0  0  0  0  0  0  0
   -1.7131    1.0648   -4.0378 H   0  0  0  0  0  0  0  0  0  0  0  0
    1.5804    1.6849   -2.7454 H   0  0  0  0  0  0  0  0  0  0  0  0
   -4.5207   -0.6773   -0.5605 H   0  0  0  0  0  0  0  0  0  0  0  0
   -5.1234    1.7205   -1.0109 H   0  0  0  0  0  0  0  0  0  0  0  0
   -4.3579    2.2028    0.5503 H   0  0  0  0  0  0  0  0  0  0  0  0
   -5.8280    1.1594    0.5338 H   0  0  0  0  0  0  0  0  0  0  0  0
   -4.7905   -2.1504    1.2704 H   0  0  0  0  0  0  0  0  0  0  0  0
   -4.5444   -1.5080    2.9452 H   0  0  0  0  0  0  0  0  0  0  0  0
   -5.7505   -0.7483    1.8707 H   0  0  0  0  0  0  0  0  0  0  0  0
   -2.2574   -0.8481    2.8105 H   0  0  0  0  0  0  0  0  0  0  0  0
   -1.6090    1.2976    1.8374 H   0  0  0  0  0  0  0  0  0  0  0  0
   -0.3480    0.0442    1.6029 H   0  0  0  0  0  0  0  0  0  0  0  0
   -2.2064   -2.1238   -0.0112 H   0  0  0  0  0  0  0  0  0  0  0  0
   -0.9105   -2.3206    1.2263 H   0  0  0  0  0  0  0  0  0  0  0  0
   -2.5605   -2.9192    1.5673 H   0  0  0  0  0  0  0  0  0  0  0  0
    0.6445    3.3038   -0.0371 H   0  0  0  0  0  0  0  0  0  0  0  0
    2.7690    3.7420    1.0434 H   0  0  0  0  0  0  0  0  0  0  0  0
    0.6106   -1.3971   -0.9543 H   0  0  0  0  0  0  0  0  0  0  0  0
    0.9629   -3.8086   -0.5558 H   0  0  0  0  0  0  0  0  0  0  0  0
    2.3142   -3.7548   -1.7567 H   0  0  0  0  0  0  0  0  0  0  0  0
    2.5917   -4.4081   -0.0943 H   0  0  0  0  0  0  0  0  0  0  0  0
    4.3325   -2.8529    0.5165 H   0  0  0  0  0  0  0  0  0  0  0  0
    5.8425   -2.2704    2.3353 H   0  0  0  0  0  0  0  0  0  0  0  0
    7.1363   -1.0302    2.1401 H   0  0  0  0  0  0  0  0  0  0  0  0
    6.5914   -1.9690    0.7009 H   0  0  0  0  0  0  0  0  0  0  0  0
    5.2009    3.9282    1.1987 H   0  0  0  0  0  0  0  0  0  0  0  0
    6.1397    3.1236    2.5100 H   0  0  0  0  0  0  0  0  0  0  0  0
    4.4350    3.6180    2.8225 H   0  0  0  0  0  0  0  0  0  0  0  0
  1  2  1  0
  2  3  1  0
  3  4  2  0
  4  5  1  0
  5  6  1  0
  5  7  2  0
  7  8  1  0
  8  9  2  0
  9 10  1  0
 10 11  1  0
 10 12  1  0
 12 13  1  0
 12 14  1  0
 14 15  1  0
 14 16  1  0
  7 17  1  0
 17 18  2  0
 18 19  1  0
 19 20  2  0
 20 21  1  0
 21 22  2  0
 22 23  1  0
 23 24  2  0
 24 25  1  0
 24 26  1  0
 26 27  2  0
 27 28  1  0
 28 29  1  0
 20 30  1  0
 30 31  1  0
  9  3  1  0
 22 17  1  0
 15  8  1  0
 27 21  1  0
  1 32  1  0
  1 33  1  0
  1 34  1  0
  4 35  1  0
  6 36  1  0
 10 37  1  6
 11 38  1  0
 11 39  1  0
 11 40  1  0
 13 41  1  0
 13 42  1  0
 13 43  1  0
 14 44  1  1
 15 45  1  0
 15 46  1  0
 16 47  1  0
 16 48  1  0
 16 49  1  0
 18 50  1  0
 19 51  1  0
 23 52  1  0
 25 53  1  0
 25 54  1  0
 25 55  1  0
 26 56  1  0
 29 57  1  0
 29 58  1  0
 29 59  1  0
 31 60  1  0
 31 61  1  0
 31 62  1  0
M  END
$$$$
