
     RDKit          3D

 65 68  0  0  0  0  0  0  0  0999 V2000
    0.0111   -4.3341    1.6485 C   0  0  0  0  0  0  0  0  0  0  0  0
    0.2342   -3.1557    0.8812 O   0  0  0  0  0  0  0  0  0  0  0  0
   -0.7760   -2.2859    0.4339 C   0  0  0  0  0  0  0  0  0  0  0  0
   -2.1299   -2.5158    0.7152 C   0  0  0  0  0  0  0  0  0  0  0  0
   -3.1338   -1.6420    0.2547 C   0  0  0  0  0  0  0  0  0  0  0  0
   -4.4773   -1.8727    0.5915 O   0  0  0  0  0  0  0  0  0  0  0  0
   -4.9567   -2.9556    1.3832 C   0  0  0  0  0  0  0  0  0  0  0  0
   -2.7682   -0.5170   -0.5379 C   0  0  0  0  0  0  0  0  0  0  0  0
   -1.4006   -0.2578   -0.7629 C   0  0  0  0  0  0  0  0  0  0  0  0
   -0.4094   -1.1522   -0.3021 C   0  0  0  0  0  0  0  0  0  0  0  0
    1.0285   -0.9059   -0.5652 C   0  0  0  0  0  0  0  0  0  0  0  0
    1.5824   -1.4412   -1.7283 C   0  0  0  0  0  0  0  0  0  0  0  0
    2.9187   -1.2254   -2.0409 C   0  0  0  0  0  0  0  0  0  0  0  0
    3.7436   -0.4578   -1.1995 C   0  0  0  0  0  0  0  0  0  0  0  0
    3.2026    0.1014   -0.0096 C   0  0  0  0  0  0  0  0  0  0  0  0
    1.8333   -0.1374    0.3103 C   0  0  0  0  0  0  0  0  0  0  0  0
    1.2923    0.4044    1.4919 C   0  0  0  0  0  0  0  0  0  0  0  0
    2.0732    1.1762    2.3521 C   0  0  0  0  0  0  0  0  0  0  0  0
    1.4573    1.7900    3.5759 C   0  0  0  0  0  0  0  0  0  0  0  0
    3.4069    1.4338    2.0302 C   0  0  0  0  0  0  0  0  0  0  0  0
    3.9893    0.8998    0.8654 C   0  0  0  0  0  0  0  0  0  0  0  0
    5.3382    1.1544    0.5597 O   0  0  0  0  0  0  0  0  0  0  0  0
    6.2257    1.9360    1.3535 C   0  0  0  0  0  0  0  0  0  0  0  0
    5.0938   -0.2411   -1.5272 O   0  0  0  0  0  0  0  0  0  0  0  0
    5.7461   -0.7467   -2.6881 C   0  0  0  0  0  0  0  0  0  0  0  0
   -1.0517    1.0069   -1.5096 C   0  0  0  0  0  0  0  0  0  0  0  0
   -1.8916    2.1969   -0.9833 C   0  0  1  0  0  0  0  0  0  0  0  0
   -3.3350    1.8725   -0.7511 N   0  0  0  0  0  0  0  0  0  0  0  0
   -3.7319    0.4987   -1.1794 C   0  0  2  0  0  0  0  0  0  0  0  0
   -5.2310    0.2239   -0.9426 C   0  0  0  0  0  0  0  0  0  0  0  0
   -4.1935    2.9307   -1.3227 C   0  0  0  0  0  0  0  0  0  0  0  0
   -1.2993    2.7320    0.3255 C   0  0  0  0  0  0  0  0  0  0  0  0
   -0.4682   -4.0747    2.6160 H   0  0  0  0  0  0  0  0  0  0  0  0
   -0.6271   -5.0441    1.0813 H   0  0  0  0  0  0  0  0  0  0  0  0
    0.9861   -4.8209    1.8552 H   0  0  0  0  0  0  0  0  0  0  0  0
   -2.4025   -3.3791    1.3018 H   0  0  0  0  0  0  0  0  0  0  0  0
   -4.7173   -3.9230    0.8934 H   0  0  0  0  0  0  0  0  0  0  0  0
   -4.5088   -2.9150    2.3986 H   0  0  0  0  0  0  0  0  0  0  0  0
   -6.0585   -2.8718    1.4796 H   0  0  0  0  0  0  0  0  0  0  0  0
    0.9709   -2.0296   -2.4023 H   0  0  0  0  0  0  0  0  0  0  0  0
    3.3022   -1.6617   -2.9527 H   0  0  0  0  0  0  0  0  0  0  0  0
    0.2567    0.2325    1.7560 H   0  0  0  0  0  0  0  0  0  0  0  0
    0.6827    1.1176    4.0024 H   0  0  0  0  0  0  0  0  0  0  0  0
    2.2247    1.9669    4.3594 H   0  0  0  0  0  0  0  0  0  0  0  0
    0.9862    2.7579    3.3048 H   0  0  0  0  0  0  0  0  0  0  0  0
    3.9883    2.0548    2.6981 H   0  0  0  0  0  0  0  0  0  0  0  0
    5.8488    2.9773    1.4356 H   0  0  0  0  0  0  0  0  0  0  0  0
    7.2220    1.9578    0.8664 H   0  0  0  0  0  0  0  0  0  0  0  0
    6.3344    1.4847    2.3623 H   0  0  0  0  0  0  0  0  0  0  0  0
    6.8047   -0.4157   -2.6808 H   0  0  0  0  0  0  0  0  0  0  0  0
    5.2576   -0.3516   -3.6037 H   0  0  0  0  0  0  0  0  0  0  0  0
    5.7219   -1.8569   -2.6872 H   0  0  0  0  0  0  0  0  0  0  0  0
    0.0263    1.2628   -1.4461 H   0  0  0  0  0  0  0  0  0  0  0  0
   -1.2694    0.8491   -2.5881 H   0  0  0  0  0  0  0  0  0  0  0  0
   -1.7726    3.0030   -1.7453 H   0  0  0  0  0  0  0  0  0  0  0  0
   -3.5967    0.4163   -2.2825 H   0  0  0  0  0  0  0  0  0  0  0  0
   -5.4982    0.3791    0.1242 H   0  0  0  0  0  0  0  0  0  0  0  0
   -5.8611    0.8884   -1.5681 H   0  0  0  0  0  0  0  0  0  0  0  0
   -5.4944   -0.8010   -1.2774 H   0  0  0  0  0  0  0  0  0  0  0  0
   -3.7825    3.9398   -1.1000 H   0  0  0  0  0  0  0  0  0  0  0  0
   -5.1955    2.9134   -0.8473 H   0  0  0  0  0  0  0  0  0  0  0  0
   -4.2880    2.8153   -2.4247 H   0  0  0  0  0  0  0  0  0  0  0  0
   -1.3888    1.9720    1.1300 H   0  0  0  0  0  0  0  0  0  0  0  0
   -1.8466    3.6448    0.6422 H   0  0  0  0  0  0  0  0  0  0  0  0
   -0.2286    2.9983    0.1937 H   0  0  0  0  0  0  0  0  0  0  0  0
  1  2  1  0
  2  3  1  0
  3  4  2  0
  4  5  1  0
  5  6  1  0
  6  7  1  0
  5  8  2  0
  8  9  1  0
  9 10  2  0
 10 11  1  0
 11 12  2  0
 12 13  1  0
 13 14  2  0
 14 15  1  0
 15 16  2  0
 16 17  1  0
 17 18  2  0
 18 19  1  0
 18 20  1  0
 20 21  2  0
 21 22  1  0
 22 23  1  0
 14 24  1  0
 24 25  1  0
  9 26  1  0
 26 27  1  0
 27 28  1  0
 28 29  1  0
 29 30  1  0
 28 31  1  0
 27 32  1  0
 10  3  1  0
 16 11  1  0
 29  8  1  0
 21 15  1  0
  1 33  1  0
  1 34  1  0
  1 35  1  0
  4 36  1  0
  7 37  1  0
  7 38  1  0
  7 39  1  0
 12 40  1  0
 13 41  1  0
 17 42  1  0
 19 43  1  0
 19 44  1  0
 19 45  1  0
 20 46  1  0
 23 47  1  0
 23 48  1  0
 23 49  1  0
 25 50  1  0
 25 51  1  0
 25 52  1  0
 26 53  1  0
 26 54  1  0
 27 55  1  6
 29 56  1  6
 30 57  1  0
 30 58  1  0
 30 59  1  0
 31 60  1  0
 31 61  1  0
 31 62  1  0
 32 63  1  0
 32 64  1  0
 32 65  1  0
M  END
$$$$
