
     RDKit          3D

 59 62  0  0  0  0  0  0  0  0999 V2000
    0.1141    0.5870    2.4304 C   0  0  0  0  0  0  0  0  0  0  0  0
   -0.8973   -0.1426    1.7425 O   0  0  0  0  0  0  0  0  0  0  0  0
   -1.3556    0.0980    0.4322 C   0  0  0  0  0  0  0  0  0  0  0  0
   -2.7311   -0.1242    0.1733 C   0  0  0  0  0  0  0  0  0  0  0  0
   -3.6852   -0.4856    1.3205 C   0  0  1  0  0  0  0  0  0  0  0  0
   -3.7999    0.6858    2.3056 C   0  0  0  0  0  0  0  0  0  0  0  0
   -5.0592   -0.8199    0.8846 N   0  0  0  0  0  0  0  0  0  0  0  0
   -5.1227   -1.4494   -0.4381 C   0  0  2  0  0  0  0  0  0  0  0  0
   -4.6165   -0.4486   -1.4779 C   0  0  0  0  0  0  0  0  0  0  0  0
   -3.2062   -0.0558   -1.1519 C   0  0  0  0  0  0  0  0  0  0  0  0
   -2.3595    0.3592   -2.1814 C   0  0  0  0  0  0  0  0  0  0  0  0
   -1.0176    0.6320   -1.9360 C   0  0  0  0  0  0  0  0  0  0  0  0
   -0.4956    0.4954   -0.6311 C   0  0  0  0  0  0  0  0  0  0  0  0
    0.9631    0.6859   -0.4246 C   0  0  0  0  0  0  0  0  0  0  0  0
    1.4769    1.9926   -0.2811 C   0  0  0  0  0  0  0  0  0  0  0  0
    0.5803    3.2049   -0.3591 C   0  0  0  0  0  0  0  0  0  0  0  0
    2.8513    2.1814   -0.1178 C   0  0  0  0  0  0  0  0  0  0  0  0
    3.7420    1.0964   -0.0730 C   0  0  0  0  0  0  0  0  0  0  0  0
    3.2456   -0.2247   -0.2175 C   0  0  0  0  0  0  0  0  0  0  0  0
    1.8457   -0.4259   -0.4057 C   0  0  0  0  0  0  0  0  0  0  0  0
    1.3551   -1.7384   -0.5684 C   0  0  0  0  0  0  0  0  0  0  0  0
    2.2140   -2.8296   -0.5364 C   0  0  0  0  0  0  0  0  0  0  0  0
    3.5767   -2.6444   -0.3446 C   0  0  0  0  0  0  0  0  0  0  0  0
    4.1128   -1.3537   -0.1844 C   0  0  0  0  0  0  0  0  0  0  0  0
    5.4945   -1.1746    0.0071 O   0  0  0  0  0  0  0  0  0  0  0  0
    6.4572   -2.2230    0.0589 C   0  0  0  0  0  0  0  0  0  0  0  0
    5.1202    1.3115    0.1084 O   0  0  0  0  0  0  0  0  0  0  0  0
    5.7398    2.5841    0.2680 C   0  0  0  0  0  0  0  0  0  0  0  0
   -0.2181    1.0084   -3.0188 O   0  0  0  0  0  0  0  0  0  0  0  0
   -6.5650   -1.8582   -0.7568 C   0  0  0  0  0  0  0  0  0  0  0  0
   -0.0168    0.4310    3.5205 H   0  0  0  0  0  0  0  0  0  0  0  0
    1.1210    0.2129    2.1620 H   0  0  0  0  0  0  0  0  0  0  0  0
    0.0205    1.6728    2.2239 H   0  0  0  0  0  0  0  0  0  0  0  0
   -3.2555   -1.3608    1.8598 H   0  0  0  0  0  0  0  0  0  0  0  0
   -4.1703    1.5924    1.7804 H   0  0  0  0  0  0  0  0  0  0  0  0
   -4.5169    0.4296    3.1146 H   0  0  0  0  0  0  0  0  0  0  0  0
   -2.8313    0.9236    2.7865 H   0  0  0  0  0  0  0  0  0  0  0  0
   -5.4684   -1.4779    1.5904 H   0  0  0  0  0  0  0  0  0  0  0  0
   -4.4883   -2.3663   -0.4553 H   0  0  0  0  0  0  0  0  0  0  0  0
   -5.2533    0.4631   -1.4800 H   0  0  0  0  0  0  0  0  0  0  0  0
   -4.6590   -0.9156   -2.4871 H   0  0  0  0  0  0  0  0  0  0  0  0
   -2.7371    0.4392   -3.1940 H   0  0  0  0  0  0  0  0  0  0  0  0
   -0.3596    3.0403    0.2075 H   0  0  0  0  0  0  0  0  0  0  0  0
    1.0725    4.1022    0.0729 H   0  0  0  0  0  0  0  0  0  0  0  0
    0.3321    3.4140   -1.4204 H   0  0  0  0  0  0  0  0  0  0  0  0
    3.2257    3.1917   -0.0252 H   0  0  0  0  0  0  0  0  0  0  0  0
    0.3027   -1.9366   -0.7221 H   0  0  0  0  0  0  0  0  0  0  0  0
    1.8188   -3.8298   -0.6610 H   0  0  0  0  0  0  0  0  0  0  0  0
    4.2099   -3.5204   -0.3246 H   0  0  0  0  0  0  0  0  0  0  0  0
    6.2311   -2.9083    0.9029 H   0  0  0  0  0  0  0  0  0  0  0  0
    7.4625   -1.7829    0.2198 H   0  0  0  0  0  0  0  0  0  0  0  0
    6.4649   -2.7827   -0.9002 H   0  0  0  0  0  0  0  0  0  0  0  0
    6.8320    2.4404    0.3970 H   0  0  0  0  0  0  0  0  0  0  0  0
    5.5693    3.2083   -0.6344 H   0  0  0  0  0  0  0  0  0  0  0  0
    5.3406    3.0933    1.1705 H   0  0  0  0  0  0  0  0  0  0  0  0
    0.7723    1.2000   -2.9376 H   0  0  0  0  0  0  0  0  0  0  0  0
   -6.6208   -2.3149   -1.7680 H   0  0  0  0  0  0  0  0  0  0  0  0
   -7.2381   -0.9747   -0.7202 H   0  0  0  0  0  0  0  0  0  0  0  0
   -6.9198   -2.6086   -0.0187 H   0  0  0  0  0  0  0  0  0  0  0  0
  1  2  1  0
  2  3  1  0
  3  4  2  0
  4  5  1  0
  5  6  1  0
  5  7  1  0
  7  8  1  0
  8  9  1  0
  9 10  1  0
 10 11  2  0
 11 12  1  0
 12 13  2  0
 13 14  1  0
 14 15  2  0
 15 16  1  0
 15 17  1  0
 17 18  2  0
 18 19  1  0
 19 20  2  0
 20 21  1  0
 21 22  2  0
 22 23  1  0
 23 24  2  0
 24 25  1  0
 25 26  1  0
 18 27  1  0
 27 28  1  0
 12 29  1  0
  8 30  1  0
 13  3  1  0
 20 14  1  0
 10  4  1  0
 24 19  1  0
  1 31  1  0
  1 32  1  0
  1 33  1  0
  5 34  1  1
  6 35  1  0
  6 36  1  0
  6 37  1  0
  7 38  1  0
  8 39  1  1
  9 40  1  0
  9 41  1  0
 11 42  1  0
 16 43  1  0
 16 44  1  0
 16 45  1  0
 17 46  1  0
 21 47  1  0
 22 48  1  0
 23 49  1  0
 26 50  1  0
 26 51  1  0
 26 52  1  0
 28 53  1  0
 28 54  1  0
 28 55  1  0
 29 56  1  0
 30 57  1  0
 30 58  1  0
 30 59  1  0
M  END
$$$$
