
     RDKit          3D

 60 63  0  0  0  0  0  0  0  0999 V2000
   -0.3313    2.9953   -3.2795 C   0  0  0  0  0  0  0  0  0  0  0  0
   -0.1221    1.8839   -2.4144 O   0  0  0  0  0  0  0  0  0  0  0  0
   -1.1073    1.3119   -1.5903 C   0  0  0  0  0  0  0  0  0  0  0  0
   -2.4204    1.8051   -1.5555 C   0  0  0  0  0  0  0  0  0  0  0  0
   -3.3895    1.2368   -0.7094 C   0  0  0  0  0  0  0  0  0  0  0  0
   -4.7112    1.7129   -0.7045 O   0  0  0  0  0  0  0  0  0  0  0  0
   -5.1980    2.7884   -1.5011 C   0  0  0  0  0  0  0  0  0  0  0  0
   -3.0311    0.1569    0.1314 C   0  0  0  0  0  0  0  0  0  0  0  0
   -1.7241   -0.3814    0.0564 C   0  0  0  0  0  0  0  0  0  0  0  0
   -0.7577    0.2192   -0.7824 C   0  0  0  0  0  0  0  0  0  0  0  0
    0.6379   -0.2827   -0.8220 C   0  0  0  0  0  0  0  0  0  0  0  0
    1.0081   -1.0989   -1.8919 C   0  0  0  0  0  0  0  0  0  0  0  0
    2.2923   -1.6217   -1.9738 C   0  0  0  0  0  0  0  0  0  0  0  0
    3.2515   -1.3422   -0.9846 C   0  0  0  0  0  0  0  0  0  0  0  0
    2.9028   -0.5077    0.1124 C   0  0  0  0  0  0  0  0  0  0  0  0
    1.5823    0.0273    0.1873 C   0  0  0  0  0  0  0  0  0  0  0  0
    1.2343    0.8662    1.2640 C   0  0  0  0  0  0  0  0  0  0  0  0
    2.1519    1.1572    2.2739 C   0  0  0  0  0  0  0  0  0  0  0  0
    1.7687    2.0779    3.3963 C   0  0  0  0  0  0  0  0  0  0  0  0
    3.4481    0.6450    2.1984 C   0  0  0  0  0  0  0  0  0  0  0  0
    3.8391   -0.1882    1.1337 C   0  0  0  0  0  0  0  0  0  0  0  0
    5.1465   -0.7031    1.0728 O   0  0  0  0  0  0  0  0  0  0  0  0
    6.1706   -0.4572    2.0317 C   0  0  0  0  0  0  0  0  0  0  0  0
    4.5476   -1.8802   -1.0747 O   0  0  0  0  0  0  0  0  0  0  0  0
    5.0124   -2.7261   -2.1221 C   0  0  0  0  0  0  0  0  0  0  0  0
   -1.3676   -1.5627    0.9398 C   0  0  0  0  0  0  0  0  0  0  0  0
   -2.5913   -2.4645    1.1709 C   0  0  1  0  0  0  0  0  0  0  0  0
   -3.7420   -1.6565    1.5750 N   0  0  0  0  0  0  0  0  0  0  0  0
   -3.9905   -0.4709    1.0974 C   0  0  0  0  0  0  0  0  0  0  0  0
   -5.2040    0.2469    1.6110 C   0  0  0  0  0  0  0  0  0  0  0  0
   -2.9387   -3.2815   -0.0790 C   0  0  0  0  0  0  0  0  0  0  0  0
    0.6185    3.2310   -3.8016 H   0  0  0  0  0  0  0  0  0  0  0  0
   -0.6430    3.8840   -2.6911 H   0  0  0  0  0  0  0  0  0  0  0  0
   -1.1020    2.7478   -4.0396 H   0  0  0  0  0  0  0  0  0  0  0  0
   -2.6888    2.6353   -2.1904 H   0  0  0  0  0  0  0  0  0  0  0  0
   -5.0853    2.5473   -2.5792 H   0  0  0  0  0  0  0  0  0  0  0  0
   -4.6514    3.7235   -1.2560 H   0  0  0  0  0  0  0  0  0  0  0  0
   -6.2749    2.9406   -1.2832 H   0  0  0  0  0  0  0  0  0  0  0  0
    0.2903   -1.3402   -2.6670 H   0  0  0  0  0  0  0  0  0  0  0  0
    2.5293   -2.2518   -2.8197 H   0  0  0  0  0  0  0  0  0  0  0  0
    0.2453    1.3022    1.3294 H   0  0  0  0  0  0  0  0  0  0  0  0
    0.6872    1.9812    3.6314 H   0  0  0  0  0  0  0  0  0  0  0  0
    1.9831    3.1266    3.1027 H   0  0  0  0  0  0  0  0  0  0  0  0
    2.3403    1.8353    4.3174 H   0  0  0  0  0  0  0  0  0  0  0  0
    4.1513    0.9040    2.9783 H   0  0  0  0  0  0  0  0  0  0  0  0
    6.3946    0.6293    2.0817 H   0  0  0  0  0  0  0  0  0  0  0  0
    5.8587   -0.8328    3.0291 H   0  0  0  0  0  0  0  0  0  0  0  0
    7.0908   -0.9942    1.7233 H   0  0  0  0  0  0  0  0  0  0  0  0
    4.9542   -2.1958   -3.0960 H   0  0  0  0  0  0  0  0  0  0  0  0
    4.4112   -3.6592   -2.1551 H   0  0  0  0  0  0  0  0  0  0  0  0
    6.0710   -2.9938   -1.9276 H   0  0  0  0  0  0  0  0  0  0  0  0
   -1.0127   -1.1733    1.9183 H   0  0  0  0  0  0  0  0  0  0  0  0
   -0.5497   -2.1742    0.5022 H   0  0  0  0  0  0  0  0  0  0  0  0
   -2.3577   -3.1781    1.9904 H   0  0  0  0  0  0  0  0  0  0  0  0
   -5.5585   -0.2145    2.5578 H   0  0  0  0  0  0  0  0  0  0  0  0
   -6.0241    0.1818    0.8662 H   0  0  0  0  0  0  0  0  0  0  0  0
   -4.9618    1.3091    1.8245 H   0  0  0  0  0  0  0  0  0  0  0  0
   -3.1871   -2.6157   -0.9328 H   0  0  0  0  0  0  0  0  0  0  0  0
   -3.8141   -3.9324    0.1294 H   0  0  0  0  0  0  0  0  0  0  0  0
   -2.0820   -3.9283   -0.3644 H   0  0  0  0  0  0  0  0  0  0  0  0
  1  2  1  0
  2  3  1  0
  3  4  2  0
  4  5  1  0
  5  6  1  0
  6  7  1  0
  5  8  2  0
  8  9  1  0
  9 10  2  0
 10 11  1  0
 11 12  2  0
 12 13  1  0
 13 14  2  0
 14 15  1  0
 15 16  2  0
 16 17  1  0
 17 18  2  0
 18 19  1  0
 18 20  1  0
 20 21  2  0
 21 22  1  0
 22 23  1  0
 14 24  1  0
 24 25  1  0
  9 26  1  0
 26 27  1  0
 27 28  1  0
 28 29  2  0
 29 30  1  0
 27 31  1  0
 10  3  1  0
 16 11  1  0
 29  8  1  0
 21 15  1  0
  1 32  1  0
  1 33  1  0
  1 34  1  0
  4 35  1  0
  7 36  1  0
  7 37  1  0
  7 38  1  0
 12 39  1  0
 13 40  1  0
 17 41  1  0
 19 42  1  0
 19 43  1  0
 19 44  1  0
 20 45  1  0
 23 46  1  0
 23 47  1  0
 23 48  1  0
 25 49  1  0
 25 50  1  0
 25 51  1  0
 26 52  1  0
 26 53  1  0
 27 54  1  1
 30 55  1  0
 30 56  1  0
 30 57  1  0
 31 58  1  0
 31 59  1  0
 31 60  1  0
M  END
$$$$
