
     RDKit          3D

 59 62  0  0  0  0  0  0  0  0999 V2000
   -5.2253   -2.3084   -1.9512 C   0  0  0  0  0  0  0  0  0  0  0  0
   -4.6892   -1.3499   -1.0449 O   0  0  0  0  0  0  0  0  0  0  0  0
   -3.3468   -0.9345   -1.0156 C   0  0  0  0  0  0  0  0  0  0  0  0
   -2.3989   -1.4707   -1.9034 C   0  0  0  0  0  0  0  0  0  0  0  0
   -1.0583   -1.0910   -1.8322 C   0  0  0  0  0  0  0  0  0  0  0  0
   -0.1341   -1.6217   -2.7333 O   0  0  0  0  0  0  0  0  0  0  0  0
   -0.6362   -0.1879   -0.8470 C   0  0  0  0  0  0  0  0  0  0  0  0
   -1.5727    0.3457    0.0688 C   0  0  0  0  0  0  0  0  0  0  0  0
   -2.9461    0.0293   -0.0613 C   0  0  0  0  0  0  0  0  0  0  0  0
   -3.9945    0.6635    0.8606 C   0  0  2  0  0  0  0  0  0  0  0  0
   -4.9627    1.5286    0.0433 C   0  0  0  0  0  0  0  0  0  0  0  0
   -3.4339    1.5246    1.9242 N   0  0  0  0  0  0  0  0  0  0  0  0
   -2.0833    1.1722    2.3752 C   0  0  2  0  0  0  0  0  0  0  0  0
   -1.1205    1.2468    1.1908 C   0  0  0  0  0  0  0  0  0  0  0  0
   -2.0416   -0.1889    3.0950 C   0  0  0  0  0  0  0  0  0  0  0  0
    0.8050    0.1728   -0.7740 C   0  0  0  0  0  0  0  0  0  0  0  0
    1.2755    1.2811   -1.5059 C   0  0  0  0  0  0  0  0  0  0  0  0
    0.3425    2.1009   -2.3628 C   0  0  0  0  0  0  0  0  0  0  0  0
    2.6281    1.6271   -1.4454 C   0  0  0  0  0  0  0  0  0  0  0  0
    3.5389    0.8949   -0.6655 C   0  0  0  0  0  0  0  0  0  0  0  0
    3.0832   -0.2228    0.0802 C   0  0  0  0  0  0  0  0  0  0  0  0
    1.7043   -0.5832    0.0209 C   0  0  0  0  0  0  0  0  0  0  0  0
    1.2487   -1.6900    0.7675 C   0  0  0  0  0  0  0  0  0  0  0  0
    2.1244   -2.4287    1.5527 C   0  0  0  0  0  0  0  0  0  0  0  0
    3.4693   -2.0879    1.6143 C   0  0  0  0  0  0  0  0  0  0  0  0
    3.9689   -0.9913    0.8879 C   0  0  0  0  0  0  0  0  0  0  0  0
    5.3320   -0.6522    0.9564 O   0  0  0  0  0  0  0  0  0  0  0  0
    6.3102   -1.3431    1.7274 C   0  0  0  0  0  0  0  0  0  0  0  0
    4.8960    1.2624   -0.6187 O   0  0  0  0  0  0  0  0  0  0  0  0
    5.4750    2.3601   -1.3178 C   0  0  0  0  0  0  0  0  0  0  0  0
   -6.3071   -2.4371   -1.7433 H   0  0  0  0  0  0  0  0  0  0  0  0
   -4.7188   -3.2873   -1.8158 H   0  0  0  0  0  0  0  0  0  0  0  0
   -5.1047   -1.9544   -2.9968 H   0  0  0  0  0  0  0  0  0  0  0  0
   -2.6924   -2.1913   -2.6542 H   0  0  0  0  0  0  0  0  0  0  0  0
   -0.4096   -2.2794   -3.4531 H   0  0  0  0  0  0  0  0  0  0  0  0
   -4.5757   -0.1589    1.3368 H   0  0  0  0  0  0  0  0  0  0  0  0
   -5.7085    2.0005    0.7181 H   0  0  0  0  0  0  0  0  0  0  0  0
   -4.4052    2.3324   -0.4841 H   0  0  0  0  0  0  0  0  0  0  0  0
   -5.5217    0.9323   -0.7046 H   0  0  0  0  0  0  0  0  0  0  0  0
   -4.0829    1.5249    2.7468 H   0  0  0  0  0  0  0  0  0  0  0  0
   -1.7582    1.9408    3.1112 H   0  0  0  0  0  0  0  0  0  0  0  0
   -0.1050    0.9748    1.5485 H   0  0  0  0  0  0  0  0  0  0  0  0
   -1.0804    2.2911    0.8127 H   0  0  0  0  0  0  0  0  0  0  0  0
   -2.3327   -1.0208    2.4210 H   0  0  0  0  0  0  0  0  0  0  0  0
   -2.7337   -0.1782    3.9633 H   0  0  0  0  0  0  0  0  0  0  0  0
   -1.0153   -0.3857    3.4715 H   0  0  0  0  0  0  0  0  0  0  0  0
   -0.4716    2.5231   -1.7373 H   0  0  0  0  0  0  0  0  0  0  0  0
   -0.0999    1.4605   -3.1544 H   0  0  0  0  0  0  0  0  0  0  0  0
    0.8672    2.9459   -2.8570 H   0  0  0  0  0  0  0  0  0  0  0  0
    2.9700    2.4796   -2.0160 H   0  0  0  0  0  0  0  0  0  0  0  0
    0.2101   -1.9939    0.7557 H   0  0  0  0  0  0  0  0  0  0  0  0
    1.7565   -3.2743    2.1199 H   0  0  0  0  0  0  0  0  0  0  0  0
    4.1170   -2.6893    2.2367 H   0  0  0  0  0  0  0  0  0  0  0  0
    6.3888   -2.3978    1.3889 H   0  0  0  0  0  0  0  0  0  0  0  0
    6.0457   -1.3031    2.8051 H   0  0  0  0  0  0  0  0  0  0  0  0
    7.2946   -0.8518    1.5861 H   0  0  0  0  0  0  0  0  0  0  0  0
    6.5593    2.4030   -1.0881 H   0  0  0  0  0  0  0  0  0  0  0  0
    5.0060    3.3120   -0.9907 H   0  0  0  0  0  0  0  0  0  0  0  0
    5.3503    2.2247   -2.4129 H   0  0  0  0  0  0  0  0  0  0  0  0
  1  2  1  0
  2  3  1  0
  3  4  2  0
  4  5  1  0
  5  6  1  0
  5  7  2  0
  7  8  1  0
  8  9  2  0
  9 10  1  0
 10 11  1  0
 10 12  1  0
 12 13  1  0
 13 14  1  0
 13 15  1  0
  7 16  1  0
 16 17  2  0
 17 18  1  0
 17 19  1  0
 19 20  2  0
 20 21  1  0
 21 22  2  0
 22 23  1  0
 23 24  2  0
 24 25  1  0
 25 26  2  0
 26 27  1  0
 27 28  1  0
 20 29  1  0
 29 30  1  0
  9  3  1  0
 22 16  1  0
 14  8  1  0
 26 21  1  0
  1 31  1  0
  1 32  1  0
  1 33  1  0
  4 34  1  0
  6 35  1  0
 10 36  1  1
 11 37  1  0
 11 38  1  0
 11 39  1  0
 12 40  1  0
 13 41  1  1
 14 42  1  0
 14 43  1  0
 15 44  1  0
 15 45  1  0
 15 46  1  0
 18 47  1  0
 18 48  1  0
 18 49  1  0
 19 50  1  0
 23 51  1  0
 24 52  1  0
 25 53  1  0
 28 54  1  0
 28 55  1  0
 28 56  1  0
 30 57  1  0
 30 58  1  0
 30 59  1  0
M  END
$$$$
