
     RDKit          3D

 58 58  0  0  0  0  0  0  0  0999 V2000
    8.0325   -0.4835   -3.0339 O   0  0  0  0  0  0  0  0  0  0  0  0
    8.0622   -0.1173   -1.6817 C   0  0  0  0  0  0  0  0  0  0  0  0
    7.2677   -1.1245   -0.8496 C   0  0  0  0  0  0  0  0  0  0  0  0
    5.8058   -1.1110   -1.2223 C   0  0  0  0  0  0  0  0  0  0  0  0
    4.8898   -0.2756   -0.6964 C   0  0  0  0  0  0  0  0  0  0  0  0
    5.1680    0.7165    0.4054 C   0  0  0  0  0  0  0  0  0  0  0  0
    5.1705    0.0404    1.7552 C   0  0  0  0  0  0  0  0  0  0  0  0
    4.0611   -0.3033    2.4373 C   0  0  0  0  0  0  0  0  0  0  0  0
    2.6573   -0.0216    1.9699 C   0  0  0  0  0  0  0  0  0  0  0  0
    2.3178    1.4356    2.1607 C   0  0  0  0  0  0  0  0  0  0  0  0
    1.5046    2.1452    1.3560 C   0  0  0  0  0  0  0  0  0  0  0  0
    0.8554    1.6174    0.0989 C   0  0  0  0  0  0  0  0  0  0  0  0
   -0.3034    0.6505    0.3899 C   0  0  0  0  0  0  0  0  0  0  0  0
   -1.4950    1.3591    1.0581 C   0  0  0  0  0  0  0  0  0  0  0  0
   -2.6080    0.3824    1.4675 C   0  0  0  0  0  0  0  0  0  0  0  0
   -3.4038   -0.1459    0.2661 C   0  0  0  0  0  0  0  0  0  0  0  0
   -4.5321   -1.0725    0.7287 C   0  0  0  0  0  0  0  0  0  0  0  0
   -5.3096   -1.5874   -0.4488 C   0  0  0  0  0  0  0  0  0  0  0  0
   -6.4213   -1.0586   -0.9547 C   0  0  0  0  0  0  0  0  0  0  0  0
   -7.0559    0.0672   -0.4176 O   0  0  0  0  0  0  0  0  0  0  0  0
   -8.4541    0.1280   -0.1610 C   0  0  0  0  0  0  0  0  0  0  0  0
   -6.8142   -1.8662   -2.1256 C   0  0  0  0  0  0  0  0  0  0  0  0
   -7.8039   -1.6399   -2.9841 C   0  0  0  0  0  0  0  0  0  0  0  0
   -5.9159   -2.9175   -2.2690 O   0  0  0  0  0  0  0  0  0  0  0  0
   -4.9803   -2.7545   -1.2604 C   0  0  0  0  0  0  0  0  0  0  0  0
   -3.9940   -3.5180   -1.0851 O   0  0  0  0  0  0  0  0  0  0  0  0
    8.4949    0.2440   -3.5261 H   0  0  0  0  0  0  0  0  0  0  0  0
    9.1160   -0.1093   -1.3255 H   0  0  0  0  0  0  0  0  0  0  0  0
    7.6405    0.9049   -1.5537 H   0  0  0  0  0  0  0  0  0  0  0  0
    7.6734   -2.1422   -1.0380 H   0  0  0  0  0  0  0  0  0  0  0  0
    7.4066   -0.9174    0.2315 H   0  0  0  0  0  0  0  0  0  0  0  0
    5.4834   -1.8009   -1.9982 H   0  0  0  0  0  0  0  0  0  0  0  0
    3.8744   -0.3314   -1.0772 H   0  0  0  0  0  0  0  0  0  0  0  0
    4.4084    1.5242    0.3788 H   0  0  0  0  0  0  0  0  0  0  0  0
    6.1488    1.2069    0.2433 H   0  0  0  0  0  0  0  0  0  0  0  0
    6.1344   -0.1880    2.2037 H   0  0  0  0  0  0  0  0  0  0  0  0
    4.1827   -0.8072    3.3927 H   0  0  0  0  0  0  0  0  0  0  0  0
    1.9525   -0.6160    2.5883 H   0  0  0  0  0  0  0  0  0  0  0  0
    2.5386   -0.3606    0.9224 H   0  0  0  0  0  0  0  0  0  0  0  0
    2.7027    1.9316    3.0474 H   0  0  0  0  0  0  0  0  0  0  0  0
    1.3219    3.1856    1.6114 H   0  0  0  0  0  0  0  0  0  0  0  0
    0.4656    2.4785   -0.4871 H   0  0  0  0  0  0  0  0  0  0  0  0
    1.6155    1.1213   -0.5417 H   0  0  0  0  0  0  0  0  0  0  0  0
    0.0470   -0.1851    1.0309 H   0  0  0  0  0  0  0  0  0  0  0  0
   -0.6292    0.2160   -0.5783 H   0  0  0  0  0  0  0  0  0  0  0  0
   -1.9055    2.1355    0.3781 H   0  0  0  0  0  0  0  0  0  0  0  0
   -1.1425    1.8717    1.9780 H   0  0  0  0  0  0  0  0  0  0  0  0
   -3.3055    0.9202    2.1472 H   0  0  0  0  0  0  0  0  0  0  0  0
   -2.1723   -0.4667    2.0375 H   0  0  0  0  0  0  0  0  0  0  0  0
   -3.8369    0.7107   -0.2953 H   0  0  0  0  0  0  0  0  0  0  0  0
   -2.7325   -0.7124   -0.4133 H   0  0  0  0  0  0  0  0  0  0  0  0
   -5.2114   -0.5267    1.4208 H   0  0  0  0  0  0  0  0  0  0  0  0
   -4.1043   -1.9365    1.2841 H   0  0  0  0  0  0  0  0  0  0  0  0
   -8.6602    1.0072    0.4830 H   0  0  0  0  0  0  0  0  0  0  0  0
   -9.0310    0.2513   -1.0972 H   0  0  0  0  0  0  0  0  0  0  0  0
   -8.7836   -0.7877    0.3761 H   0  0  0  0  0  0  0  0  0  0  0  0
   -7.9544   -2.3121   -3.8173 H   0  0  0  0  0  0  0  0  0  0  0  0
   -8.4395   -0.7734   -2.9098 H   0  0  0  0  0  0  0  0  0  0  0  0
  1  2  1  0
  2  3  1  0
  3  4  1  0
  4  5  2  0
  5  6  1  0
  6  7  1  0
  7  8  2  0
  8  9  1  0
  9 10  1  0
 10 11  2  0
 11 12  1  0
 12 13  1  0
 13 14  1  0
 14 15  1  0
 15 16  1  0
 16 17  1  0
 17 18  1  0
 18 19  2  0
 19 20  1  0
 20 21  1  0
 19 22  1  0
 22 23  2  3
 22 24  1  0
 24 25  1  0
 25 26  2  0
 25 18  1  0
  1 27  1  0
  2 28  1  0
  2 29  1  0
  3 30  1  0
  3 31  1  0
  4 32  1  0
  5 33  1  0
  6 34  1  0
  6 35  1  0
  7 36  1  0
  8 37  1  0
  9 38  1  0
  9 39  1  0
 10 40  1  0
 11 41  1  0
 12 42  1  0
 12 43  1  0
 13 44  1  0
 13 45  1  0
 14 46  1  0
 14 47  1  0
 15 48  1  0
 15 49  1  0
 16 50  1  0
 16 51  1  0
 17 52  1  0
 17 53  1  0
 21 54  1  0
 21 55  1  0
 21 56  1  0
 23 57  1  0
 23 58  1  0
M  END
$$$$
