
     RDKit          3D

 18 17  0  0  0  0  0  0  0  0999 V2000
    2.5526    0.7000   -1.0743 O   0  0  0  0  0  0  0  0  0  0  0  0
    1.2887    1.0685   -0.5921 C   0  0  0  0  0  0  0  0  0  0  0  0
    0.7462   -0.0039    0.3254 C   0  0  0  0  0  0  0  0  0  0  0  0
    1.3029   -0.1798    1.5348 C   0  0  0  0  0  0  0  0  0  0  0  0
   -0.4736   -0.8108   -0.0752 C   0  0  1  0  0  0  0  0  0  0  0  0
   -1.7442    0.0304    0.0993 C   0  0  0  0  0  0  0  0  0  0  0  0
   -2.8739   -0.7532   -0.1691 O   0  0  0  0  0  0  0  0  0  0  0  0
   -0.3414   -1.2200   -1.4128 O   0  0  0  0  0  0  0  0  0  0  0  0
    3.2130    0.9628   -0.3813 H   0  0  0  0  0  0  0  0  0  0  0  0
    1.3353    2.0447   -0.0563 H   0  0  0  0  0  0  0  0  0  0  0  0
    0.6137    1.2109   -1.4617 H   0  0  0  0  0  0  0  0  0  0  0  0
    2.1541    0.4170    1.8486 H   0  0  0  0  0  0  0  0  0  0  0  0
    0.9129   -0.9161    2.2309 H   0  0  0  0  0  0  0  0  0  0  0  0
   -0.5534   -1.7126    0.5787 H   0  0  0  0  0  0  0  0  0  0  0  0
   -1.7976    0.4064    1.1462 H   0  0  0  0  0  0  0  0  0  0  0  0
   -1.7202    0.9016   -0.5933 H   0  0  0  0  0  0  0  0  0  0  0  0
   -3.6581   -0.1581   -0.0431 H   0  0  0  0  0  0  0  0  0  0  0  0
   -0.9571   -1.9878   -1.5449 H   0  0  0  0  0  0  0  0  0  0  0  0
  1  2  1  0
  2  3  1  0
  3  4  2  3
  3  5  1  0
  5  6  1  0
  6  7  1  0
  5  8  1  0
  1  9  1  0
  2 10  1  0
  2 11  1  0
  4 12  1  0
  4 13  1  0
  5 14  1  1
  6 15  1  0
  6 16  1  0
  7 17  1  0
  8 18  1  0
M  END
$$$$
