
     RDKit          3D

 28 29  0  0  0  0  0  0  0  0999 V2000
   -0.4880   -1.8042    0.0081 O   0  0  0  0  0  0  0  0  0  0  0  0
   -0.8836   -0.6669   -0.3701 C   0  0  0  0  0  0  0  0  0  0  0  0
   -2.1332   -0.0959    0.1781 C   0  0  0  0  0  0  0  0  0  0  0  0
   -2.8988   -0.8113    1.1184 C   0  0  0  0  0  0  0  0  0  0  0  0
   -4.0782   -0.2640    1.6334 C   0  0  0  0  0  0  0  0  0  0  0  0
   -4.5049    0.9992    1.2175 C   0  0  0  0  0  0  0  0  0  0  0  0
   -3.7530    1.7181    0.2855 C   0  0  0  0  0  0  0  0  0  0  0  0
   -2.5729    1.1758   -0.2330 C   0  0  0  0  0  0  0  0  0  0  0  0
   -0.1416    0.0574   -1.3119 O   0  0  0  0  0  0  0  0  0  0  0  0
    1.1018   -0.3925   -1.8456 C   0  0  0  0  0  0  0  0  0  0  0  0
    2.1840   -0.2964   -0.8051 C   0  0  0  0  0  0  0  0  0  0  0  0
    2.6047    0.9624   -0.3463 C   0  0  0  0  0  0  0  0  0  0  0  0
    3.5968    1.0590    0.6345 C   0  0  0  0  0  0  0  0  0  0  0  0
    4.1720   -0.0989    1.1653 C   0  0  0  0  0  0  0  0  0  0  0  0
    3.7550   -1.3554    0.7171 C   0  0  0  0  0  0  0  0  0  0  0  0
    2.7632   -1.4564   -0.2637 C   0  0  0  0  0  0  0  0  0  0  0  0
   -2.5876   -1.7920    1.4557 H   0  0  0  0  0  0  0  0  0  0  0  0
   -4.6616   -0.8201    2.3559 H   0  0  0  0  0  0  0  0  0  0  0  0
   -5.4179    1.4210    1.6175 H   0  0  0  0  0  0  0  0  0  0  0  0
   -4.0845    2.6971   -0.0357 H   0  0  0  0  0  0  0  0  0  0  0  0
   -2.0064    1.7522   -0.9535 H   0  0  0  0  0  0  0  0  0  0  0  0
    1.3729    0.2542   -2.7067 H   0  0  0  0  0  0  0  0  0  0  0  0
    0.9955   -1.4295   -2.2333 H   0  0  0  0  0  0  0  0  0  0  0  0
    2.1626    1.8663   -0.7470 H   0  0  0  0  0  0  0  0  0  0  0  0
    3.9183    2.0315    0.9842 H   0  0  0  0  0  0  0  0  0  0  0  0
    4.9392   -0.0226    1.9249 H   0  0  0  0  0  0  0  0  0  0  0  0
    4.1992   -2.2514    1.1310 H   0  0  0  0  0  0  0  0  0  0  0  0
    2.4468   -2.4368   -0.5975 H   0  0  0  0  0  0  0  0  0  0  0  0
  1  2  2  0
  2  3  1  0
  3  4  2  0
  4  5  1  0
  5  6  2  0
  6  7  1  0
  7  8  2  0
  2  9  1  0
  9 10  1  0
 10 11  1  0
 11 12  2  0
 12 13  1  0
 13 14  2  0
 14 15  1  0
 15 16  2  0
  8  3  1  0
 16 11  1  0
  4 17  1  0
  5 18  1  0
  6 19  1  0
  7 20  1  0
  8 21  1  0
 10 22  1  0
 10 23  1  0
 12 24  1  0
 13 25  1  0
 14 26  1  0
 15 27  1  0
 16 28  1  0
M  END
$$$$
