
     RDKit          3D

 33 34  0  0  0  0  0  0  0  0999 V2000
   -1.4650   -3.4100    0.8642 C   0  0  0  0  0  0  0  0  0  0  0  0
   -1.4096   -1.9311    0.6106 C   0  0  0  0  0  0  0  0  0  0  0  0
   -2.5804   -1.1750    0.6254 C   0  0  0  0  0  0  0  0  0  0  0  0
   -2.5397    0.1877    0.3511 C   0  0  0  0  0  0  0  0  0  0  0  0
   -1.3215    0.8314    0.0437 C   0  0  0  0  0  0  0  0  0  0  0  0
   -0.1122    0.0665    0.0120 C   0  0  0  0  0  0  0  0  0  0  0  0
   -0.1930   -1.3175    0.2888 C   0  0  0  0  0  0  0  0  0  0  0  0
    1.1254    0.7169   -0.2984 C   0  0  0  0  0  0  0  0  0  0  0  0
    1.1044    2.0955   -0.5792 C   0  0  0  0  0  0  0  0  0  0  0  0
   -0.0733    2.8287   -0.5489 C   0  0  0  0  0  0  0  0  0  0  0  0
   -1.2903    2.2202   -0.2379 C   0  0  0  0  0  0  0  0  0  0  0  0
   -2.5357    3.0735   -0.2187 C   0  0  0  0  0  0  0  0  0  0  0  0
    2.4995    0.0341   -0.3536 C   0  0  0  0  0  0  0  0  0  0  0  0
    2.6376   -0.9407   -1.5317 C   0  0  0  0  0  0  0  0  0  0  0  0
    2.9454   -0.5679    0.9898 C   0  0  0  0  0  0  0  0  0  0  0  0
   -1.5599   -3.9468   -0.1026 H   0  0  0  0  0  0  0  0  0  0  0  0
   -0.5423   -3.7519    1.3799 H   0  0  0  0  0  0  0  0  0  0  0  0
   -2.3320   -3.6693    1.5087 H   0  0  0  0  0  0  0  0  0  0  0  0
   -3.5320   -1.6420    0.8489 H   0  0  0  0  0  0  0  0  0  0  0  0
   -3.4765    0.7272    0.3795 H   0  0  0  0  0  0  0  0  0  0  0  0
    0.6687   -1.9519    0.2568 H   0  0  0  0  0  0  0  0  0  0  0  0
    2.0164    2.6252   -0.8259 H   0  0  0  0  0  0  0  0  0  0  0  0
   -0.0289    3.8881   -0.7710 H   0  0  0  0  0  0  0  0  0  0  0  0
   -2.9985    3.0425    0.7901 H   0  0  0  0  0  0  0  0  0  0  0  0
   -2.3147    4.1361   -0.4560 H   0  0  0  0  0  0  0  0  0  0  0  0
   -3.2591    2.7015   -0.9744 H   0  0  0  0  0  0  0  0  0  0  0  0
    3.2645    0.8168   -0.5600 H   0  0  0  0  0  0  0  0  0  0  0  0
    1.9941   -1.8338   -1.4348 H   0  0  0  0  0  0  0  0  0  0  0  0
    2.3752   -0.4232   -2.4791 H   0  0  0  0  0  0  0  0  0  0  0  0
    3.6905   -1.2869   -1.6103 H   0  0  0  0  0  0  0  0  0  0  0  0
    2.5571   -1.5884    1.1615 H   0  0  0  0  0  0  0  0  0  0  0  0
    2.6322    0.0881    1.8299 H   0  0  0  0  0  0  0  0  0  0  0  0
    4.0539   -0.6437    1.0125 H   0  0  0  0  0  0  0  0  0  0  0  0
  1  2  1  0
  2  3  2  0
  3  4  1  0
  4  5  2  0
  5  6  1  0
  6  7  2  0
  6  8  1  0
  8  9  2  0
  9 10  1  0
 10 11  2  0
 11 12  1  0
  8 13  1  0
 13 14  1  0
 13 15  1  0
  7  2  1  0
 11  5  1  0
  1 16  1  0
  1 17  1  0
  1 18  1  0
  3 19  1  0
  4 20  1  0
  7 21  1  0
  9 22  1  0
 10 23  1  0
 12 24  1  0
 12 25  1  0
 12 26  1  0
 13 27  1  0
 14 28  1  0
 14 29  1  0
 14 30  1  0
 15 31  1  0
 15 32  1  0
 15 33  1  0
M  END
$$$$
