
     RDKit          3D

 39 40  0  0  0  0  0  0  0  0999 V2000
    2.0829   -1.3919    2.4593 C   0  0  0  0  0  0  0  0  0  0  0  0
    2.1223   -0.6338    1.1550 C   0  0  0  0  0  0  0  0  0  0  0  0
    2.4472    0.6769    1.2018 C   0  0  0  0  0  0  0  0  0  0  0  0
    2.4969    1.6134    0.0223 C   0  0  0  0  0  0  0  0  0  0  0  0
    1.2747    2.5390    0.0126 C   0  0  0  0  0  0  0  0  0  0  0  0
    0.0760    1.8494   -0.5967 C   0  0  0  0  0  0  0  0  0  0  0  0
   -0.1402    1.9986   -1.9192 C   0  0  0  0  0  0  0  0  0  0  0  0
   -0.7874    0.9617    0.3072 C   0  0  0  0  0  0  0  0  0  0  0  0
   -0.6330   -0.5729    0.1848 C   0  0  0  0  0  0  0  0  0  0  0  0
    0.4516   -1.1209   -0.7845 C   0  0  0  0  0  0  0  0  0  0  0  0
    1.8353   -1.3848   -0.1379 C   0  0  0  0  0  0  0  0  0  0  0  0
   -2.1190   -0.6740   -0.2525 C   0  0  0  0  0  0  0  0  0  0  0  0
   -2.2722    0.8475   -0.0713 C   0  0  0  0  0  0  0  0  0  0  0  0
   -2.3861   -1.1320   -1.7008 C   0  0  0  0  0  0  0  0  0  0  0  0
   -2.9803   -1.4719    0.7442 C   0  0  0  0  0  0  0  0  0  0  0  0
    1.3568   -0.9127    3.1500 H   0  0  0  0  0  0  0  0  0  0  0  0
    3.0894   -1.3854    2.9287 H   0  0  0  0  0  0  0  0  0  0  0  0
    1.7697   -2.4469    2.3152 H   0  0  0  0  0  0  0  0  0  0  0  0
    2.6342    1.1292    2.1732 H   0  0  0  0  0  0  0  0  0  0  0  0
    2.5967    1.0836   -0.9473 H   0  0  0  0  0  0  0  0  0  0  0  0
    3.4085    2.2387    0.1338 H   0  0  0  0  0  0  0  0  0  0  0  0
    1.0378    2.8846    1.0428 H   0  0  0  0  0  0  0  0  0  0  0  0
    1.5235    3.4568   -0.5655 H   0  0  0  0  0  0  0  0  0  0  0  0
    0.5185    2.6156   -2.5231 H   0  0  0  0  0  0  0  0  0  0  0  0
   -0.9460    1.5031   -2.4393 H   0  0  0  0  0  0  0  0  0  0  0  0
   -0.6867    1.2694    1.3724 H   0  0  0  0  0  0  0  0  0  0  0  0
   -0.5033   -1.0296    1.1917 H   0  0  0  0  0  0  0  0  0  0  0  0
    0.0974   -2.0969   -1.1792 H   0  0  0  0  0  0  0  0  0  0  0  0
    0.5793   -0.4797   -1.6758 H   0  0  0  0  0  0  0  0  0  0  0  0
    2.6409   -1.1856   -0.8760 H   0  0  0  0  0  0  0  0  0  0  0  0
    1.9103   -2.4759    0.0610 H   0  0  0  0  0  0  0  0  0  0  0  0
   -2.5826    1.3876   -0.9887 H   0  0  0  0  0  0  0  0  0  0  0  0
   -2.9271    1.1248    0.7847 H   0  0  0  0  0  0  0  0  0  0  0  0
   -3.4432   -0.9251   -1.9721 H   0  0  0  0  0  0  0  0  0  0  0  0
   -2.2119   -2.2246   -1.7964 H   0  0  0  0  0  0  0  0  0  0  0  0
   -1.7367   -0.6103   -2.4297 H   0  0  0  0  0  0  0  0  0  0  0  0
   -2.7092   -2.5483    0.7015 H   0  0  0  0  0  0  0  0  0  0  0  0
   -2.8282   -1.1137    1.7855 H   0  0  0  0  0  0  0  0  0  0  0  0
   -4.0568   -1.3630    0.4924 H   0  0  0  0  0  0  0  0  0  0  0  0
  1  2  1  0
  2  3  2  0
  3  4  1  0
  4  5  1  0
  5  6  1  0
  6  7  2  3
  6  8  1  0
  8  9  1  0
  9 10  1  0
 10 11  1  0
  9 12  1  0
 12 13  1  0
 12 14  1  0
 12 15  1  0
 11  2  1  0
 13  8  1  0
  1 16  1  0
  1 17  1  0
  1 18  1  0
  3 19  1  0
  4 20  1  0
  4 21  1  0
  5 22  1  0
  5 23  1  0
  7 24  1  0
  7 25  1  0
  8 26  1  0
  9 27  1  0
 10 28  1  0
 10 29  1  0
 11 30  1  0
 11 31  1  0
 13 32  1  0
 13 33  1  0
 14 34  1  0
 14 35  1  0
 14 36  1  0
 15 37  1  0
 15 38  1  0
 15 39  1  0
M  END
$$$$
