
     RDKit          3D

 40 42  0  0  0  0  0  0  0  0999 V2000
   -0.6619    2.4052   -1.4326 C   0  0  0  0  0  0  0  0  0  0  0  0
   -0.0660    1.8541   -0.3607 C   0  0  0  0  0  0  0  0  0  0  0  0
    1.2588    2.4251    0.1236 C   0  0  0  0  0  0  0  0  0  0  0  0
    2.4816    1.7727   -0.5631 C   0  0  0  0  0  0  0  0  0  0  0  0
    2.2910    0.2596   -0.7239 C   0  0  1  0  0  0  0  0  0  0  0  0
    3.3514   -0.5839   -0.3434 O   0  0  0  0  0  0  0  0  0  0  0  0
    2.2486   -0.5361    0.5447 C   0  0  2  0  0  0  0  0  0  0  0  0
    1.3585   -1.8016    0.5620 C   0  0  0  0  0  0  0  0  0  0  0  0
    0.2108   -1.8662   -0.4753 C   0  0  0  0  0  0  0  0  0  0  0  0
   -0.7573   -0.6377   -0.6191 C   0  0  2  0  0  0  0  0  0  0  0  0
   -0.6083    0.5875    0.3105 C   0  0  2  0  0  0  0  0  0  0  0  0
   -2.1085    0.5549    0.6123 C   0  0  0  0  0  0  0  0  0  0  0  0
   -2.2306   -0.7813   -0.1457 C   0  0  0  0  0  0  0  0  0  0  0  0
   -3.2527   -0.7349   -1.2944 C   0  0  0  0  0  0  0  0  0  0  0  0
   -2.5270   -1.9425    0.8252 C   0  0  0  0  0  0  0  0  0  0  0  0
    2.7418   -0.0257    1.9086 C   0  0  0  0  0  0  0  0  0  0  0  0
   -0.2313    3.2733   -1.9223 H   0  0  0  0  0  0  0  0  0  0  0  0
   -1.5770    1.9985   -1.8453 H   0  0  0  0  0  0  0  0  0  0  0  0
    1.2913    3.5236   -0.0470 H   0  0  0  0  0  0  0  0  0  0  0  0
    1.3336    2.2923    1.2219 H   0  0  0  0  0  0  0  0  0  0  0  0
    3.4137    2.0224   -0.0155 H   0  0  0  0  0  0  0  0  0  0  0  0
    2.5870    2.2074   -1.5802 H   0  0  0  0  0  0  0  0  0  0  0  0
    1.8097   -0.1098   -1.6505 H   0  0  0  0  0  0  0  0  0  0  0  0
    2.0086   -2.6934    0.4304 H   0  0  0  0  0  0  0  0  0  0  0  0
    0.8977   -1.8977    1.5688 H   0  0  0  0  0  0  0  0  0  0  0  0
    0.6739   -2.0525   -1.4681 H   0  0  0  0  0  0  0  0  0  0  0  0
   -0.3592   -2.7972   -0.2928 H   0  0  0  0  0  0  0  0  0  0  0  0
   -0.7352   -0.3144   -1.6849 H   0  0  0  0  0  0  0  0  0  0  0  0
   -0.0767    0.3547    1.2525 H   0  0  0  0  0  0  0  0  0  0  0  0
   -2.6782    1.3859    0.1428 H   0  0  0  0  0  0  0  0  0  0  0  0
   -2.3168    0.4819    1.7034 H   0  0  0  0  0  0  0  0  0  0  0  0
   -3.0768    0.1348   -1.9613 H   0  0  0  0  0  0  0  0  0  0  0  0
   -4.2825   -0.6563   -0.8856 H   0  0  0  0  0  0  0  0  0  0  0  0
   -3.1781   -1.6615   -1.9020 H   0  0  0  0  0  0  0  0  0  0  0  0
   -3.5102   -1.7810    1.3166 H   0  0  0  0  0  0  0  0  0  0  0  0
   -1.7513   -2.0098    1.6181 H   0  0  0  0  0  0  0  0  0  0  0  0
   -2.5755   -2.9073    0.2778 H   0  0  0  0  0  0  0  0  0  0  0  0
    1.8938    0.3671    2.5043 H   0  0  0  0  0  0  0  0  0  0  0  0
    3.1916   -0.8709    2.4707 H   0  0  0  0  0  0  0  0  0  0  0  0
    3.5176    0.7606    1.8196 H   0  0  0  0  0  0  0  0  0  0  0  0
  1  2  2  3
  2  3  1  0
  3  4  1  0
  4  5  1  0
  5  6  1  0
  6  7  1  0
  7  8  1  0
  8  9  1  0
  9 10  1  0
 10 11  1  0
 11 12  1  0
 12 13  1  0
 13 14  1  0
 13 15  1  0
  7 16  1  1
 11  2  1  0
  7  5  1  0
 13 10  1  0
  1 17  1  0
  1 18  1  0
  3 19  1  0
  3 20  1  0
  4 21  1  0
  4 22  1  0
  5 23  1  6
  8 24  1  0
  8 25  1  0
  9 26  1  0
  9 27  1  0
 10 28  1  6
 11 29  1  1
 12 30  1  0
 12 31  1  0
 14 32  1  0
 14 33  1  0
 14 34  1  0
 15 35  1  0
 15 36  1  0
 15 37  1  0
 16 38  1  0
 16 39  1  0
 16 40  1  0
M  END
$$$$
