
     RDKit          3D

 58 62  0  0  0  0  0  0  0  0999 V2000
    1.8292    2.2705   -1.9567 O   0  0  0  0  0  0  0  0  0  0  0  0
    1.9397    1.2354   -1.2450 C   0  0  0  0  0  0  0  0  0  0  0  0
    0.7281    0.4711   -0.8866 C   0  0  0  0  0  0  0  0  0  0  0  0
   -0.2694    1.0525   -0.0777 C   0  0  0  0  0  0  0  0  0  0  0  0
   -0.1243    2.3473    0.4362 O   0  0  0  0  0  0  0  0  0  0  0  0
   -1.4333    0.3277    0.2361 C   0  0  0  0  0  0  0  0  0  0  0  0
   -2.5246    0.9798    1.0623 C   0  0  0  0  0  0  0  0  0  0  0  0
   -3.2822    2.0008    0.2428 C   0  0  0  0  0  0  0  0  0  0  0  0
   -3.9665    1.5928   -0.9200 C   0  0  0  0  0  0  0  0  0  0  0  0
   -4.6305    2.5287   -1.7153 C   0  0  0  0  0  0  0  0  0  0  0  0
   -4.6406    3.8771   -1.3506 C   0  0  0  0  0  0  0  0  0  0  0  0
   -3.9946    4.2912   -0.1843 C   0  0  0  0  0  0  0  0  0  0  0  0
   -3.3099    3.3636    0.6152 C   0  0  0  0  0  0  0  0  0  0  0  0
   -2.6626    3.7961    1.7729 O   0  0  0  0  0  0  0  0  0  0  0  0
   -1.5984   -0.9800   -0.2584 C   0  0  0  0  0  0  0  0  0  0  0  0
   -0.5997   -1.5748   -1.0614 C   0  0  0  0  0  0  0  0  0  0  0  0
    0.5634   -0.8375   -1.3776 C   0  0  0  0  0  0  0  0  0  0  0  0
    1.5654   -1.3790   -2.1923 O   0  0  0  0  0  0  0  0  0  0  0  0
   -0.7764   -2.9848   -1.5897 C   0  0  0  0  0  0  0  0  0  0  0  0
   -2.0598   -3.6582   -1.1762 C   0  0  0  0  0  0  0  0  0  0  0  0
   -3.0052   -2.9879   -0.3816 C   0  0  0  0  0  0  0  0  0  0  0  0
   -2.7681   -1.6844    0.0467 O   0  0  0  0  0  0  0  0  0  0  0  0
   -4.1921   -3.6313   -0.0120 C   0  0  0  0  0  0  0  0  0  0  0  0
   -4.4376   -4.9441   -0.4205 C   0  0  0  0  0  0  0  0  0  0  0  0
   -3.4995   -5.6165   -1.2070 C   0  0  0  0  0  0  0  0  0  0  0  0
   -2.3150   -4.9766   -1.5873 C   0  0  0  0  0  0  0  0  0  0  0  0
    3.2886    0.8387   -0.7175 C   0  0  0  0  0  0  0  0  0  0  0  0
    3.4425    1.2732    0.7422 C   0  0  0  0  0  0  0  0  0  0  0  0
    4.8189    0.9447    1.2555 C   0  0  0  0  0  0  0  0  0  0  0  0
    5.8021    1.9424    1.3466 C   0  0  0  0  0  0  0  0  0  0  0  0
    7.0901    1.6236    1.7890 C   0  0  0  0  0  0  0  0  0  0  0  0
    7.4025    0.3101    2.1490 C   0  0  0  0  0  0  0  0  0  0  0  0
    6.4280   -0.6888    2.0647 C   0  0  0  0  0  0  0  0  0  0  0  0
    5.1424   -0.3751    1.6141 C   0  0  0  0  0  0  0  0  0  0  0  0
    0.6811    2.9303    0.2544 H   0  0  0  0  0  0  0  0  0  0  0  0
   -2.0580    1.4411    1.9606 H   0  0  0  0  0  0  0  0  0  0  0  0
   -3.2441    0.2339    1.4542 H   0  0  0  0  0  0  0  0  0  0  0  0
   -3.9716    0.5511   -1.2209 H   0  0  0  0  0  0  0  0  0  0  0  0
   -5.1363    2.2103   -2.6201 H   0  0  0  0  0  0  0  0  0  0  0  0
   -5.1534    4.6014   -1.9701 H   0  0  0  0  0  0  0  0  0  0  0  0
   -4.0129    5.3380    0.0914 H   0  0  0  0  0  0  0  0  0  0  0  0
   -2.6737    4.7699    2.0580 H   0  0  0  0  0  0  0  0  0  0  0  0
    1.5041   -2.2885   -2.6272 H   0  0  0  0  0  0  0  0  0  0  0  0
    0.0709   -3.6053   -1.2243 H   0  0  0  0  0  0  0  0  0  0  0  0
   -0.7449   -2.9586   -2.6997 H   0  0  0  0  0  0  0  0  0  0  0  0
   -4.9157   -3.1189    0.6049 H   0  0  0  0  0  0  0  0  0  0  0  0
   -5.3530   -5.4418   -0.1253 H   0  0  0  0  0  0  0  0  0  0  0  0
   -3.6911   -6.6339   -1.5257 H   0  0  0  0  0  0  0  0  0  0  0  0
   -1.5938   -5.5085   -2.1981 H   0  0  0  0  0  0  0  0  0  0  0  0
    3.4144   -0.2618   -0.7940 H   0  0  0  0  0  0  0  0  0  0  0  0
    4.0822    1.3144   -1.3356 H   0  0  0  0  0  0  0  0  0  0  0  0
    3.2542    2.3656    0.8265 H   0  0  0  0  0  0  0  0  0  0  0  0
    2.6836    0.7556    1.3693 H   0  0  0  0  0  0  0  0  0  0  0  0
    5.5791    2.9641    1.0618 H   0  0  0  0  0  0  0  0  0  0  0  0
    7.8506    2.3955    1.8439 H   0  0  0  0  0  0  0  0  0  0  0  0
    8.4024    0.0644    2.4859 H   0  0  0  0  0  0  0  0  0  0  0  0
    6.6744   -1.7077    2.3355 H   0  0  0  0  0  0  0  0  0  0  0  0
    4.4009   -1.1593    1.5375 H   0  0  0  0  0  0  0  0  0  0  0  0
  1  2  2  0
  2  3  1  0
  3  4  2  0
  4  5  1  0
  4  6  1  0
  6  7  1  0
  7  8  1  0
  8  9  2  0
  9 10  1  0
 10 11  2  0
 11 12  1  0
 12 13  2  0
 13 14  1  0
  6 15  2  0
 15 16  1  0
 16 17  2  0
 17 18  1  0
 16 19  1  0
 19 20  1  0
 20 21  2  0
 21 22  1  0
 21 23  1  0
 23 24  2  0
 24 25  1  0
 25 26  2  0
  2 27  1  0
 27 28  1  0
 28 29  1  0
 29 30  2  0
 30 31  1  0
 31 32  2  0
 32 33  1  0
 33 34  2  0
 17  3  1  0
 26 20  1  0
 34 29  1  0
 13  8  1  0
 22 15  1  0
  5 35  1  0
  7 36  1  0
  7 37  1  0
  9 38  1  0
 10 39  1  0
 11 40  1  0
 12 41  1  0
 14 42  1  0
 18 43  1  0
 19 44  1  0
 19 45  1  0
 23 46  1  0
 24 47  1  0
 25 48  1  0
 26 49  1  0
 27 50  1  0
 27 51  1  0
 28 52  1  0
 28 53  1  0
 30 54  1  0
 31 55  1  0
 32 56  1  0
 33 57  1  0
 34 58  1  0
M  END
$$$$
