
     RDKit          3D

 45 48  0  0  0  0  0  0  0  0999 V2000
    3.3874    2.3197   -1.3588 O   0  0  0  0  0  0  0  0  0  0  0  0
    2.1897    2.3331   -0.6446 C   0  0  0  0  0  0  0  0  0  0  0  0
    1.8907    3.4208    0.1813 C   0  0  0  0  0  0  0  0  0  0  0  0
    0.6879    3.4814    0.8874 C   0  0  0  0  0  0  0  0  0  0  0  0
    0.4280    4.6474    1.6116 O   0  0  0  0  0  0  0  0  0  0  0  0
   -0.2207    2.3973    0.8131 C   0  0  0  0  0  0  0  0  0  0  0  0
    0.0756    1.3034   -0.0316 C   0  0  0  0  0  0  0  0  0  0  0  0
    1.2800    1.2661   -0.7645 C   0  0  0  0  0  0  0  0  0  0  0  0
    1.6123    0.0800   -1.6479 C   0  0  0  0  0  0  0  0  0  0  0  0
    2.6076   -0.8401   -0.9783 C   0  0  0  0  0  0  0  0  0  0  0  0
    3.9711   -0.7572   -1.3149 C   0  0  0  0  0  0  0  0  0  0  0  0
    4.9086   -1.5809   -0.6871 C   0  0  0  0  0  0  0  0  0  0  0  0
    4.4977   -2.4975    0.2814 C   0  0  0  0  0  0  0  0  0  0  0  0
    3.1471   -2.5967    0.6209 C   0  0  0  0  0  0  0  0  0  0  0  0
    2.1970   -1.7759   -0.0049 C   0  0  0  0  0  0  0  0  0  0  0  0
    0.8506   -1.8957    0.3338 O   0  0  0  0  0  0  0  0  0  0  0  0
   -0.8436    0.2503   -0.1555 O   0  0  0  0  0  0  0  0  0  0  0  0
   -1.9246    0.0497    0.7572 C   0  0  1  0  0  0  0  0  0  0  0  0
   -2.5643    1.3921    1.1285 C   0  0  0  0  0  0  0  0  0  0  0  0
   -1.4885    2.3311    1.5835 C   0  0  0  0  0  0  0  0  0  0  0  0
   -1.6570    2.9955    2.6401 O   0  0  0  0  0  0  0  0  0  0  0  0
   -2.9435   -0.8830    0.1511 C   0  0  0  0  0  0  0  0  0  0  0  0
   -3.3487   -0.7280   -1.1872 C   0  0  0  0  0  0  0  0  0  0  0  0
   -4.3113   -1.5804   -1.7363 C   0  0  0  0  0  0  0  0  0  0  0  0
   -4.8838   -2.5867   -0.9542 C   0  0  0  0  0  0  0  0  0  0  0  0
   -4.4977   -2.7398    0.3800 C   0  0  0  0  0  0  0  0  0  0  0  0
   -3.5353   -1.8897    0.9337 C   0  0  0  0  0  0  0  0  0  0  0  0
    4.0576    3.0766   -1.2903 H   0  0  0  0  0  0  0  0  0  0  0  0
    2.5876    4.2470    0.2504 H   0  0  0  0  0  0  0  0  0  0  0  0
   -0.4794    4.8928    1.9799 H   0  0  0  0  0  0  0  0  0  0  0  0
    0.7000   -0.4933   -1.9176 H   0  0  0  0  0  0  0  0  0  0  0  0
    2.0171    0.4473   -2.6163 H   0  0  0  0  0  0  0  0  0  0  0  0
    4.3110   -0.0575   -2.0677 H   0  0  0  0  0  0  0  0  0  0  0  0
    5.9554   -1.5085   -0.9525 H   0  0  0  0  0  0  0  0  0  0  0  0
    5.2259   -3.1345    0.7668 H   0  0  0  0  0  0  0  0  0  0  0  0
    2.8379   -3.3150    1.3696 H   0  0  0  0  0  0  0  0  0  0  0  0
    0.5330   -2.5593    1.0306 H   0  0  0  0  0  0  0  0  0  0  0  0
   -1.5051   -0.4061    1.6827 H   0  0  0  0  0  0  0  0  0  0  0  0
   -3.0729    1.8363    0.2454 H   0  0  0  0  0  0  0  0  0  0  0  0
   -3.3152    1.2416    1.9353 H   0  0  0  0  0  0  0  0  0  0  0  0
   -2.9205    0.0528   -1.8037 H   0  0  0  0  0  0  0  0  0  0  0  0
   -4.6158   -1.4587   -2.7678 H   0  0  0  0  0  0  0  0  0  0  0  0
   -5.6297   -3.2450   -1.3805 H   0  0  0  0  0  0  0  0  0  0  0  0
   -4.9465   -3.5158    0.9865 H   0  0  0  0  0  0  0  0  0  0  0  0
   -3.2528   -2.0169    1.9713 H   0  0  0  0  0  0  0  0  0  0  0  0
  1  2  1  0
  2  3  2  0
  3  4  1  0
  4  5  1  0
  4  6  2  0
  6  7  1  0
  7  8  2  0
  8  9  1  0
  9 10  1  0
 10 11  2  0
 11 12  1  0
 12 13  2  0
 13 14  1  0
 14 15  2  0
 15 16  1  0
  7 17  1  0
 17 18  1  0
 18 19  1  0
 19 20  1  0
 20 21  2  0
 18 22  1  0
 22 23  2  0
 23 24  1  0
 24 25  2  0
 25 26  1  0
 26 27  2  0
  8  2  1  0
 15 10  1  0
 27 22  1  0
 20  6  1  0
  1 28  1  0
  3 29  1  0
  5 30  1  0
  9 31  1  0
  9 32  1  0
 11 33  1  0
 12 34  1  0
 13 35  1  0
 14 36  1  0
 16 37  1  0
 18 38  1  1
 19 39  1  0
 19 40  1  0
 23 41  1  0
 24 42  1  0
 25 43  1  0
 26 44  1  0
 27 45  1  0
M  END
$$$$
