
     RDKit          3D

 62 65  0  0  0  0  0  0  0  0999 V2000
   -0.1164   -3.8501   -2.0336 C   0  0  0  0  0  0  0  0  0  0  0  0
    0.1461   -2.5362   -1.5527 O   0  0  0  0  0  0  0  0  0  0  0  0
   -0.8307   -1.6564   -1.0556 C   0  0  0  0  0  0  0  0  0  0  0  0
   -2.1843   -2.0186   -0.9789 C   0  0  0  0  0  0  0  0  0  0  0  0
   -3.1332   -1.1442   -0.4332 C   0  0  0  0  0  0  0  0  0  0  0  0
   -4.5814   -1.5403   -0.4659 C   0  0  0  0  0  0  0  0  0  0  0  0
   -5.4025   -0.7973    0.5913 C   0  0  1  0  0  0  0  0  0  0  0  0
   -5.1942   -1.3730    1.9991 C   0  0  0  0  0  0  0  0  0  0  0  0
   -5.1562    0.6547    0.5347 N   0  0  0  0  0  0  0  0  0  0  0  0
   -3.7447    1.0747    0.6799 C   0  0  2  0  0  0  0  0  0  0  0  0
   -2.7387    0.1266    0.0321 C   0  0  0  0  0  0  0  0  0  0  0  0
   -1.3872    0.5164   -0.0968 C   0  0  0  0  0  0  0  0  0  0  0  0
   -0.4351   -0.3795   -0.6253 C   0  0  0  0  0  0  0  0  0  0  0  0
    0.9989    0.0081   -0.7002 C   0  0  0  0  0  0  0  0  0  0  0  0
    1.5583    0.3558   -1.9486 C   0  0  0  0  0  0  0  0  0  0  0  0
    0.7367    0.3336   -3.2154 C   0  0  0  0  0  0  0  0  0  0  0  0
    2.9078    0.7075   -2.0290 C   0  0  0  0  0  0  0  0  0  0  0  0
    3.7243    0.7542   -0.8876 C   0  0  0  0  0  0  0  0  0  0  0  0
    3.1787    0.4205    0.3785 C   0  0  0  0  0  0  0  0  0  0  0  0
    1.8076    0.0346    0.4664 C   0  0  0  0  0  0  0  0  0  0  0  0
    1.2759   -0.3300    1.7217 C   0  0  0  0  0  0  0  0  0  0  0  0
    2.0615   -0.2955    2.8665 C   0  0  0  0  0  0  0  0  0  0  0  0
    3.3918    0.0950    2.7930 C   0  0  0  0  0  0  0  0  0  0  0  0
    3.9701    0.4539    1.5620 C   0  0  0  0  0  0  0  0  0  0  0  0
    5.3197    0.8438    1.4955 O   0  0  0  0  0  0  0  0  0  0  0  0
    6.2075    0.9159    2.6070 C   0  0  0  0  0  0  0  0  0  0  0  0
    5.0771    1.1253   -0.9923 O   0  0  0  0  0  0  0  0  0  0  0  0
    5.7406    1.4827   -2.2011 C   0  0  0  0  0  0  0  0  0  0  0  0
   -0.9905    1.7887    0.3286 O   0  0  0  0  0  0  0  0  0  0  0  0
   -0.7606    2.8527   -0.5865 C   0  0  0  0  0  0  0  0  0  0  0  0
   -3.4205    1.3348    2.1607 C   0  0  0  0  0  0  0  0  0  0  0  0
   -0.8062   -3.8073   -2.9027 H   0  0  0  0  0  0  0  0  0  0  0  0
   -0.5551   -4.4722   -1.2251 H   0  0  0  0  0  0  0  0  0  0  0  0
    0.8372   -4.3129   -2.3601 H   0  0  0  0  0  0  0  0  0  0  0  0
   -2.5106   -2.9841   -1.3420 H   0  0  0  0  0  0  0  0  0  0  0  0
   -4.9833   -1.2970   -1.4733 H   0  0  0  0  0  0  0  0  0  0  0  0
   -4.6910   -2.6377   -0.3171 H   0  0  0  0  0  0  0  0  0  0  0  0
   -6.4765   -0.9626    0.3480 H   0  0  0  0  0  0  0  0  0  0  0  0
   -5.7048   -2.3564    2.0790 H   0  0  0  0  0  0  0  0  0  0  0  0
   -4.1195   -1.5390    2.2150 H   0  0  0  0  0  0  0  0  0  0  0  0
   -5.6293   -0.6932    2.7620 H   0  0  0  0  0  0  0  0  0  0  0  0
   -5.5087    1.0029   -0.3889 H   0  0  0  0  0  0  0  0  0  0  0  0
   -3.6434    2.0582    0.1669 H   0  0  0  0  0  0  0  0  0  0  0  0
   -0.2608    0.7900   -3.0442 H   0  0  0  0  0  0  0  0  0  0  0  0
    1.2266    0.9106   -4.0283 H   0  0  0  0  0  0  0  0  0  0  0  0
    0.6067   -0.7138   -3.5577 H   0  0  0  0  0  0  0  0  0  0  0  0
    3.3200    0.9540   -2.9979 H   0  0  0  0  0  0  0  0  0  0  0  0
    0.2486   -0.6498    1.8333 H   0  0  0  0  0  0  0  0  0  0  0  0
    1.6345   -0.5754    3.8213 H   0  0  0  0  0  0  0  0  0  0  0  0
    3.9675    0.1098    3.7079 H   0  0  0  0  0  0  0  0  0  0  0  0
    5.8298    1.6487    3.3510 H   0  0  0  0  0  0  0  0  0  0  0  0
    6.3174   -0.0855    3.0741 H   0  0  0  0  0  0  0  0  0  0  0  0
    7.2033    1.2524    2.2528 H   0  0  0  0  0  0  0  0  0  0  0  0
    5.2585    2.3754   -2.6524 H   0  0  0  0  0  0  0  0  0  0  0  0
    5.7210    0.6316   -2.9141 H   0  0  0  0  0  0  0  0  0  0  0  0
    6.7979    1.7289   -1.9736 H   0  0  0  0  0  0  0  0  0  0  0  0
   -0.5729    3.7856   -0.0171 H   0  0  0  0  0  0  0  0  0  0  0  0
   -1.6515    2.9988   -1.2330 H   0  0  0  0  0  0  0  0  0  0  0  0
    0.1251    2.6400   -1.2168 H   0  0  0  0  0  0  0  0  0  0  0  0
   -3.1130    0.4087    2.6849 H   0  0  0  0  0  0  0  0  0  0  0  0
   -2.5909    2.0653    2.2556 H   0  0  0  0  0  0  0  0  0  0  0  0
   -4.3029    1.7675    2.6783 H   0  0  0  0  0  0  0  0  0  0  0  0
  1  2  1  0
  2  3  1  0
  3  4  2  0
  4  5  1  0
  5  6  1  0
  6  7  1  0
  7  8  1  0
  7  9  1  0
  9 10  1  0
 10 11  1  0
 11 12  1  0
 12 13  2  0
 13 14  1  0
 14 15  2  0
 15 16  1  0
 15 17  1  0
 17 18  2  0
 18 19  1  0
 19 20  2  0
 20 21  1  0
 21 22  2  0
 22 23  1  0
 23 24  2  0
 24 25  1  0
 25 26  1  0
 18 27  1  0
 27 28  1  0
 12 29  1  0
 29 30  1  0
 10 31  1  0
 13  3  1  0
 20 14  1  0
 11  5  2  0
 24 19  1  0
  1 32  1  0
  1 33  1  0
  1 34  1  0
  4 35  1  0
  6 36  1  0
  6 37  1  0
  7 38  1  6
  8 39  1  0
  8 40  1  0
  8 41  1  0
  9 42  1  0
 10 43  1  6
 16 44  1  0
 16 45  1  0
 16 46  1  0
 17 47  1  0
 21 48  1  0
 22 49  1  0
 23 50  1  0
 26 51  1  0
 26 52  1  0
 26 53  1  0
 28 54  1  0
 28 55  1  0
 28 56  1  0
 30 57  1  0
 30 58  1  0
 30 59  1  0
 31 60  1  0
 31 61  1  0
 31 62  1  0
M  END
$$$$
