
     RDKit          3D

 40 41  0  0  0  0  0  0  0  0999 V2000
   -6.5800    0.0437    1.2848 C   0  0  0  0  0  0  0  0  0  0  0  0
   -5.3604    0.3938    0.5026 C   0  0  0  0  0  0  0  0  0  0  0  0
   -5.1682    1.5892    0.1503 O   0  0  0  0  0  0  0  0  0  0  0  0
   -4.4745   -0.6203    0.1203 O   0  0  0  0  0  0  0  0  0  0  0  0
   -3.2544   -0.3876   -0.5856 C   0  0  2  0  0  0  0  0  0  0  0  0
   -2.9411   -1.6144   -1.4008 C   0  0  0  0  0  0  0  0  0  0  0  0
   -1.6948   -2.0726   -1.5833 C   0  0  0  0  0  0  0  0  0  0  0  0
   -0.5025   -1.5293   -0.8350 C   0  0  2  0  0  0  0  0  0  0  0  0
   -0.7330   -0.0835   -0.2876 C   0  0  2  0  0  0  0  0  0  0  0  0
   -2.1216   -0.0434    0.4085 C   0  0  1  0  0  0  0  0  0  0  0  0
   -2.3485    1.2383    0.9424 O   0  0  0  0  0  0  0  0  0  0  0  0
   -0.7469    0.8561   -1.3416 O   0  0  0  0  0  0  0  0  0  0  0  0
    0.3546    0.2916    0.7600 C   0  0  0  0  0  0  0  0  0  0  0  0
    1.6565    0.2983    0.1806 O   0  0  0  0  0  0  0  0  0  0  0  0
    2.8134    0.5704    0.9185 C   0  0  0  0  0  0  0  0  0  0  0  0
    2.7335    0.7957    2.1579 O   0  0  0  0  0  0  0  0  0  0  0  0
    4.1292    0.5912    0.2429 C   0  0  0  0  0  0  0  0  0  0  0  0
    5.3119    0.7956    0.9786 C   0  0  0  0  0  0  0  0  0  0  0  0
    6.5524    0.8126    0.3331 C   0  0  0  0  0  0  0  0  0  0  0  0
    6.6259    0.6274   -1.0493 C   0  0  0  0  0  0  0  0  0  0  0  0
    5.4588    0.4257   -1.7895 C   0  0  0  0  0  0  0  0  0  0  0  0
    4.2157    0.4078   -1.1493 C   0  0  0  0  0  0  0  0  0  0  0  0
    0.9284   -1.6600   -1.9047 Cl  0  0  0  0  0  0  0  0  0  0  0  0
   -6.8189    0.8562    2.0031 H   0  0  0  0  0  0  0  0  0  0  0  0
   -7.4355   -0.0977    0.5923 H   0  0  0  0  0  0  0  0  0  0  0  0
   -6.4098   -0.8960    1.8509 H   0  0  0  0  0  0  0  0  0  0  0  0
   -3.3892    0.4499   -1.3061 H   0  0  0  0  0  0  0  0  0  0  0  0
   -3.7516   -2.0857   -1.9493 H   0  0  0  0  0  0  0  0  0  0  0  0
   -1.5569   -2.9499   -2.2092 H   0  0  0  0  0  0  0  0  0  0  0  0
   -0.3244   -2.2134    0.0231 H   0  0  0  0  0  0  0  0  0  0  0  0
   -2.1256   -0.8070    1.2256 H   0  0  0  0  0  0  0  0  0  0  0  0
   -2.8612    1.1197    1.7843 H   0  0  0  0  0  0  0  0  0  0  0  0
    0.1698    0.9390   -1.7096 H   0  0  0  0  0  0  0  0  0  0  0  0
    0.3322   -0.4351    1.6023 H   0  0  0  0  0  0  0  0  0  0  0  0
    0.1507    1.3040    1.1715 H   0  0  0  0  0  0  0  0  0  0  0  0
    5.2795    0.9401    2.0513 H   0  0  0  0  0  0  0  0  0  0  0  0
    7.4575    0.9693    0.9056 H   0  0  0  0  0  0  0  0  0  0  0  0
    7.5870    0.6411   -1.5469 H   0  0  0  0  0  0  0  0  0  0  0  0
    5.5168    0.2842   -2.8610 H   0  0  0  0  0  0  0  0  0  0  0  0
    3.3251    0.2550   -1.7450 H   0  0  0  0  0  0  0  0  0  0  0  0
  1  2  1  0
  2  3  2  0
  2  4  1  0
  4  5  1  0
  5  6  1  0
  6  7  2  0
  7  8  1  0
  8  9  1  0
  9 10  1  0
 10 11  1  0
  9 12  1  6
  9 13  1  0
 13 14  1  0
 14 15  1  0
 15 16  2  0
 15 17  1  0
 17 18  2  0
 18 19  1  0
 19 20  2  0
 20 21  1  0
 21 22  2  0
  8 23  1  0
 10  5  1  0
 22 17  1  0
  1 24  1  0
  1 25  1  0
  1 26  1  0
  5 27  1  6
  6 28  1  0
  7 29  1  0
  8 30  1  1
 10 31  1  1
 11 32  1  0
 12 33  1  0
 13 34  1  0
 13 35  1  0
 18 36  1  0
 19 37  1  0
 20 38  1  0
 21 39  1  0
 22 40  1  0
M  END
$$$$
