
     RDKit          3D

 50 51  0  0  0  0  0  0  0  0999 V2000
   -3.4676    2.5551   -2.1348 C   0  0  0  0  0  0  0  0  0  0  0  0
   -2.7478    1.7906   -1.1926 O   0  0  0  0  0  0  0  0  0  0  0  0
   -3.5517    1.5154   -0.0577 C   0  0  2  0  0  0  0  0  0  0  0  0
   -3.4359    2.6532    0.9784 C   0  0  0  0  0  0  0  0  0  0  0  0
   -2.9031    1.9695    2.1722 C   0  0  0  0  0  0  0  0  0  0  0  0
   -2.6473    2.5499    3.2592 O   0  0  0  0  0  0  0  0  0  0  0  0
   -2.6933    0.6244    1.9801 O   0  0  0  0  0  0  0  0  0  0  0  0
   -3.0933    0.2163    0.6832 C   0  0  2  0  0  0  0  0  0  0  0  0
   -2.0052   -0.6592   -0.0116 C   0  0  1  0  0  0  0  0  0  0  0  0
   -0.5399   -0.3256    0.4026 C   0  0  0  0  0  0  0  0  0  0  0  0
    0.3475   -1.3094   -0.1354 O   0  0  0  0  0  0  0  0  0  0  0  0
    0.8165   -2.4188    0.5787 C   0  0  0  0  0  0  0  0  0  0  0  0
    0.4772   -2.6104    1.7779 O   0  0  0  0  0  0  0  0  0  0  0  0
    1.7669   -3.3595   -0.0786 C   0  0  0  0  0  0  0  0  0  0  0  0
   -0.0789    1.0537   -0.0919 C   0  0  0  0  0  0  0  0  0  0  0  0
    1.2726    1.2981    0.2980 O   0  0  0  0  0  0  0  0  0  0  0  0
    2.3860    0.8602   -0.4316 C   0  0  0  0  0  0  0  0  0  0  0  0
    2.2321    0.3297   -1.5665 O   0  0  0  0  0  0  0  0  0  0  0  0
    3.7436    1.0232    0.1320 C   0  0  0  0  0  0  0  0  0  0  0  0
    4.8751    0.5803   -0.5790 C   0  0  0  0  0  0  0  0  0  0  0  0
    6.1551    0.7321   -0.0367 C   0  0  0  0  0  0  0  0  0  0  0  0
    6.3194    1.3250    1.2171 C   0  0  0  0  0  0  0  0  0  0  0  0
    5.2039    1.7670    1.9319 C   0  0  0  0  0  0  0  0  0  0  0  0
    3.9214    1.6177    1.3946 C   0  0  0  0  0  0  0  0  0  0  0  0
   -2.2810   -2.0242    0.3221 O   0  0  0  0  0  0  0  0  0  0  0  0
   -2.1089   -3.1002   -0.5585 C   0  0  0  0  0  0  0  0  0  0  0  0
   -1.6994   -2.9158   -1.7369 O   0  0  0  0  0  0  0  0  0  0  0  0
   -2.3562   -4.4877   -0.0744 C   0  0  0  0  0  0  0  0  0  0  0  0
   -4.2911    1.9554   -2.5810 H   0  0  0  0  0  0  0  0  0  0  0  0
   -2.7790    2.8448   -2.9547 H   0  0  0  0  0  0  0  0  0  0  0  0
   -3.8686    3.4902   -1.6841 H   0  0  0  0  0  0  0  0  0  0  0  0
   -4.6273    1.3797   -0.3329 H   0  0  0  0  0  0  0  0  0  0  0  0
   -4.4316    3.0926    1.2020 H   0  0  0  0  0  0  0  0  0  0  0  0
   -2.7303    3.4468    0.6505 H   0  0  0  0  0  0  0  0  0  0  0  0
   -4.0037   -0.4136    0.8076 H   0  0  0  0  0  0  0  0  0  0  0  0
   -2.1073   -0.5406   -1.1122 H   0  0  0  0  0  0  0  0  0  0  0  0
   -0.4574   -0.3213    1.5118 H   0  0  0  0  0  0  0  0  0  0  0  0
    1.6145   -4.3896    0.3073 H   0  0  0  0  0  0  0  0  0  0  0  0
    2.8082   -3.0374    0.1301 H   0  0  0  0  0  0  0  0  0  0  0  0
    1.5981   -3.3598   -1.1758 H   0  0  0  0  0  0  0  0  0  0  0  0
   -0.1853    1.1369   -1.1956 H   0  0  0  0  0  0  0  0  0  0  0  0
   -0.7010    1.8399    0.3764 H   0  0  0  0  0  0  0  0  0  0  0  0
    4.7718    0.1160   -1.5518 H   0  0  0  0  0  0  0  0  0  0  0  0
    7.0203    0.3890   -0.5893 H   0  0  0  0  0  0  0  0  0  0  0  0
    7.3110    1.4413    1.6351 H   0  0  0  0  0  0  0  0  0  0  0  0
    5.3325    2.2255    2.9039 H   0  0  0  0  0  0  0  0  0  0  0  0
    3.0718    1.9666    1.9680 H   0  0  0  0  0  0  0  0  0  0  0  0
   -2.7913   -5.1045   -0.8889 H   0  0  0  0  0  0  0  0  0  0  0  0
   -3.0645   -4.4701    0.7802 H   0  0  0  0  0  0  0  0  0  0  0  0
   -1.3975   -4.9388    0.2562 H   0  0  0  0  0  0  0  0  0  0  0  0
  1  2  1  0
  2  3  1  0
  3  4  1  0
  4  5  1  0
  5  6  2  0
  5  7  1  0
  7  8  1  0
  8  9  1  0
  9 10  1  0
 10 11  1  0
 11 12  1  0
 12 13  2  0
 12 14  1  0
 10 15  1  0
 15 16  1  0
 16 17  1  0
 17 18  2  0
 17 19  1  0
 19 20  2  0
 20 21  1  0
 21 22  2  0
 22 23  1  0
 23 24  2  0
  9 25  1  0
 25 26  1  0
 26 27  2  0
 26 28  1  0
  8  3  1  0
 24 19  1  0
  1 29  1  0
  1 30  1  0
  1 31  1  0
  3 32  1  6
  4 33  1  0
  4 34  1  0
  8 35  1  1
  9 36  1  6
 10 37  1  0
 14 38  1  0
 14 39  1  0
 14 40  1  0
 15 41  1  0
 15 42  1  0
 20 43  1  0
 21 44  1  0
 22 45  1  0
 23 46  1  0
 24 47  1  0
 28 48  1  0
 28 49  1  0
 28 50  1  0
M  END
$$$$
